REMARK  Name = ZINC45644477
REMARK  7 active torsions:
REMARK  status: ('A' for Active; 'I' for Inactive)
REMARK    1  A    between atoms: C_1  and  C_2
REMARK    2  A    between atoms: C_2  and  C_3
REMARK    3  A    between atoms: C_3  and  C_5
REMARK    4  A    between atoms: C_3  and  C_6
REMARK    5  A    between atoms: C_6  and  C_8
REMARK    6  A    between atoms: C_6  and  N_24
REMARK    7  A    between atoms: N_10  and  C_11
REMARK                            x       y       z     vdW  Elec       q    Type
REMARK                         _______ _______ _______ _____ _____    ______ ____
ROOT
ATOM      1  C   UNL     1      -2.078  -0.189  -0.737  0.00  0.00    +0.161 C 
ENDROOT
BRANCH   1   2
ATOM      2  N   UNL     1      -2.377   1.203  -0.394  0.00  0.00    -0.316 N 
ATOM      3  C   UNL     1      -1.528   2.210  -0.796  0.00  0.00    +0.150 C 
ATOM      4  N   UNL     1      -0.520   1.948  -1.567  0.00  0.00    -0.113 NA
ATOM      5  S   UNL     1       0.252   3.410  -1.823  0.00  0.00    +0.101 S 
ATOM      6  O   UNL     1       1.518   3.350  -1.180  0.00  0.00    -0.146 OA
ATOM      7  O   UNL     1       0.085   3.754  -3.192  0.00  0.00    -0.146 OA
ATOM      8  C   UNL     1      -0.790   4.476  -0.867  0.00  0.00    +0.123 A 
ATOM      9  C   UNL     1      -1.758   3.596  -0.361  0.00  0.00    +0.043 A 
ATOM     10  C   UNL     1      -2.761   4.140   0.455  0.00  0.00    +0.013 A 
ATOM     11  C   UNL     1      -2.777   5.489   0.732  0.00  0.00    +0.001 A 
ATOM     12  C   UNL     1      -1.811   6.333   0.215  0.00  0.00    +0.002 A 
ATOM     13  C   UNL     1      -0.805   5.811  -0.588  0.00  0.00    +0.030 A 
ATOM     14  H   UNL     1      -3.174   1.416   0.117  0.00  0.00    +0.148 HD
ENDBRANCH   1   2
BRANCH   1  15
ATOM     15  C   UNL     1      -3.365  -0.932  -0.989  0.00  0.00    +0.238 C 
ATOM     16  O   UNL     1      -4.429  -0.370  -0.836  0.00  0.00    -0.273 OA
ATOM     17  N   UNL     1      -3.334  -2.220  -1.383  0.00  0.00    -0.284 N 
ATOM     18  H   UNL     1      -2.489  -2.695  -1.421  0.00  0.00    +0.155 HD
BRANCH  17  19
ATOM     19  C   UNL     1      -4.521  -2.874  -1.738  0.00  0.00    +0.037 A 
ATOM     20  C   UNL     1      -5.544  -2.167  -2.355  0.00  0.00    +0.027 A 
ATOM     21  C   UNL     1      -6.717  -2.810  -2.706  0.00  0.00    +0.051 A 
ATOM     22  C   UNL     1      -6.873  -4.159  -2.443  0.00  0.00    +0.167 A 
ATOM     23  C   UNL     1      -5.847  -4.872  -1.823  0.00  0.00    +0.169 A 
ATOM     24  C   UNL     1      -4.672  -4.229  -1.477  0.00  0.00    +0.073 A 
ATOM     25  O   UNL     1      -6.251  -6.174  -1.683  0.00  0.00    -0.447 OA
ATOM     26  C   UNL     1      -7.681  -6.103  -1.769  0.00  0.00    +0.254 C 
ATOM     27  O   UNL     1      -7.912  -5.022  -2.684  0.00  0.00    -0.448 OA
ATOM     28  C   UNL     1      -8.270  -7.414  -2.301  0.00  0.00    +0.093 C 
ATOM     29  C   UNL     1      -8.753  -8.151  -1.024  0.00  0.00    +0.008 C 
ATOM     30  C   UNL     1      -9.292  -6.996  -0.142  0.00  0.00    +0.008 C 
ATOM     31  C   UNL     1      -8.313  -5.829  -0.405  0.00  0.00    +0.093 C 
ENDBRANCH  17  19
ENDBRANCH   1  15
BRANCH   1  32
ATOM     32  C   UNL     1      -1.326  -0.850   0.420  0.00  0.00    +0.015 C 
ATOM     33  C   UNL     1       0.063  -0.221   0.549  0.00  0.00    +0.010 C 
BRANCH  32  35
ATOM     34  C   UNL     1      -3.415  -1.427   1.663  0.00  0.00    +0.004 C 
ATOM     35  C   UNL     1      -2.104  -0.640   1.720  0.00  0.00    +0.002 C 
ENDBRANCH  32  35
ENDBRANCH   1  32
TORSDOF 5
