REMARK  Name = ZINC40084094
REMARK  11 active torsions:
REMARK  status: ('A' for Active; 'I' for Inactive)
REMARK    1  A    between atoms: C_1  and  C_2
REMARK    2  A    between atoms: C_2  and  O_3
REMARK    3  A    between atoms: O_3  and  C_4
REMARK    4  A    between atoms: C_4  and  C_6
REMARK    5  A    between atoms: C_7  and  C_32
REMARK    6  A    between atoms: C_8  and  C_31
REMARK    7  A    between atoms: C_11  and  N_13
REMARK    8  A    between atoms: C_14  and  C_16
REMARK    9  A    between atoms: C_16  and  O_17
REMARK   10  A    between atoms: O_17  and  C_18
REMARK   11  A    between atoms: C_18  and  C_20
REMARK                            x       y       z     vdW  Elec       q    Type
REMARK                         _______ _______ _______ _____ _____    ______ ____
ROOT
ATOM      1  N   UNL     1      -4.338  -0.916  -1.272  0.00  0.00    -0.297 N 
ATOM      2  C   UNL     1      -5.589  -0.914  -1.773  0.00  0.00    +0.252 C 
ATOM      3  O   UNL     1      -6.505  -1.366  -1.118  0.00  0.00    -0.272 OA
ATOM      4  H   UNL     1      -3.606  -0.554  -1.795  0.00  0.00    +0.150 HD
ENDROOT
BRANCH   1   9
ATOM      5  C   UNL     1      -2.857  -2.356   0.063  0.00  0.00    +0.071 C 
ATOM      6  C   UNL     1      -3.042  -3.671   0.085  0.00  0.00    -0.015 C 
ATOM      7  C   UNL     1      -4.468  -4.191   0.103  0.00  0.00    +0.076 C 
ATOM      8  S   UNL     1      -5.399  -2.661   0.546  0.00  0.00    -0.126 S 
ATOM      9  C   UNL     1      -4.084  -1.463   0.063  0.00  0.00    +0.169 C 
ATOM     10  C   UNL     1      -4.646  -5.273   1.171  0.00  0.00    +0.024 C 
BRANCH   6  11
ATOM     11  C   UNL     1      -1.898  -4.597   0.092  0.00  0.00    -0.020 A 
ATOM     12  C   UNL     1      -1.677  -5.450  -0.994  0.00  0.00    +0.008 A 
ATOM     13  C   UNL     1      -0.603  -6.314  -0.981  0.00  0.00    +0.001 A 
ATOM     14  C   UNL     1       0.256  -6.340   0.105  0.00  0.00    +0.000 A 
ATOM     15  C   UNL     1       0.044  -5.499   1.184  0.00  0.00    +0.001 A 
ATOM     16  C   UNL     1      -1.022  -4.625   1.183  0.00  0.00    +0.008 A 
ENDBRANCH   6  11
BRANCH   5  17
ATOM     17  C   UNL     1      -1.510  -1.785   0.044  0.00  0.00    +0.338 C 
ATOM     18  O   UNL     1      -0.539  -2.518   0.045  0.00  0.00    -0.245 OA
BRANCH  17  19
ATOM     19  O   UNL     1      -1.345  -0.447   0.027  0.00  0.00    -0.462 OA
BRANCH  19  21
ATOM     20  C   UNL     1      -0.016   1.571  -0.009  0.00  0.00    +0.048 C 
ATOM     21  C   UNL     1      -0.003   0.042   0.009  0.00  0.00    +0.229 C 
ENDBRANCH  19  21
ENDBRANCH  17  19
ENDBRANCH   5  17
ENDBRANCH   1   9
BRANCH   2  22
ATOM     22  C   UNL     1      -5.851  -0.351  -3.146  0.00  0.00    +0.328 C 
BRANCH  22  23
ATOM     23  O   UNL     1      -7.243  -0.462  -3.449  0.00  0.00    -0.452 OA
BRANCH  23  24
ATOM     24  C   UNL     1      -7.646  -0.001  -4.650  0.00  0.00    +0.337 C 
ATOM     25  O   UNL     1      -6.838   0.482  -5.417  0.00  0.00    -0.245 OA
BRANCH  24  26
ATOM     26  C   UNL     1      -9.070  -0.083  -5.032  0.00  0.00    +0.054 C 
ATOM     27  C   UNL     1      -9.992  -0.734  -4.239  0.00  0.00    +0.007 A 
ATOM     28  C   UNL     1      -9.591  -1.371  -2.984  0.00  0.00    +0.010 A 
ATOM     29  C   UNL     1     -10.534  -1.998  -2.239  0.00  0.00    +0.001 A 
ATOM     30  C   UNL     1     -11.873  -2.049  -2.646  0.00  0.00    +0.002 A 
ATOM     31  C   UNL     1     -12.312  -1.481  -3.796  0.00  0.00    +0.024 A 
ATOM     32  C   UNL     1     -11.412  -0.801  -4.646  0.00  0.00    +0.041 A 
ATOM     33  N   UNL     1     -11.847  -0.249  -5.768  0.00  0.00    -0.285 N 
ATOM     34  C   UNL     1     -11.058   0.404  -6.614  0.00  0.00    +0.222 C 
ATOM     35  O   UNL     1     -11.521   0.887  -7.628  0.00  0.00    -0.275 OA
ATOM     36  C   UNL     1      -9.584   0.551  -6.310  0.00  0.00    +0.139 C 
ATOM     37  H   UNL     1     -12.790  -0.325  -5.984  0.00  0.00    +0.155 HD
ENDBRANCH  24  26
ENDBRANCH  23  24
ENDBRANCH  22  23
ENDBRANCH   2  22
TORSDOF 9
