REMARK  Name = ZINC13069653
REMARK  10 active torsions:
REMARK  status: ('A' for Active; 'I' for Inactive)
REMARK    1  A    between atoms: C_1  and  C_2
REMARK    2  A    between atoms: C_2  and  C_3
REMARK    3  A    between atoms: C_3  and  C_4
REMARK    4  A    between atoms: C_3  and  C_5
REMARK    5  A    between atoms: C_3  and  C_6
REMARK    6  A    between atoms: C_13  and  N_17
REMARK    7  A    between atoms: C_14  and  C_15
REMARK    8  A    between atoms: C_18  and  C_20
REMARK    9  A    between atoms: C_20  and  N_21
REMARK   10  A    between atoms: C_29  and  C_31
REMARK                            x       y       z     vdW  Elec       q    Type
REMARK                         _______ _______ _______ _____ _____    ______ ____
ROOT
ATOM      1  N   UNL     1      -2.104   4.654   0.050  0.00  0.00    -0.278 N 
ATOM      2  C   UNL     1      -1.780   5.962   0.055  0.00  0.00    +0.236 C 
ATOM      3  O   UNL     1      -0.615   6.299   0.045  0.00  0.00    -0.274 OA
ATOM      4  H   UNL     1      -3.036   4.385   0.058  0.00  0.00    +0.155 HD
ENDROOT
BRANCH   1  11
ATOM      5  C   UNL     1       2.466   0.206  -0.400  0.00  0.00    -0.000 C 
ATOM      6  C   UNL     1       1.387  -0.480   0.443  0.00  0.00    +0.009 C 
ATOM      7  C   UNL     1       0.002  -0.004   0.002  0.00  0.00    +0.037 C 
ATOM      8  C   UNL     1      -0.019   1.520   0.010  0.00  0.00    -0.018 A 
ATOM      9  C   UNL     1       1.130   2.231   0.003  0.00  0.00    -0.004 A 
ATOM     10  S   UNL     1       0.613   3.924   0.019  0.00  0.00    -0.077 S 
ATOM     11  C   UNL     1      -1.104   3.692   0.034  0.00  0.00    +0.090 A 
ATOM     12  C   UNL     1      -1.236   2.311   0.032  0.00  0.00    +0.084 A 
ATOM     13  C   UNL     1       2.527   1.691  -0.014  0.00  0.00    +0.047 C 
BRANCH   5  14
ATOM     14  C   UNL     1       3.822  -0.450  -0.130  0.00  0.00    -0.032 C 
ATOM     15  C   UNL     1       4.170  -0.310   1.353  0.00  0.00    +0.011 C 
ATOM     16  C   UNL     1       3.754  -1.933  -0.500  0.00  0.00    +0.011 C 
BRANCH  14  18
ATOM     17  C   UNL     1       6.254  -0.419  -0.703  0.00  0.00    +0.004 C 
ATOM     18  C   UNL     1       4.898   0.237  -0.974  0.00  0.00    +0.003 C 
ENDBRANCH  14  18
ENDBRANCH   5  14
BRANCH  12  19
ATOM     19  C   UNL     1      -2.526   1.689   0.047  0.00  0.00    +0.102 C 
ATOM     20  N   UNL     1      -3.549   1.196   0.059  0.00  0.00    -0.191 NA
ENDBRANCH  12  19
ENDBRANCH   1  11
BRANCH   2  21
ATOM     21  C   UNL     1      -2.866   7.007   0.072  0.00  0.00    +0.214 C 
BRANCH  21  22
ATOM     22  N   UNL     1      -2.261   8.341   0.075  0.00  0.00    -0.215 N 
ATOM     23  C   UNL     1      -1.941   9.027   1.192  0.00  0.00    +0.247 C 
ATOM     24  O   UNL     1      -2.093   8.670   2.341  0.00  0.00    -0.273 OA
ATOM     25  C   UNL     1      -1.350  10.331   0.709  0.00  0.00    +0.115 C 
ATOM     26  C   UNL     1      -2.189  11.505   1.202  0.00  0.00    +0.035 C 
ATOM     27  C   UNL     1      -1.597  12.815   0.673  0.00  0.00    +0.003 C 
ATOM     28  C   UNL     1      -0.154  12.955   1.162  0.00  0.00    +0.000 C 
ATOM     29  C   UNL     1       0.679  11.782   0.643  0.00  0.00    +0.006 C 
ATOM     30  C   UNL     1       0.096  10.470   1.172  0.00  0.00    +0.018 C 
ATOM     31  C   UNL     1       0.917   9.295   0.637  0.00  0.00    +0.010 C 
ATOM     32  N   UNL     1      -1.414  10.232  -0.754  0.00  0.00    -0.285 N 
ATOM     33  C   UNL     1      -1.961   9.033  -1.031  0.00  0.00    +0.310 C 
ATOM     34  O   UNL     1      -2.161   8.626  -2.159  0.00  0.00    -0.252 OA
ATOM     35  H   UNL     1      -1.121  10.899  -1.395  0.00  0.00    +0.151 HD
ENDBRANCH  21  22
ENDBRANCH   2  21
TORSDOF 6
