REMARK  Name = ZINC12543153
REMARK  8 active torsions:
REMARK  status: ('A' for Active; 'I' for Inactive)
REMARK    1  A    between atoms: C_1  and  C_2
REMARK    2  A    between atoms: C_5  and  S_28
REMARK    3  A    between atoms: C_7  and  N_8
REMARK    4  A    between atoms: C_12  and  C_15
REMARK    5  A    between atoms: C_17  and  C_21
REMARK    6  A    between atoms: S_28  and  N_31
REMARK    7  A    between atoms: N_31  and  C_32
REMARK    8  A    between atoms: N_31  and  C_33
REMARK                            x       y       z     vdW  Elec       q    Type
REMARK                         _______ _______ _______ _____ _____    ______ ____
ROOT
ATOM      1  N   UNL     1       0.025  -0.037   2.398  0.00  0.00    -0.225 NA
ATOM      2  C   UNL     1      -0.055  -0.703   3.529  0.00  0.00    +0.174 C 
ATOM      3  N   UNL     1      -0.035  -2.090   3.583  0.00  0.00    -0.215 N 
ATOM      4  N   UNL     1      -0.810  -2.751   4.531  0.00  0.00    -0.184 NA
ATOM      5  C   UNL     1      -1.471  -2.255   5.496  0.00  0.00    +0.078 C 
ATOM      6  C   UNL     1      -1.602  -0.796   5.836  0.00  0.00    +0.134 C 
ATOM      7  S   UNL     1      -0.189   0.105   5.107  0.00  0.00    -0.083 S 
ATOM      8  H   UNL     1       0.516  -2.594   2.963  0.00  0.00    +0.176 HD
ENDROOT
BRANCH   1  15
ATOM      9  C   UNL     1       2.056   0.601   0.515  0.00  0.00    +0.046 C 
ATOM     10  C   UNL     1       0.997  -0.437   0.244  0.00  0.00    -0.025 A 
ATOM     11  C   UNL     1       0.991  -1.123  -0.953  0.00  0.00    +0.007 A 
ATOM     12  C   UNL     1       0.020  -2.076  -1.203  0.00  0.00    +0.029 A 
ATOM     13  C   UNL     1      -0.952  -2.348  -0.256  0.00  0.00    +0.107 A 
ATOM     14  C   UNL     1      -0.958  -1.670   0.945  0.00  0.00    +0.056 A 
ATOM     15  C   UNL     1       0.022  -0.710   1.206  0.00  0.00    +0.071 A 
BRANCH  13  16
ATOM     16  S   UNL     1      -2.184  -3.563  -0.586  0.00  0.00    +0.060 S 
ATOM     17  O   UNL     1      -3.300  -3.244   0.235  0.00  0.00    -0.153 OA
ATOM     18  O   UNL     1      -2.284  -3.667  -2.000  0.00  0.00    -0.153 OA
BRANCH  16  19
ATOM     19  N   UNL     1      -1.598  -5.014  -0.045  0.00  0.00    -0.183 NA
ATOM     20  C   UNL     1      -1.857  -5.441   1.332  0.00  0.00    +0.131 C 
ATOM     21  C   UNL     1      -0.822  -5.872  -0.944  0.00  0.00    +0.131 C 
ENDBRANCH  16  19
ENDBRANCH  13  16
ENDBRANCH   1  15
BRANCH   5  22
ATOM     22  C   UNL     1      -2.183  -3.206   6.371  0.00  0.00    +0.017 A 
ATOM     23  C   UNL     1      -2.197  -4.611   6.245  0.00  0.00    +0.042 A 
ATOM     24  C   UNL     1      -2.974  -5.098   7.257  0.00  0.00    +0.103 A 
ATOM     25  N   UNL     1      -3.435  -4.032   7.997  0.00  0.00    -0.356 N 
ATOM     26  H   UNL     1      -4.010  -4.095   8.776  0.00  0.00    +0.165 HD
ATOM     27  C   UNL     1      -2.955  -2.888   7.470  0.00  0.00    +0.093 A 
BRANCH  24  28
ATOM     28  C   UNL     1      -3.268  -6.513   7.512  0.00  0.00    +0.263 C 
ATOM     29  O   UNL     1      -2.802  -7.371   6.786  0.00  0.00    -0.268 OA
ATOM     30  N   UNL     1      -4.053  -6.861   8.550  0.00  0.00    -0.296 N 
ATOM     31  C   UNL     1      -4.684  -5.931   9.498  0.00  0.00    +0.108 C 
ATOM     32  C   UNL     1      -5.463  -6.781  10.524  0.00  0.00    +0.020 C 
ATOM     33  C   UNL     1      -4.765  -8.163  10.432  0.00  0.00    +0.020 C 
ATOM     34  C   UNL     1      -4.428  -8.239   8.920  0.00  0.00    +0.108 C 
ENDBRANCH  24  28
ENDBRANCH   5  22
TORSDOF 5
