REMARK  Name = ZINC60383242
REMARK  8 active torsions:
REMARK  status: ('A' for Active; 'I' for Inactive)
REMARK    1  A    between atoms: C_6  and  O_31
REMARK    2  A    between atoms: C_7  and  C_11
REMARK    3  A    between atoms: C_11  and  O_13
REMARK    4  A    between atoms: O_13  and  C_14
REMARK    5  A    between atoms: C_14  and  C_15
REMARK    6  A    between atoms: C_15  and  C_17
REMARK    7  A    between atoms: C_20  and  S_23
REMARK    8  A    between atoms: S_23  and  N_26
REMARK                            x       y       z     vdW  Elec       q    Type
REMARK                         _______ _______ _______ _____ _____    ______ ____
ROOT
ATOM      1  C   UNL     1       1.576  -6.341  -0.048  0.00  0.00    +0.311 C 
ENDROOT
BRANCH   1   2
ATOM      2  C   UNL     1       0.209  -6.975  -0.039  0.00  0.00    +0.200 C 
ATOM      3  O   UNL     1      -0.783  -6.277  -0.025  0.00  0.00    -0.288 OA
BRANCH   2   4
ATOM      4  C   UNL     1       0.077  -8.441  -0.046  0.00  0.00    +0.021 A 
ATOM      5  C   UNL     1       1.219  -9.248  -0.056  0.00  0.00    +0.013 A 
ATOM      6  C   UNL     1       1.087 -10.621  -0.062  0.00  0.00    +0.029 A 
ATOM      7  C   UNL     1      -0.170 -11.200  -0.059  0.00  0.00    +0.106 A 
ATOM      8  C   UNL     1      -1.304 -10.407  -0.049  0.00  0.00    +0.029 A 
ATOM      9  C   UNL     1      -1.190  -9.033  -0.037  0.00  0.00    +0.013 A 
BRANCH   7  10
ATOM     10  S   UNL     1      -0.327 -12.954  -0.067  0.00  0.00    +0.061 S 
ATOM     11  O   UNL     1      -1.607 -13.245  -0.612  0.00  0.00    -0.153 OA
ATOM     12  O   UNL     1       0.874 -13.467  -0.626  0.00  0.00    -0.153 OA
BRANCH  10  13
ATOM     13  N   UNL     1      -0.363 -13.450   1.513  0.00  0.00    -0.177 NA
ATOM     14  C   UNL     1       0.809 -13.807   2.326  0.00  0.00    +0.109 C 
ATOM     15  C   UNL     1       0.291 -14.229   3.717  0.00  0.00    +0.018 C 
ATOM     16  C   UNL     1      -1.181 -14.628   3.433  0.00  0.00    +0.018 C 
ATOM     17  C   UNL     1      -1.575 -13.600   2.339  0.00  0.00    +0.109 C 
ENDBRANCH  10  13
ENDBRANCH   7  10
ENDBRANCH   2   4
ENDBRANCH   1   2
BRANCH   1  18
ATOM     18  O   UNL     1       1.441  -4.918  -0.039  0.00  0.00    -0.453 OA
BRANCH  18  19
ATOM     19  C   UNL     1       2.579  -4.196  -0.046  0.00  0.00    +0.343 C 
ATOM     20  O   UNL     1       3.655  -4.758  -0.059  0.00  0.00    -0.245 OA
BRANCH  19  27
ATOM     21  C   UNL     1      -0.016   1.356   0.009  0.00  0.00    +0.001 A 
ATOM     22  C   UNL     1       1.169   2.090   0.002  0.00  0.00    +0.001 A 
ATOM     23  C   UNL     1       2.379   1.467  -0.013  0.00  0.00    +0.008 A 
ATOM     24  C   UNL     1       2.440   0.063  -0.021  0.00  0.00    -0.014 A 
ATOM     25  C   UNL     1       3.675  -0.607  -0.037  0.00  0.00    +0.054 A 
ATOM     26  C   UNL     1       3.711  -1.970  -0.044  0.00  0.00    +0.131 A 
ATOM     27  C   UNL     1       2.517  -2.723  -0.037  0.00  0.00    +0.101 A 
ATOM     28  C   UNL     1       1.286  -2.085  -0.021  0.00  0.00    +0.027 A 
ATOM     29  C   UNL     1       1.234  -0.684  -0.013  0.00  0.00    -0.017 A 
ATOM     30  C   UNL     1       0.002  -0.004   0.002  0.00  0.00    +0.008 A 
BRANCH  26  31
ATOM     31  O   UNL     1       4.908  -2.610  -0.059  0.00  0.00    -0.506 OA
ATOM     32  H   UNL     1       5.263  -2.800   0.820  0.00  0.00    +0.292 HD
ENDBRANCH  26  31
ENDBRANCH  19  27
ENDBRANCH  18  19
ENDBRANCH   1  18
TORSDOF 8
