REMARK  Name = ZINC01421138
REMARK  9 active torsions:
REMARK  status: ('A' for Active; 'I' for Inactive)
REMARK    1  A    between atoms: C_1  and  C_2
REMARK    2  A    between atoms: C_4  and  O_27
REMARK    3  A    between atoms: C_8  and  C_21
REMARK    4  A    between atoms: C_14  and  C_19
REMARK    5  A    between atoms: C_14  and  C_20
REMARK    6  A    between atoms: O_27  and  C_28
REMARK    7  A    between atoms: C_28  and  C_29
REMARK    8  A    between atoms: C_29  and  O_31
REMARK    9  A    between atoms: O_31  and  C_32
REMARK                            x       y       z     vdW  Elec       q    Type
REMARK                         _______ _______ _______ _____ _____    ______ ____
ROOT
ATOM      1  C   UNL     1      -1.015   0.546   2.646  0.00  0.00    +0.044 C 
ATOM      2  C   UNL     1      -1.450   1.989   2.662  0.00  0.00    -0.040 A 
ATOM      3  C   UNL     1      -1.032   2.821   3.681  0.00  0.00    +0.049 A 
ATOM      4  C   UNL     1      -1.432   4.149   3.698  0.00  0.00    +0.125 A 
ATOM      5  C   UNL     1      -2.248   4.636   2.690  0.00  0.00    +0.091 A 
ATOM      6  C   UNL     1      -2.666   3.798   1.663  0.00  0.00    +0.131 A 
ATOM      7  C   UNL     1      -2.268   2.472   1.653  0.00  0.00    +0.005 A 
ATOM      8  C   UNL     1      -2.706   1.528   0.562  0.00  0.00    +0.058 C 
ATOM      9  C   UNL     1      -3.204   2.329  -0.643  0.00  0.00    +0.081 C 
ATOM     10  C   UNL     1      -4.176   3.402  -0.142  0.00  0.00    +0.182 C 
ATOM     11  O   UNL     1      -3.461   4.314   0.690  0.00  0.00    -0.468 OA
ATOM     12  C   UNL     1      -5.299   2.741   0.661  0.00  0.00    +0.094 C 
ATOM     13  C   UNL     1      -6.319   3.816   1.052  0.00  0.00    +0.036 C 
ATOM     14  N   UNL     1      -6.779   4.503  -0.156  0.00  0.00    -0.294 N 
ATOM     15  C   UNL     1      -5.992   4.623  -1.235  0.00  0.00    +0.303 C 
ATOM     16  O   UNL     1      -6.419   5.215  -2.207  0.00  0.00    -0.253 OA
ATOM     17  N   UNL     1      -4.751   4.115  -1.283  0.00  0.00    -0.262 N 
ATOM     18  C   UNL     1      -7.511   3.159   1.752  0.00  0.00    +0.031 C 
ATOM     19  C   UNL     1      -5.663   4.824   1.997  0.00  0.00    +0.031 C 
ATOM     20  H   UNL     1      -7.673   4.880  -0.176  0.00  0.00    +0.151 HD
ATOM     21  H   UNL     1      -4.224   4.222  -2.091  0.00  0.00    +0.154 HD
ENDROOT
BRANCH   8  22
ATOM     22  C   UNL     1      -1.541   0.668   0.146  0.00  0.00    -0.040 A 
ATOM     23  C   UNL     1      -0.391   1.254  -0.350  0.00  0.00    +0.004 A 
ATOM     24  C   UNL     1       0.675   0.464  -0.739  0.00  0.00    +0.000 A 
ATOM     25  C   UNL     1       0.592  -0.911  -0.629  0.00  0.00    +0.000 A 
ATOM     26  C   UNL     1      -0.557  -1.497  -0.133  0.00  0.00    +0.000 A 
ATOM     27  C   UNL     1      -1.624  -0.708   0.255  0.00  0.00    +0.004 A 
ENDBRANCH   8  22
BRANCH   4  28
ATOM     28  O   UNL     1      -1.025   4.971   4.701  0.00  0.00    -0.481 OA
BRANCH  28  29
ATOM     29  C   UNL     1      -1.476   6.326   4.654  0.00  0.00    +0.349 C 
BRANCH  29  30
ATOM     30  C   UNL     1      -0.928   7.079   5.838  0.00  0.00    +0.345 C 
ATOM     31  O   UNL     1      -0.223   6.514   6.640  0.00  0.00    -0.247 OA
BRANCH  30  32
ATOM     32  O   UNL     1      -1.222   8.379   6.002  0.00  0.00    -0.466 OA
ATOM     33  C   UNL     1      -0.660   9.041   7.165  0.00  0.00    +0.280 C 
ENDBRANCH  30  32
ENDBRANCH  29  30
ENDBRANCH  28  29
ENDBRANCH   4  28
TORSDOF 5
