REMARK  Name = ZINC24174883
REMARK  8 active torsions:
REMARK  status: ('A' for Active; 'I' for Inactive)
REMARK    1  A    between atoms: C_4  and  C_7
REMARK    2  A    between atoms: C_10  and  C_16
REMARK    3  A    between atoms: C_16  and  O_18
REMARK    4  A    between atoms: O_18  and  C_19
REMARK    5  A    between atoms: C_19  and  C_20
REMARK    6  A    between atoms: N_22  and  C_23
REMARK    7  A    between atoms: C_23  and  C_24
REMARK    8  A    between atoms: N_26  and  C_27
REMARK                            x       y       z     vdW  Elec       q    Type
REMARK                         _______ _______ _______ _____ _____    ______ ____
ROOT
ATOM      1  O   UNL     1       6.665   1.505  -0.721  0.00  0.00    -0.452 OA
ENDROOT
BRANCH   1   2
ATOM      2  C   UNL     1       7.806   0.790  -0.658  0.00  0.00    +0.340 C 
ATOM      3  O   UNL     1       7.768  -0.423  -0.724  0.00  0.00    -0.245 OA
BRANCH   2   7
ATOM      4  C   UNL     1      12.839   1.045  -0.210  0.00  0.00    +0.175 A 
ATOM      5  C   UNL     1      11.489   1.389  -0.309  0.00  0.00    +0.050 A 
ATOM      6  C   UNL     1      10.267   0.732  -0.448  0.00  0.00    +0.028 A 
ATOM      7  C   UNL     1       9.100   1.479  -0.511  0.00  0.00    +0.060 A 
ATOM      8  C   UNL     1       9.132   2.888  -0.442  0.00  0.00    +0.017 A 
ATOM      9  C   UNL     1      10.292   3.569  -0.302  0.00  0.00    +0.032 A 
ATOM     10  C   UNL     1      11.515   2.865  -0.232  0.00  0.00    +0.114 A 
ATOM     11  N   UNL     1      12.783   3.178  -0.106  0.00  0.00    -0.078 NA
ATOM     12  O   UNL     1      13.503   2.206  -0.093  0.00  0.00    -0.353 OA
BRANCH   4  16
ATOM     13  C   UNL     1      14.499  -2.860  -0.263  0.00  0.00    +0.000 A 
ATOM     14  C   UNL     1      15.069  -1.859  -1.030  0.00  0.00    +0.001 A 
ATOM     15  C   UNL     1      14.536  -0.588  -1.018  0.00  0.00    +0.011 A 
ATOM     16  C   UNL     1      13.415  -0.311  -0.229  0.00  0.00    +0.021 A 
ATOM     17  C   UNL     1      12.848  -1.327   0.547  0.00  0.00    +0.011 A 
ATOM     18  C   UNL     1      13.390  -2.594   0.521  0.00  0.00    +0.001 A 
ENDBRANCH   4  16
ENDBRANCH   2   7
ENDBRANCH   1   2
BRANCH   1  19
ATOM     19  C   UNL     1       5.428   0.760  -0.866  0.00  0.00    +0.328 C 
BRANCH  19  20
ATOM     20  C   UNL     1       4.267   1.720  -0.917  0.00  0.00    +0.251 C 
ATOM     21  O   UNL     1       4.463   2.914  -0.839  0.00  0.00    -0.272 OA
ATOM     22  N   UNL     1       3.010   1.251  -1.050  0.00  0.00    -0.304 N 
ATOM     23  H   UNL     1       2.832   0.168  -1.121  0.00  0.00    +0.149 HD
BRANCH  22  24
ATOM     24  C   UNL     1       1.882   2.184  -1.100  0.00  0.00    +0.200 C 
BRANCH  24  25
ATOM     25  C   UNL     1       0.597   1.411  -1.250  0.00  0.00    +0.234 C 
ATOM     26  O   UNL     1       0.622   0.199  -1.310  0.00  0.00    -0.274 OA
ATOM     27  N   UNL     1      -0.579   2.065  -1.325  0.00  0.00    -0.284 N 
ATOM     28  H   UNL     1      -0.610   3.156  -1.191  0.00  0.00    +0.155 HD
BRANCH  27  29
ATOM     29  C   UNL     1      -1.760   1.356  -1.571  0.00  0.00    +0.036 A 
ATOM     30  C   UNL     1      -2.768   1.928  -2.337  0.00  0.00    +0.026 A 
ATOM     31  C   UNL     1      -3.931   1.226  -2.585  0.00  0.00    +0.043 A 
ATOM     32  C   UNL     1      -4.099  -0.045  -2.062  0.00  0.00    +0.159 A 
ATOM     33  C   UNL     1      -3.097  -0.617  -1.292  0.00  0.00    +0.160 A 
ATOM     34  C   UNL     1      -1.929   0.082  -1.046  0.00  0.00    +0.064 A 
ATOM     35  F   UNL     1      -3.263  -1.857  -0.781  0.00  0.00    -0.202 F 
ATOM     36  F   UNL     1      -5.239  -0.728  -2.301  0.00  0.00    -0.202 F 
ENDBRANCH  27  29
ENDBRANCH  24  25
ENDBRANCH  22  24
ENDBRANCH  19  20
ENDBRANCH   1  19
TORSDOF 8
