REMARK  Name = ZINC37298679
REMARK  6 active torsions:
REMARK  status: ('A' for Active; 'I' for Inactive)
REMARK    1  A    between atoms: C_1  and  C_2
REMARK    2  A    between atoms: C_5  and  N_11
REMARK    3  A    between atoms: C_7  and  N_8
REMARK    4  A    between atoms: N_11  and  C_12
REMARK    5  A    between atoms: C_12  and  C_14
REMARK    6  A    between atoms: C_12  and  C_15
REMARK                            x       y       z     vdW  Elec       q    Type
REMARK                         _______ _______ _______ _____ _____    ______ ____
ROOT
ATOM      1  N   UNL     1       0.398  -3.793  -0.373  0.00  0.00    -0.337 N 
ATOM      2  H   UNL     1       0.519  -4.304   0.443  0.00  0.00    +0.147 HD
ENDROOT
BRANCH   1   7
ATOM      3  C   UNL     1      -0.478   1.803  -0.109  0.00  0.00    +0.046 C 
ATOM      4  C   UNL     1      -0.246   0.316  -0.179  0.00  0.00    -0.020 A 
ATOM      5  C   UNL     1      -0.205  -0.319  -1.407  0.00  0.00    +0.007 A 
ATOM      6  C   UNL     1       0.009  -1.681  -1.475  0.00  0.00    +0.023 A 
ATOM      7  C   UNL     1       0.182  -2.415  -0.308  0.00  0.00    +0.030 A 
ATOM      8  C   UNL     1       0.141  -1.774   0.923  0.00  0.00    +0.056 A 
ATOM      9  C   UNL     1      -0.068  -0.410   0.984  0.00  0.00    +0.131 A 
BRANCH   9  10
ATOM     10  N   UNL     1      -0.107   0.275   2.296  0.00  0.00    +0.057 N 
ATOM     11  O   UNL     1       0.380   1.375   2.418  0.00  0.00    -0.126 OA
ATOM     12  O   UNL     1      -0.625  -0.266   3.245  0.00  0.00    -0.126 OA
ENDBRANCH   9  10
ENDBRANCH   1   7
BRANCH   1  13
ATOM     13  C   UNL     1       0.441  -4.467  -1.673  0.00  0.00    +0.099 C 
ATOM     14  C   UNL     1       1.853  -4.366  -2.253  0.00  0.00    +0.033 C 
BRANCH  13  15
ATOM     15  C   UNL     1       0.073  -5.918  -1.499  0.00  0.00    -0.009 A 
ATOM     16  C   UNL     1       0.344  -6.561  -0.306  0.00  0.00    +0.010 A 
ATOM     17  C   UNL     1       0.007  -7.892  -0.145  0.00  0.00    +0.039 A 
ATOM     18  C   UNL     1      -0.604  -8.581  -1.180  0.00  0.00    +0.125 A 
ATOM     19  C   UNL     1      -0.876  -7.937  -2.374  0.00  0.00    +0.058 A 
ATOM     20  C   UNL     1      -0.542  -6.604  -2.531  0.00  0.00    +0.049 A 
ATOM     21 CL   UNL     1      -0.889  -5.793  -4.027  0.00  0.00    -0.083 Cl
ATOM     22  F   UNL     1      -0.933  -9.882  -1.023  0.00  0.00    -0.205 F 
ENDBRANCH  13  15
ENDBRANCH   1  13
TORSDOF 4
