REMARK  Name = ZINC03672600
REMARK  10 active torsions:
REMARK  status: ('A' for Active; 'I' for Inactive)
REMARK    1  A    between atoms: C_1  and  C_2
REMARK    2  A    between atoms: C_2  and  O_3
REMARK    3  A    between atoms: O_3  and  C_4
REMARK    4  A    between atoms: C_6  and  C_18
REMARK    5  A    between atoms: C_9  and  O_10
REMARK    6  A    between atoms: O_10  and  C_11
REMARK    7  A    between atoms: C_11  and  C_13
REMARK    8  A    between atoms: C_20  and  C_37
REMARK    9  A    between atoms: C_21  and  N_36
REMARK   10  A    between atoms: C_28  and  C_31
REMARK                            x       y       z     vdW  Elec       q    Type
REMARK                         _______ _______ _______ _____ _____    ______ ____
ROOT
ATOM      1  C   UNL     1       0.675  -4.925  -0.025  0.00  0.00    +0.101 C 
ATOM      2  C   UNL     1       0.653  -5.816   1.185  0.00  0.00    +0.098 C 
ATOM      3  C   UNL     1       0.264  -7.109   1.077  0.00  0.00    +0.198 C 
ATOM      4  O   UNL     1      -0.115  -7.629  -0.101  0.00  0.00    -0.445 OA
ATOM      5  C   UNL     1       0.283  -7.048  -1.248  0.00  0.00    +0.115 C 
ATOM      6  C   UNL     1       0.665  -5.761  -1.282  0.00  0.00    +0.046 C 
ATOM      7  C   UNL     1       1.064  -5.152  -2.487  0.00  0.00    +0.164 C 
ATOM      8  O   UNL     1       1.416  -3.989  -2.480  0.00  0.00    -0.292 OA
ATOM      9  C   UNL     1       1.063  -5.914  -3.784  0.00  0.00    +0.091 C 
ATOM     10  C   UNL     1      -0.003  -7.013  -3.713  0.00  0.00    +0.070 C 
ATOM     11  C   UNL     1       0.293  -7.890  -2.503  0.00  0.00    +0.086 C 
ENDROOT
BRANCH   1  14
ATOM     12  C   UNL     1      -1.497  -1.834   0.037  0.00  0.00    +0.163 A 
ATOM     13  C   UNL     1      -0.382  -2.658   0.024  0.00  0.00    +0.054 A 
ATOM     14  C   UNL     1      -0.538  -4.031  -0.010  0.00  0.00    -0.031 A 
ATOM     15  C   UNL     1      -1.804  -4.586  -0.029  0.00  0.00    +0.008 A 
ATOM     16  C   UNL     1      -2.920  -3.771  -0.015  0.00  0.00    +0.050 A 
ATOM     17  C   UNL     1      -2.771  -2.393   0.023  0.00  0.00    +0.173 A 
BRANCH  12  18
ATOM     18  O   UNL     1      -1.345  -0.483   0.070  0.00  0.00    -0.489 OA
BRANCH  18  20
ATOM     19  C   UNL     1      -0.038   1.549   0.126  0.00  0.00    +0.048 C 
ATOM     20  C   UNL     1      -0.008   0.019   0.089  0.00  0.00    +0.226 C 
ENDBRANCH  18  20
ENDBRANCH  12  18
BRANCH  17  21
ATOM     21  O   UNL     1      -3.868  -1.589   0.042  0.00  0.00    -0.416 OA
BRANCH  21  22
ATOM     22  C   UNL     1      -4.249  -1.046  -1.133  0.00  0.00    +0.380 C 
ATOM     23  O   UNL     1      -3.680  -1.361  -2.161  0.00  0.00    -0.241 OA
BRANCH  22  24
ATOM     24  C   UNL     1      -5.347  -0.078  -1.170  0.00  0.00    +0.212 A 
ATOM     25  C   UNL     1      -5.832   0.545  -2.285  0.00  0.00    +0.056 A 
ATOM     26  C   UNL     1      -6.874   1.382  -1.860  0.00  0.00    +0.042 A 
ATOM     27  C   UNL     1      -6.980   1.236  -0.520  0.00  0.00    +0.196 A 
ATOM     28  O   UNL     1      -6.062   0.351  -0.109  0.00  0.00    -0.456 OA
ENDBRANCH  22  24
ENDBRANCH  21  22
ENDBRANCH  17  21
ENDBRANCH   1  14
BRANCH  10  29
ATOM     29  C   UNL     1       0.045  -7.847  -4.967  0.00  0.00    +0.109 A 
ATOM     30  C   UNL     1      -0.963  -8.011  -5.842  0.00  0.00    +0.045 A 
ATOM     31  C   UNL     1      -0.486  -8.866  -6.862  0.00  0.00    +0.041 A 
ATOM     32  C   UNL     1       0.786  -9.173  -6.549  0.00  0.00    +0.195 A 
ATOM     33  O   UNL     1       1.104  -8.549  -5.403  0.00  0.00    -0.468 OA
ENDBRANCH  10  29
BRANCH   3  34
ATOM     34  N   UNL     1       0.256  -7.905   2.196  0.00  0.00    -0.328 N 
ATOM     35  H   UNL     1       0.528  -7.539   3.052  0.00  0.00    +0.145 HD
ATOM     36  H   UNL     1      -0.021  -8.832   2.130  0.00  0.00    +0.145 HD
ENDBRANCH   3  34
BRANCH   2  37
ATOM     37  C   UNL     1       1.047  -5.295   2.459  0.00  0.00    +0.101 C 
ATOM     38  N   UNL     1       1.359  -4.882   3.471  0.00  0.00    -0.191 NA
ENDBRANCH   2  37
TORSDOF 9
