REMARK  Name = ZINC20357239
REMARK  16 active torsions:
REMARK  status: ('A' for Active; 'I' for Inactive)
REMARK    1  A    between atoms: C_1  and  C_2
REMARK    2  A    between atoms: C_5  and  C_35
REMARK    3  A    between atoms: C_6  and  N_8
REMARK    4  A    between atoms: N_8  and  C_9
REMARK    5  A    between atoms: C_9  and  N_11
REMARK    6  A    between atoms: N_11  and  C_12
REMARK    7  A    between atoms: C_12  and  C_13
REMARK    8  A    between atoms: C_13  and  C_34
REMARK    9  A    between atoms: C_15  and  N_22
REMARK   10  A    between atoms: C_18  and  C_20
REMARK   11  A    between atoms: C_18  and  C_21
REMARK   12  A    between atoms: N_22  and  C_23
REMARK   13  A    between atoms: C_23  and  N_25
REMARK   14  A    between atoms: N_25  and  C_26
REMARK   15  A    between atoms: C_28  and  C_33
REMARK   16  A    between atoms: C_31  and  C_32
REMARK                            x       y       z     vdW  Elec       q    Type
REMARK                         _______ _______ _______ _____ _____    ______ ____
ROOT
ATOM      1  C   UNL     1       8.532   2.452   1.084  0.00  0.00    -0.014 C 
ATOM      2  C   UNL     1       8.461   3.498   2.183  0.00  0.00    +0.030 C 
ATOM      3  C   UNL     1       9.691   4.383   2.271  0.00  0.00    +0.073 C 
ATOM      4  C   UNL     1      10.977   3.581   2.322  0.00  0.00    +0.028 C 
ATOM      5  C   UNL     1      11.096   2.536   1.226  0.00  0.00    -0.033 C 
ATOM      6  C   UNL     1       9.845   1.694   1.066  0.00  0.00    +0.014 C 
ATOM      7  C   UNL     1      12.248   1.580   1.626  0.00  0.00    +0.011 C 
ATOM      8  C   UNL     1      11.502   3.183  -0.101  0.00  0.00    +0.011 C 
ATOM      9  C   UNL     1       8.235   3.077  -0.282  0.00  0.00    +0.013 C 
ENDROOT
BRANCH   3  10
ATOM     10  N   UNL     1       9.716   5.387   1.211  0.00  0.00    -0.323 N 
ATOM     11  H   UNL     1      10.399   5.268   0.357  0.00  0.00    +0.148 HD
BRANCH  10  12
ATOM     12  C   UNL     1       8.903   6.460   1.279  0.00  0.00    +0.135 C 
ATOM     13  S   UNL     1       7.841   6.645   2.608  0.00  0.00    -0.019 S 
BRANCH  12  14
ATOM     14  N   UNL     1       8.927   7.386   0.300  0.00  0.00    -0.297 N 
ATOM     15  H   UNL     1       9.556   7.232  -0.589  0.00  0.00    +0.154 HD
BRANCH  14  16
ATOM     16  C   UNL     1       8.152   8.545   0.416  0.00  0.00    +0.036 A 
ATOM     17  C   UNL     1       6.877   8.478   0.962  0.00  0.00    +0.027 A 
ATOM     18  C   UNL     1       6.116   9.624   1.078  0.00  0.00    -0.049 A 
ATOM     19  C   UNL     1       6.618  10.837   0.643  0.00  0.00    +0.004 A 
ATOM     20  C   UNL     1       7.886  10.906   0.094  0.00  0.00    +0.005 A 
ATOM     21  C   UNL     1       8.654   9.764  -0.021  0.00  0.00    -0.029 A 
ATOM     22  C   UNL     1      10.035   9.841  -0.619  0.00  0.00    +0.045 C 
ATOM     23  C   UNL     1       4.734   9.553   1.676  0.00  0.00    +0.044 C 
ENDBRANCH  14  16
ENDBRANCH  12  14
ENDBRANCH  10  12
ENDBRANCH   3  10
BRANCH   1  24
ATOM     24  C   UNL     1       7.407   1.423   1.357  0.00  0.00    +0.110 C 
BRANCH  24  25
ATOM     25  N   UNL     1       6.113   2.109   1.384  0.00  0.00    -0.326 N 
ATOM     26  H   UNL     1       6.064   3.196   1.222  0.00  0.00    +0.148 HD
BRANCH  25  27
ATOM     27  C   UNL     1       4.984   1.409   1.607  0.00  0.00    +0.135 C 
ATOM     28  S   UNL     1       5.061  -0.283   1.858  0.00  0.00    -0.019 S 
BRANCH  27  29
ATOM     29  N   UNL     1       3.793   2.040   1.631  0.00  0.00    -0.297 N 
ATOM     30  H   UNL     1       3.736   3.116   1.410  0.00  0.00    +0.154 HD
BRANCH  29  36
ATOM     31  C   UNL     1       1.516  -1.385   4.324  0.00  0.00    +0.044 C 
ATOM     32  C   UNL     1       1.497  -0.339   3.239  0.00  0.00    -0.049 A 
ATOM     33  C   UNL     1       0.328  -0.083   2.547  0.00  0.00    +0.004 A 
ATOM     34  C   UNL     1       0.306   0.875   1.550  0.00  0.00    +0.005 A 
ATOM     35  C   UNL     1       1.454   1.581   1.244  0.00  0.00    -0.029 A 
ATOM     36  C   UNL     1       2.629   1.327   1.938  0.00  0.00    +0.036 A 
ATOM     37  C   UNL     1       2.647   0.363   2.938  0.00  0.00    +0.027 A 
ATOM     38  C   UNL     1       1.430   2.625   0.158  0.00  0.00    +0.045 C 
ENDBRANCH  29  36
ENDBRANCH  27  29
ENDBRANCH  25  27
ENDBRANCH  24  25
ENDBRANCH   1  24
TORSDOF 9
