REMARK  Name = ZINC13476879
REMARK  5 active torsions:
REMARK  status: ('A' for Active; 'I' for Inactive)
REMARK    1  A    between atoms: N_9  and  N_10
REMARK    2  A    between atoms: C_11  and  C_13
REMARK    3  A    between atoms: C_13  and  O_14
REMARK    4  A    between atoms: O_14  and  C_15
REMARK    5  A    between atoms: C_20  and  C_21
REMARK                            x       y       z     vdW  Elec       q    Type
REMARK                         _______ _______ _______ _____ _____    ______ ____
ROOT
ATOM      1  N   UNL     1      -1.196  -0.722   0.115  0.00  0.00    -0.203 N 
ATOM      2  C   UNL     1      -1.170  -2.066   0.209  0.00  0.00    +0.270 C 
ATOM      3  O   UNL     1      -0.110  -2.654   0.196  0.00  0.00    -0.270 OA
ATOM      4  H   UNL     1      -2.044  -0.251   0.125  0.00  0.00    +0.177 HD
ENDROOT
BRANCH   1  13
ATOM      5  C   UNL     1      -2.903   4.303   0.725  0.00  0.00    +0.017 A 
ATOM      6  C   UNL     1      -1.576   4.557   0.438  0.00  0.00    +0.025 A 
ATOM      7  C   UNL     1      -0.695   3.504   0.224  0.00  0.00    +0.043 A 
ATOM      8  C   UNL     1      -1.173   2.189   0.297  0.00  0.00    +0.029 A 
ATOM      9  C   UNL     1      -2.509   1.943   0.592  0.00  0.00    +0.027 A 
ATOM     10  C   UNL     1      -3.371   3.002   0.802  0.00  0.00    +0.019 A 
ATOM     11 BR   UNL     1      -5.191   2.675   1.196  0.00  0.00    -0.050 Br
ATOM     12  C   UNL     1      -0.013   1.306   0.031  0.00  0.00    +0.153 C 
ATOM     13  N   UNL     1       0.002  -0.004   0.002  0.00  0.00    -0.174 NA
ATOM     14  C   UNL     1       1.120   2.225  -0.200  0.00  0.00    +0.269 C 
ATOM     15  O   UNL     1       2.264   1.900  -0.457  0.00  0.00    -0.268 OA
ATOM     16  N   UNL     1       0.664   3.483  -0.075  0.00  0.00    -0.280 N 
ATOM     17  H   UNL     1       1.212   4.276  -0.180  0.00  0.00    +0.155 HD
ENDBRANCH   1  13
BRANCH   2  18
ATOM     18  C   UNL     1      -2.459  -2.837   0.330  0.00  0.00    +0.326 C 
BRANCH  18  19
ATOM     19  O   UNL     1      -2.171  -4.235   0.415  0.00  0.00    -0.481 OA
BRANCH  19  20
ATOM     20  C   UNL     1      -3.230  -5.076   0.529  0.00  0.00    +0.139 A 
ATOM     21  C   UNL     1      -4.521  -4.570   0.560  0.00  0.00    +0.048 A 
ATOM     22  C   UNL     1      -5.598  -5.427   0.676  0.00  0.00    +0.019 A 
ATOM     23  C   UNL     1      -5.398  -6.796   0.762  0.00  0.00    +0.019 A 
ATOM     24  C   UNL     1      -4.121  -7.316   0.733  0.00  0.00    +0.037 A 
ATOM     25  C   UNL     1      -3.024  -6.460   0.611  0.00  0.00    +0.094 A 
ATOM     26 BR   UNL     1      -6.884  -7.955   0.921  0.00  0.00    -0.050 Br
BRANCH  25  27
ATOM     27  C   UNL     1      -1.695  -6.993   0.574  0.00  0.00    +0.103 C 
ATOM     28  N   UNL     1      -0.641  -7.416   0.545  0.00  0.00    -0.191 NA
ENDBRANCH  25  27
ENDBRANCH  19  20
ENDBRANCH  18  19
ENDBRANCH   2  18
TORSDOF 5
