REMARK  Name = ZINC07041191
REMARK  4 active torsions:
REMARK  status: ('A' for Active; 'I' for Inactive)
REMARK    1  A    between atoms: C_1  and  S_2
REMARK    2  A    between atoms: S_2  and  C_3
REMARK    3  A    between atoms: C_16  and  C_19
REMARK    4  A    between atoms: C_20  and  C_21
REMARK                            x       y       z     vdW  Elec       q    Type
REMARK                         _______ _______ _______ _____ _____    ______ ____
ROOT
ATOM      1  C   UNL     1      -1.122   3.353   0.022  0.00  0.00    +0.212 A 
ATOM      2  N   UNL     1      -1.154   2.024   0.018  0.00  0.00    -0.184 NA
ATOM      3  C   UNL     1      -0.016   1.350   0.009  0.00  0.00    +0.248 A 
ATOM      4  C   UNL     1       1.200   2.070   0.002  0.00  0.00    +0.156 A 
ATOM      5  N   UNL     1       1.162   3.393  -0.001  0.00  0.00    -0.141 NA
ATOM      6  N   UNL     1       0.031   4.011   0.009  0.00  0.00    -0.122 NA
ATOM      7  C   UNL     1       2.483   1.336   0.001  0.00  0.00    +0.030 A 
ATOM      8  C   UNL     1       3.513   1.674  -0.869  0.00  0.00    +0.032 A 
ATOM      9  C   UNL     1       4.709   0.984  -0.816  0.00  0.00    +0.042 A 
ATOM     10  C   UNL     1       4.887  -0.042   0.098  0.00  0.00    +0.022 A 
ATOM     11  C   UNL     1       3.867  -0.392   0.964  0.00  0.00    +0.025 A 
ATOM     12  C   UNL     1       2.663   0.286   0.920  0.00  0.00    +0.040 A 
ATOM     13  N   UNL     1       1.605  -0.051   1.771  0.00  0.00    -0.306 N 
ATOM     14  C   UNL     1       0.408  -0.660   1.198  0.00  0.00    +0.287 C 
ATOM     15  O   UNL     1       0.002  -0.004   0.002  0.00  0.00    -0.449 OA
ATOM     16 CL   UNL     1       5.997   1.405  -1.901  0.00  0.00    -0.084 Cl
ATOM     17  H   UNL     1       1.665   0.116   2.724  0.00  0.00    +0.150 HD
ENDROOT
BRANCH   1  19
ATOM     18  C   UNL     1      -1.990   5.948   0.032  0.00  0.00    +0.093 C 
ATOM     19  S   UNL     1      -2.634   4.257   0.040  0.00  0.00    -0.088 S 
ENDBRANCH   1  19
BRANCH  14  20
ATOM     20  C   UNL     1       0.695  -2.108   0.890  0.00  0.00    +0.038 C 
ATOM     21  C   UNL     1       0.010  -3.064   1.502  0.00  0.00    +0.009 C 
BRANCH  21  22
ATOM     22  C   UNL     1       0.291  -4.483   1.200  0.00  0.00    -0.025 A 
ATOM     23  C   UNL     1       1.274  -4.820   0.268  0.00  0.00    +0.008 A 
ATOM     24  C   UNL     1       1.535  -6.147  -0.005  0.00  0.00    +0.001 A 
ATOM     25  C   UNL     1       0.818  -7.142   0.635  0.00  0.00    +0.000 A 
ATOM     26  C   UNL     1      -0.161  -6.815   1.556  0.00  0.00    +0.001 A 
ATOM     27  C   UNL     1      -0.429  -5.492   1.842  0.00  0.00    +0.008 A 
ENDBRANCH  21  22
ENDBRANCH  14  20
TORSDOF 3
