REMARK  Name = ZINC58790202
REMARK  17 active torsions:
REMARK  status: ('A' for Active; 'I' for Inactive)
REMARK    1  A    between atoms: C_1  and  C_2
REMARK    2  A    between atoms: C_2  and  N_3
REMARK    3  A    between atoms: N_3  and  C_4
REMARK    4  A    between atoms: N_3  and  C_12
REMARK    5  A    between atoms: C_4  and  C_5
REMARK    6  A    between atoms: C_10  and  C_11
REMARK    7  A    between atoms: C_12  and  C_13
REMARK    8  A    between atoms: N_15  and  C_16
REMARK    9  A    between atoms: N_15  and  C_20
REMARK   10  A    between atoms: C_16  and  C_17
REMARK   11  A    between atoms: C_17  and  C_18
REMARK   12  A    between atoms: C_17  and  C_19
REMARK   13  A    between atoms: C_21  and  N_33
REMARK   14  A    between atoms: N_22  and  C_29
REMARK   15  A    between atoms: C_29  and  C_30
REMARK   16  A    between atoms: C_30  and  C_31
REMARK   17  A    between atoms: C_30  and  C_32
REMARK                            x       y       z     vdW  Elec       q    Type
REMARK                         _______ _______ _______ _____ _____    ______ ____
ROOT
ATOM      1  C   UNL     1       0.344  -1.235  -1.586  0.00  0.00    +0.203 C 
ATOM      2  O   UNL     1      -0.453  -0.324  -1.670  0.00  0.00    -0.277 OA
ATOM      3  N   UNL     1      -0.087  -2.514  -1.617  0.00  0.00    -0.266 N 
ENDROOT
BRANCH   3   4
ATOM      4  C   UNL     1      -1.450  -2.793  -1.857  0.00  0.00    +0.140 A 
ATOM      5  C   UNL     1      -2.210  -3.445  -0.907  0.00  0.00    +0.127 A 
ATOM      6  N   UNL     1      -3.535  -3.703  -1.169  0.00  0.00    -0.280 N 
ATOM      7  C   UNL     1      -4.084  -3.324  -2.337  0.00  0.00    +0.331 A 
ATOM      8  O   UNL     1      -5.258  -3.561  -2.550  0.00  0.00    -0.246 OA
ATOM      9  N   UNL     1      -3.359  -2.688  -3.275  0.00  0.00    -0.273 N 
ATOM     10  H   UNL     1      -3.779  -2.425  -4.109  0.00  0.00    +0.173 HD
ATOM     11  C   UNL     1      -2.058  -2.407  -3.066  0.00  0.00    +0.277 A 
ATOM     12  O   UNL     1      -1.411  -1.825  -3.920  0.00  0.00    -0.266 OA
BRANCH   5  13
ATOM     13  N   UNL     1      -1.649  -3.832   0.286  0.00  0.00    -0.343 N 
ATOM     14  H   UNL     1      -0.702  -3.692   0.446  0.00  0.00    +0.144 HD
ATOM     15  H   UNL     1      -2.200  -4.245   0.970  0.00  0.00    +0.144 HD
ENDBRANCH   5  13
BRANCH   6  16
ATOM     16  C   UNL     1      -4.354  -4.394  -0.170  0.00  0.00    +0.131 C 
BRANCH  16  17
ATOM     17  C   UNL     1      -5.001  -3.365   0.760  0.00  0.00    +0.003 C 
ATOM     18  C   UNL     1      -5.953  -4.077   1.723  0.00  0.00    +0.009 C 
ATOM     19  C   UNL     1      -3.913  -2.643   1.557  0.00  0.00    +0.009 C 
ENDBRANCH  16  17
ENDBRANCH   6  16
ENDBRANCH   3   4
BRANCH   1  20
ATOM     20  C   UNL     1       1.815  -0.940  -1.447  0.00  0.00    +0.020 C 
BRANCH  20  21
ATOM     21  N   UNL     1       2.011   0.508  -1.292  0.00  0.00    +0.388 N 
ATOM     22  H   UNL     1       1.574   0.991  -2.063  0.00  0.00    -0.081 HD
BRANCH  21  24
ATOM     23  C   UNL     1       1.489   2.476   0.068  0.00  0.00    -0.017 C 
ATOM     24  C   UNL     1       1.404   0.952  -0.030  0.00  0.00    -0.081 C 
ENDBRANCH  21  24
BRANCH  21  25
ATOM     25  C   UNL     1       3.449   0.809  -1.277  0.00  0.00    -0.042 C 
BRANCH  25  26
ATOM     26  C   UNL     1       4.049   0.461  -2.614  0.00  0.00    -0.061 A 
ATOM     27  C   UNL     1       4.746  -0.723  -2.772  0.00  0.00    +0.002 A 
ATOM     28  C   UNL     1       5.297  -1.042  -3.999  0.00  0.00    +0.000 A 
ATOM     29  C   UNL     1       5.150  -0.178  -5.069  0.00  0.00    +0.000 A 
ATOM     30  C   UNL     1       4.452   1.005  -4.911  0.00  0.00    +0.003 A 
ATOM     31  C   UNL     1       3.898   1.322  -3.685  0.00  0.00    -0.049 A 
ATOM     32  C   UNL     1       3.132   2.609  -3.514  0.00  0.00    +0.044 C 
ENDBRANCH  25  26
ENDBRANCH  21  25
ENDBRANCH  20  21
ENDBRANCH   1  20
BRANCH   3  33
ATOM     33  C   UNL     1       0.859  -3.611  -1.403  0.00  0.00    +0.117 C 
BRANCH  33  34
ATOM     34  C   UNL     1       1.549  -3.955  -2.724  0.00  0.00    +0.001 C 
ATOM     35  C   UNL     1       2.649  -4.988  -2.471  0.00  0.00    +0.009 C 
ATOM     36  C   UNL     1       0.522  -4.532  -3.701  0.00  0.00    +0.009 C 
ENDBRANCH  33  34
ENDBRANCH   3  33
TORSDOF 11
