REMARK  Name = ZINC13138141
REMARK  11 active torsions:
REMARK  status: ('A' for Active; 'I' for Inactive)
REMARK    1  A    between atoms: C_1  and  C_2
REMARK    2  A    between atoms: C_7  and  C_9
REMARK    3  A    between atoms: C_7  and  C_10
REMARK    4  A    between atoms: N_13  and  C_17
REMARK    5  A    between atoms: C_17  and  C_18
REMARK    6  A    between atoms: N_20  and  C_21
REMARK    7  A    between atoms: C_21  and  C_22
REMARK    8  A    between atoms: C_22  and  C_24
REMARK    9  A    between atoms: C_22  and  N_32
REMARK   10  A    between atoms: C_27  and  O_30
REMARK   11  A    between atoms: O_30  and  C_31
REMARK                            x       y       z     vdW  Elec       q    Type
REMARK                         _______ _______ _______ _____ _____    ______ ____
ROOT
ATOM      1  C   UNL     1      -1.649  -5.571  -2.715  0.00  0.00    +0.231 C 
ATOM      2  O   UNL     1      -1.463  -5.917  -1.568  0.00  0.00    -0.274 OA
ATOM      3  N   UNL     1      -1.397  -6.425  -3.727  0.00  0.00    -0.315 N 
ATOM      4  H   UNL     1      -1.545  -6.148  -4.644  0.00  0.00    +0.149 HD
ENDROOT
BRANCH   1   5
ATOM      5  C   UNL     1      -2.161  -4.184  -3.010  0.00  0.00    +0.213 C 
BRANCH   5  17
ATOM      6  C   UNL     1      -0.509   1.242   0.630  0.00  0.00    +0.007 C 
ATOM      7  C   UNL     1      -0.527  -0.287   0.540  0.00  0.00    -0.011 C 
ATOM      8  C   UNL     1      -1.963  -0.762   0.305  0.00  0.00    +0.038 C 
ATOM      9  C   UNL     1      -1.986  -2.278   0.165  0.00  0.00    +0.113 C 
ATOM     10  C   UNL     1      -1.332  -2.987   1.334  0.00  0.00    +0.041 C 
ATOM     11  C   UNL     1      -0.011  -2.401   1.801  0.00  0.00    -0.032 C 
ATOM     12  C   UNL     1      -0.031  -0.878   1.858  0.00  0.00    +0.009 C 
ATOM     13  C   UNL     1       0.265  -2.922   3.228  0.00  0.00    +0.011 C 
ATOM     14  C   UNL     1       1.139  -2.879   0.909  0.00  0.00    +0.011 C 
ATOM     15  C   UNL     1      -1.403  -2.705  -1.159  0.00  0.00    +0.247 C 
ATOM     16  O   UNL     1      -0.320  -2.425  -1.628  0.00  0.00    -0.273 OA
ATOM     17  N   UNL     1      -2.354  -3.458  -1.754  0.00  0.00    -0.215 N 
ATOM     18  C   UNL     1      -3.492  -3.454  -1.050  0.00  0.00    +0.310 C 
ATOM     19  O   UNL     1      -4.497  -4.048  -1.389  0.00  0.00    -0.252 OA
ATOM     20  N   UNL     1      -3.395  -2.724   0.073  0.00  0.00    -0.285 N 
ATOM     21  H   UNL     1      -4.098  -2.521   0.707  0.00  0.00    +0.151 HD
ENDBRANCH   5  17
ENDBRANCH   1   5
BRANCH   3  22
ATOM     22  C   UNL     1      -0.899  -7.773  -3.440  0.00  0.00    +0.093 C 
BRANCH  22  23
ATOM     23  C   UNL     1      -0.821  -8.576  -4.740  0.00  0.00    -0.020 C 
BRANCH  23  24
ATOM     24  N   UNL     1      -0.237  -9.895  -4.467  0.00  0.00    +0.385 N 
ATOM     25  C   UNL     1       1.131  -9.727  -3.962  0.00  0.00    -0.078 C 
ATOM     26  C   UNL     1       1.717 -11.094  -3.599  0.00  0.00    -0.019 C 
ATOM     27  C   UNL     1       1.736 -11.982  -4.847  0.00  0.00    -0.004 C 
ATOM     28  C   UNL     1       0.315 -12.089  -5.407  0.00  0.00    -0.019 C 
ATOM     29  C   UNL     1      -0.218 -10.686  -5.703  0.00  0.00    -0.078 C 
ATOM     30  H   UNL     1      -0.793 -10.371  -3.772  0.00  0.00    -0.081 HD
ENDBRANCH  23  24
BRANCH  23  31
ATOM     31  C   UNL     1      -2.207  -8.748  -5.307  0.00  0.00    -0.059 A 
ATOM     32  C   UNL     1      -3.048  -9.717  -4.792  0.00  0.00    +0.005 A 
ATOM     33  C   UNL     1      -4.318  -9.877  -5.310  0.00  0.00    +0.046 A 
ATOM     34  C   UNL     1      -4.750  -9.064  -6.348  0.00  0.00    +0.120 A 
ATOM     35  C   UNL     1      -3.905  -8.092  -6.863  0.00  0.00    +0.046 A 
ATOM     36  C   UNL     1      -2.637  -7.933  -6.337  0.00  0.00    +0.005 A 
BRANCH  34  37
ATOM     37  O   UNL     1      -6.000  -9.220  -6.860  0.00  0.00    -0.495 OA
ATOM     38  C   UNL     1      -6.377  -8.348  -7.927  0.00  0.00    +0.277 C 
ENDBRANCH  34  37
ENDBRANCH  23  31
ENDBRANCH  22  23
ENDBRANCH   3  22
TORSDOF 7
