REMARK  Name = ZINC17075463
REMARK  10 active torsions:
REMARK  status: ('A' for Active; 'I' for Inactive)
REMARK    1  A    between atoms: C_1  and  C_2
REMARK    2  A    between atoms: C_3  and  C_23
REMARK    3  A    between atoms: C_4  and  N_10
REMARK    4  A    between atoms: C_6  and  C_7
REMARK    5  A    between atoms: C_11  and  C_13
REMARK    6  A    between atoms: C_13  and  N_50
REMARK    7  A    between atoms: C_15  and  C_22
REMARK    8  A    between atoms: C_18  and  C_21
REMARK    9  A    between atoms: C_23  and  O_25
REMARK   10  A    between atoms: O_25  and  C_26
REMARK                            x       y       z     vdW  Elec       q    Type
REMARK                         _______ _______ _______ _____ _____    ______ ____
ROOT
ATOM      1  C   UNL     1       4.961   1.653  -0.035  0.00  0.00    +0.046 C 
ATOM      2  C   UNL     1       3.521   2.100  -0.019  0.00  0.00    -0.015 A 
ATOM      3  C   UNL     1       2.484   1.179  -0.010  0.00  0.00    +0.091 A 
ATOM      4  C   UNL     1       1.176   1.673  -0.000  0.00  0.00    +0.087 A 
ATOM      5  S   UNL     1       1.410   3.390   0.007  0.00  0.00    -0.068 S 
ATOM      6  C   UNL     1       3.192   3.428  -0.009  0.00  0.00    +0.079 A 
ENDROOT
BRANCH   6   7
ATOM      7  C   UNL     1       4.082   4.590  -0.010  0.00  0.00    +0.248 C 
ATOM      8  O   UNL     1       5.289   4.433  -0.022  0.00  0.00    -0.270 OA
ATOM      9  N   UNL     1       3.565   5.835   0.001  0.00  0.00    -0.325 N 
ATOM     10  H   UNL     1       2.603   5.960   0.010  0.00  0.00    +0.145 HD
ATOM     11  H   UNL     1       4.155   6.605   0.000  0.00  0.00    +0.145 HD
ENDBRANCH   6   7
BRANCH   4  12
ATOM     12  N   UNL     1      -0.011   0.966   0.007  0.00  0.00    -0.281 N 
ATOM     13  C   UNL     1      -1.187   1.624   0.017  0.00  0.00    +0.201 C 
ATOM     14  O   UNL     1      -1.204   2.836   0.023  0.00  0.00    -0.278 OA
ATOM     15  H   UNL     1       0.002  -0.004   0.002  0.00  0.00    +0.155 HD
BRANCH  13  16
ATOM     16  C   UNL     1      -2.482   0.853   0.018  0.00  0.00    +0.019 C 
BRANCH  16  24
ATOM     17  C   UNL     1      -3.651   2.554   1.284  0.00  0.00    -0.075 C 
ATOM     18  C   UNL     1      -4.746   3.619   1.201  0.00  0.00    -0.031 C 
ATOM     19  C   UNL     1      -6.095   2.939   0.953  0.00  0.00    +0.003 C 
ATOM     20  C   UNL     1      -6.013   2.114  -0.334  0.00  0.00    -0.031 C 
ATOM     21  C   UNL     1      -4.880   1.092  -0.207  0.00  0.00    -0.075 C 
ATOM     22  C   UNL     1      -7.338   1.383  -0.558  0.00  0.00    +0.005 C 
ATOM     23  C   UNL     1      -4.439   4.580   0.050  0.00  0.00    +0.005 C 
ATOM     24  N   UNL     1      -3.607   1.811   0.006  0.00  0.00    +0.386 N 
ATOM     25  H   UNL     1      -3.468   2.478  -0.762  0.00  0.00    -0.081 HD
ENDBRANCH  16  24
ENDBRANCH  13  16
ENDBRANCH   4  12
BRANCH   3  26
ATOM     26  C   UNL     1       2.751  -0.264  -0.013  0.00  0.00    +0.342 C 
ATOM     27  O   UNL     1       2.855  -0.861  -1.067  0.00  0.00    -0.245 OA
BRANCH  26  28
ATOM     28  O   UNL     1       2.881  -0.928   1.153  0.00  0.00    -0.464 OA
ATOM     29  C   UNL     1       3.144  -2.354   1.074  0.00  0.00    +0.280 C 
ENDBRANCH  26  28
ENDBRANCH   3  26
TORSDOF 6
