REMARK  Name = ZINC00718437
REMARK  5 active torsions:
REMARK  status: ('A' for Active; 'I' for Inactive)
REMARK    1  A    between atoms: C_6  and  C_7
REMARK    2  A    between atoms: C_8  and  C_13
REMARK    3  A    between atoms: C_16  and  C_27
REMARK    4  A    between atoms: C_22  and  N_26
REMARK    5  A    between atoms: C_23  and  C_24
REMARK                            x       y       z     vdW  Elec       q    Type
REMARK                         _______ _______ _______ _____ _____    ______ ____
ROOT
ATOM      1  C   UNL     1       1.494   4.377  -0.568  0.00  0.00    +0.105 C 
ATOM      2  C   UNL     1       2.264   4.114  -1.836  0.00  0.00    +0.054 A 
ATOM      3  C   UNL     1       1.802   4.055  -3.155  0.00  0.00    +0.100 A 
ATOM      4  N   UNL     1       2.835   3.798  -3.935  0.00  0.00    -0.171 NA
ATOM      5  N   UNL     1       3.980   3.688  -3.131  0.00  0.00    -0.246 N 
ATOM      6  H   UNL     1       4.907   3.497  -3.452  0.00  0.00    +0.192 HD
ATOM      7  C   UNL     1       3.609   3.885  -1.849  0.00  0.00    +0.223 A 
ATOM      8  O   UNL     1       4.362   3.878  -0.720  0.00  0.00    -0.423 OA
ATOM      9  C   UNL     1       3.806   4.373   0.404  0.00  0.00    +0.200 C 
ATOM     10  C   UNL     1       2.486   4.629   0.541  0.00  0.00    +0.098 C 
ENDROOT
BRANCH   3  11
ATOM     11  C   UNL     1       0.399   4.247  -3.598  0.00  0.00    +0.003 A 
ATOM     12  C   UNL     1      -0.150   3.407  -4.564  0.00  0.00    +0.011 A 
ATOM     13  C   UNL     1      -1.457   3.586  -4.968  0.00  0.00    +0.020 A 
ATOM     14  C   UNL     1      -2.219   4.607  -4.425  0.00  0.00    +0.041 A 
ATOM     15  C   UNL     1      -1.675   5.448  -3.470  0.00  0.00    +0.020 A 
ATOM     16  C   UNL     1      -0.371   5.273  -3.054  0.00  0.00    +0.011 A 
ATOM     17 CL   UNL     1      -3.860   4.832  -4.943  0.00  0.00    -0.084 Cl
ENDBRANCH   3  11
BRANCH   1  19
ATOM     18  C   UNL     1      -0.738   3.185   0.022  0.00  0.00    +0.097 A 
ATOM     19  C   UNL     1       0.647   3.178  -0.229  0.00  0.00    +0.010 A 
ATOM     20  C   UNL     1       1.083   1.904  -0.112  0.00  0.00    +0.110 A 
ATOM     21  N   UNL     1       0.022   1.128   0.201  0.00  0.00    -0.284 N 
ATOM     22  H   UNL     1       0.043   0.140   0.353  0.00  0.00    +0.188 HD
ATOM     23  N   UNL     1      -1.111   1.948   0.274  0.00  0.00    -0.174 NA
BRANCH  18  29
ATOM     24  C   UNL     1      -1.194   5.576   0.563  0.00  0.00    +0.013 A 
ATOM     25  C   UNL     1      -2.018   6.682   0.535  0.00  0.00    +0.039 A 
ATOM     26  C   UNL     1      -3.275   6.599  -0.042  0.00  0.00    +0.123 A 
ATOM     27  C   UNL     1      -3.708   5.406  -0.599  0.00  0.00    +0.039 A 
ATOM     28  C   UNL     1      -2.888   4.296  -0.580  0.00  0.00    +0.013 A 
ATOM     29  C   UNL     1      -1.623   4.376  -0.001  0.00  0.00    +0.003 A 
ATOM     30  F   UNL     1      -4.081   7.683  -0.062  0.00  0.00    -0.205 F 
ENDBRANCH  18  29
ENDBRANCH   1  19
BRANCH   9  31
ATOM     31  N   UNL     1       4.628   4.632   1.472  0.00  0.00    -0.328 N 
ATOM     32  H   UNL     1       4.258   4.989   2.295  0.00  0.00    +0.145 HD
ATOM     33  H   UNL     1       5.580   4.458   1.404  0.00  0.00    +0.145 HD
ENDBRANCH   9  31
BRANCH  10  34
ATOM     34  C   UNL     1       2.011   5.160   1.783  0.00  0.00    +0.101 C 
ATOM     35  N   UNL     1       1.635   5.582   2.768  0.00  0.00    -0.191 NA
ENDBRANCH  10  34
TORSDOF 5
