REMARK  Name = ZINC12210450
REMARK  5 active torsions:
REMARK  status: ('A' for Active; 'I' for Inactive)
REMARK    1  A    between atoms: C_4  and  C_8
REMARK    2  A    between atoms: C_8  and  C_10
REMARK    3  A    between atoms: C_8  and  O_32
REMARK    4  A    between atoms: C_20  and  C_21
REMARK    5  A    between atoms: C_20  and  N_55
REMARK                            x       y       z     vdW  Elec       q    Type
REMARK                         _______ _______ _______ _____ _____    ______ ____
ROOT
ATOM      1  C   UNL     1      -0.919   2.924   3.330  0.00  0.00    -0.014 A 
ATOM      2  C   UNL     1      -2.148   2.479   3.781  0.00  0.00    +0.010 A 
ATOM      3  C   UNL     1      -2.872   1.564   3.041  0.00  0.00    +0.046 A 
ATOM      4  C   UNL     1      -2.360   1.091   1.840  0.00  0.00    +0.122 A 
ATOM      5  C   UNL     1      -1.119   1.524   1.406  0.00  0.00    -0.022 A 
ATOM      6  C   UNL     1      -0.403   2.444   2.138  0.00  0.00    +0.011 A 
ATOM      7  C   UNL     1      -0.558   0.969   0.110  0.00  0.00    -0.039 C 
ATOM      8  C   UNL     1      -2.557   0.628  -1.238  0.00  0.00    -0.036 C 
ATOM      9  C   UNL     1      -3.593   0.732  -0.140  0.00  0.00    +0.210 C 
ATOM     10  O   UNL     1      -3.078   0.211   1.092  0.00  0.00    -0.494 OA
ATOM     11  N   UNL     1      -1.382   1.493  -1.005  0.00  0.00    +0.388 N 
ATOM     12  H   UNL     1      -1.710   2.435  -0.759  0.00  0.00    -0.081 HD
ENDROOT
BRANCH   1  13
ATOM     13  C   UNL     1      -0.141   3.932   4.136  0.00  0.00    +0.179 C 
BRANCH  13  17
ATOM     14  C   UNL     1      -1.388   7.878   3.069  0.00  0.00    +0.004 A 
ATOM     15  C   UNL     1      -2.205   7.085   3.852  0.00  0.00    +0.039 A 
ATOM     16  C   UNL     1      -1.802   5.806   4.198  0.00  0.00    +0.131 A 
ATOM     17  C   UNL     1      -0.581   5.324   3.760  0.00  0.00    +0.039 A 
ATOM     18  C   UNL     1       0.238   6.121   2.981  0.00  0.00    +0.050 A 
ATOM     19  C   UNL     1      -0.169   7.396   2.631  0.00  0.00    +0.020 A 
ATOM     20 CL   UNL     1       1.773   5.519   2.437  0.00  0.00    -0.083 Cl
ATOM     21  F   UNL     1      -2.601   5.030   4.963  0.00  0.00    -0.205 F 
ENDBRANCH  13  17
BRANCH  13  22
ATOM     22  O   UNL     1      -0.382   3.716   5.528  0.00  0.00    -0.382 OA
ATOM     23  H   UNL     1      -1.318   3.704   5.768  0.00  0.00    +0.211 HD
ENDBRANCH  13  22
ENDBRANCH   1  13
BRANCH  11  24
ATOM     24  C   UNL     1      -0.572   1.577  -2.231  0.00  0.00    -0.023 C 
BRANCH  24  25
ATOM     25  C   UNL     1      -1.482   1.837  -3.405  0.00  0.00    +0.010 A 
ATOM     26  C   UNL     1      -1.794   3.046  -3.911  0.00  0.00    +0.021 A 
ATOM     27  C   UNL     1      -2.668   2.838  -4.997  0.00  0.00    +0.020 A 
ATOM     28  C   UNL     1      -2.859   1.509  -5.116  0.00  0.00    +0.094 A 
ATOM     29  N   UNL     1      -2.128   0.885  -4.143  0.00  0.00    -0.291 N 
ATOM     30  C   UNL     1      -2.057  -0.492  -3.937  0.00  0.00    +0.235 A 
ATOM     31  N   UNL     1      -1.305  -0.959  -2.954  0.00  0.00    -0.220 NA
ATOM     32  C   UNL     1      -1.219  -2.260  -2.728  0.00  0.00    +0.116 A 
ATOM     33  C   UNL     1      -1.920  -3.135  -3.542  0.00  0.00    +0.039 A 
ATOM     34  C   UNL     1      -2.694  -2.611  -4.565  0.00  0.00    +0.116 A 
ATOM     35  N   UNL     1      -2.739  -1.300  -4.733  0.00  0.00    -0.220 NA
ENDBRANCH  24  25
ENDBRANCH  11  24
TORSDOF 5
