REMARK  Name = ZINC52566150
REMARK  9 active torsions:
REMARK  status: ('A' for Active; 'I' for Inactive)
REMARK    1  A    between atoms: C_1  and  C_2
REMARK    2  A    between atoms: C_2  and  C_3
REMARK    3  A    between atoms: C_6  and  C_13
REMARK    4  A    between atoms: C_15  and  O_19
REMARK    5  A    between atoms: O_19  and  C_20
REMARK    6  A    between atoms: C_20  and  C_21
REMARK    7  A    between atoms: C_21  and  C_23
REMARK    8  A    between atoms: C_21  and  N_33
REMARK    9  A    between atoms: C_23  and  C_24
REMARK                            x       y       z     vdW  Elec       q    Type
REMARK                         _______ _______ _______ _____ _____    ______ ____
ROOT
ATOM      1  C   UNL     1      -2.813  -0.999  -4.876  0.00  0.00    +0.004 A 
ATOM      2  C   UNL     1      -3.826  -1.359  -5.767  0.00  0.00    +0.057 A 
ATOM      3  C   UNL     1      -3.574  -1.254  -7.128  0.00  0.00    +0.139 A 
ATOM      4  C   UNL     1      -2.334  -0.797  -7.553  0.00  0.00    +0.156 A 
ATOM      5  N   UNL     1      -1.399  -0.465  -6.684  0.00  0.00    -0.259 NA
ATOM      6  C   UNL     1      -1.597  -0.545  -5.384  0.00  0.00    +0.119 A 
ENDROOT
BRANCH   1  10
ATOM      7  C   UNL     1      -1.412  -0.526   0.013  0.00  0.00    +0.070 A 
ATOM      8  C   UNL     1      -2.230  -0.817  -1.161  0.00  0.00    +0.023 A 
ATOM      9  C   UNL     1      -2.016  -0.726  -2.538  0.00  0.00    +0.020 A 
ATOM     10  C   UNL     1      -3.029  -1.092  -3.411  0.00  0.00    -0.016 A 
ATOM     11  C   UNL     1      -4.255  -1.550  -2.914  0.00  0.00    +0.010 A 
ATOM     12  C   UNL     1      -4.472  -1.641  -1.571  0.00  0.00    +0.028 A 
ATOM     13  C   UNL     1      -3.469  -1.279  -0.674  0.00  0.00    +0.066 A 
ATOM     14  N   UNL     1      -3.386  -1.261   0.694  0.00  0.00    -0.277 N 
ATOM     15  N   UNL     1      -2.120  -0.802   1.070  0.00  0.00    -0.178 NA
ATOM     16  H   UNL     1      -4.092  -1.527   1.304  0.00  0.00    +0.189 HD
BRANCH   7  18
ATOM     17  C   UNL     1      -0.019   1.526   0.010  0.00  0.00    +0.010 C 
ATOM     18  C   UNL     1       0.002  -0.004   0.002  0.00  0.00    +0.054 C 
ENDBRANCH   7  18
ENDBRANCH   1  10
BRANCH   3  19
ATOM     19  O   UNL     1      -4.529  -1.593  -8.034  0.00  0.00    -0.492 OA
BRANCH  19  20
ATOM     20  C   UNL     1      -4.192  -1.456  -9.415  0.00  0.00    +0.213 C 
BRANCH  20  21
ATOM     21  C   UNL     1      -5.383  -1.881 -10.276  0.00  0.00    -0.033 C 
BRANCH  21  22
ATOM     22  N   UNL     1      -6.502  -0.956 -10.056  0.00  0.00    +0.382 N 
ATOM     23  H   UNL     1      -6.220  -0.021 -10.310  0.00  0.00    -0.089 HD
ATOM     24  H   UNL     1      -7.287  -1.237 -10.624  0.00  0.00    -0.089 HD
ATOM     25  H   UNL     1      -6.767  -0.974  -9.083  0.00  0.00    -0.089 HD
ENDBRANCH  21  22
BRANCH  21  26
ATOM     26  C   UNL     1      -4.981  -1.854 -11.752  0.00  0.00    +0.020 C 
BRANCH  26  27
ATOM     27  C   UNL     1      -6.112  -2.389 -12.591  0.00  0.00    -0.043 C 
ATOM     28  C   UNL     1      -7.072  -1.670 -13.217  0.00  0.00    -0.001 A 
ATOM     29  C   UNL     1      -7.340  -0.230 -13.300  0.00  0.00    +0.010 A 
ATOM     30  C   UNL     1      -8.402   0.200 -14.019  0.00  0.00    +0.001 A 
ATOM     31  C   UNL     1      -9.251  -0.695 -14.685  0.00  0.00    +0.002 A 
ATOM     32  C   UNL     1      -9.070  -2.032 -14.655  0.00  0.00    +0.026 A 
ATOM     33  C   UNL     1      -7.984  -2.594 -13.930  0.00  0.00    +0.043 A 
ATOM     34  N   UNL     1      -7.603  -3.836 -13.751  0.00  0.00    -0.380 N 
ATOM     35  C   UNL     1      -6.401  -3.840 -12.909  0.00  0.00    +0.144 C 
ATOM     36  H   UNL     1      -8.040  -4.620 -14.117  0.00  0.00    +0.160 HD
ENDBRANCH  26  27
ENDBRANCH  21  26
ENDBRANCH  20  21
ENDBRANCH  19  20
ENDBRANCH   3  19
TORSDOF 8
