REMARK  Name = ZINC12524792
REMARK  10 active torsions:
REMARK  status: ('A' for Active; 'I' for Inactive)
REMARK    1  A    between atoms: C_1  and  C_2
REMARK    2  A    between atoms: C_2  and  C_29
REMARK    3  A    between atoms: N_5  and  C_9
REMARK    4  A    between atoms: C_9  and  C_10
REMARK    5  A    between atoms: N_12  and  C_13
REMARK    6  A    between atoms: C_13  and  C_15
REMARK    7  A    between atoms: C_13  and  C_19
REMARK    8  A    between atoms: C_15  and  C_16
REMARK    9  A    between atoms: C_16  and  S_17
REMARK   10  A    between atoms: S_17  and  C_18
REMARK                            x       y       z     vdW  Elec       q    Type
REMARK                         _______ _______ _______ _____ _____    ______ ____
ROOT
ATOM      1  C   UNL     1      -4.835   0.352   0.271  0.00  0.00    +0.213 C 
ENDROOT
BRANCH   1   6
ATOM      2  C   UNL     1      -7.275  -2.300   3.284  0.00  0.00    +0.047 C 
ATOM      3  C   UNL     1      -7.553  -1.166   2.296  0.00  0.00    +0.135 C 
ATOM      4  C   UNL     1      -6.337  -0.274   2.151  0.00  0.00    +0.251 C 
ATOM      5  O   UNL     1      -5.801   0.381   3.019  0.00  0.00    -0.272 OA
ATOM      6  N   UNL     1      -5.974  -0.359   0.855  0.00  0.00    -0.215 N 
ATOM      7  C   UNL     1      -6.788  -1.169   0.168  0.00  0.00    +0.310 C 
ATOM      8  O   UNL     1      -6.665  -1.401  -1.019  0.00  0.00    -0.252 OA
ATOM      9  N   UNL     1      -7.755  -1.701   0.938  0.00  0.00    -0.281 N 
ATOM     10  H   UNL     1      -8.450  -2.314   0.653  0.00  0.00    +0.152 HD
BRANCH   3  11
ATOM     11  C   UNL     1      -8.750  -0.363   2.736  0.00  0.00    -0.015 A 
ATOM     12  C   UNL     1      -8.564   0.771   3.524  0.00  0.00    +0.007 A 
ATOM     13  C   UNL     1      -9.623   1.518   3.938  0.00  0.00    +0.009 A 
ATOM     14  C   UNL     1     -10.926   1.143   3.567  0.00  0.00    -0.018 A 
ATOM     15  C   UNL     1     -12.044   1.891   3.975  0.00  0.00    +0.008 A 
ATOM     16  C   UNL     1     -13.291   1.498   3.596  0.00  0.00    +0.001 A 
ATOM     17  C   UNL     1     -13.477   0.363   2.808  0.00  0.00    +0.001 A 
ATOM     18  C   UNL     1     -12.418  -0.384   2.394  0.00  0.00    +0.008 A 
ATOM     19  C   UNL     1     -11.115  -0.010   2.766  0.00  0.00    -0.018 A 
ATOM     20  C   UNL     1      -9.997  -0.753   2.353  0.00  0.00    +0.014 A 
ENDBRANCH   3  11
ENDBRANCH   1   6
BRANCH   1  21
ATOM     21  C   UNL     1      -3.599  -0.504   0.379  0.00  0.00    +0.232 C 
ATOM     22  O   UNL     1      -3.665  -1.601   0.893  0.00  0.00    -0.274 OA
ATOM     23  N   UNL     1      -2.422  -0.052  -0.096  0.00  0.00    -0.304 N 
ATOM     24  H   UNL     1      -2.370   0.825  -0.508  0.00  0.00    +0.149 HD
BRANCH  23  25
ATOM     25  C   UNL     1      -1.221  -0.884   0.009  0.00  0.00    +0.140 C 
BRANCH  25  26
ATOM     26  C   UNL     1       0.002  -0.004   0.002  0.00  0.00    +0.129 A 
ATOM     27  N   UNL     1      -0.016   1.356   0.009  0.00  0.00    -0.340 N 
ATOM     28  H   UNL     1      -0.830   1.938   0.020  0.00  0.00    +0.167 HD
ATOM     29  C   UNL     1       1.296   1.785  -0.001  0.00  0.00    +0.066 A 
ATOM     30  C   UNL     1       1.906   3.032  -0.000  0.00  0.00    +0.028 A 
ATOM     31  C   UNL     1       3.281   3.119  -0.013  0.00  0.00    +0.002 A 
ATOM     32  C   UNL     1       4.059   1.970  -0.027  0.00  0.00    +0.002 A 
ATOM     33  C   UNL     1       3.477   0.734  -0.027  0.00  0.00    +0.030 A 
ATOM     34  C   UNL     1       2.084   0.621  -0.015  0.00  0.00    +0.089 A 
ATOM     35  N   UNL     1       1.230  -0.434  -0.012  0.00  0.00    -0.231 NA
ENDBRANCH  25  26
BRANCH  25  36
ATOM     36  C   UNL     1      -1.163  -1.847  -1.179  0.00  0.00    +0.041 C 
BRANCH  36  37
ATOM     37  C   UNL     1      -2.339  -2.822  -1.103  0.00  0.00    +0.071 C 
BRANCH  37  38
ATOM     38  S   UNL     1      -2.270  -3.964  -2.510  0.00  0.00    -0.164 S 
ATOM     39  C   UNL     1      -3.713  -5.039  -2.275  0.00  0.00    +0.084 C 
ENDBRANCH  37  38
ENDBRANCH  36  37
ENDBRANCH  25  36
ENDBRANCH  23  25
ENDBRANCH   1  21
TORSDOF 8
