REMARK  Name = ZINC20293857
REMARK  10 active torsions:
REMARK  status: ('A' for Active; 'I' for Inactive)
REMARK    1  A    between atoms: C_1  and  C_2
REMARK    2  A    between atoms: C_3  and  C_30
REMARK    3  A    between atoms: C_4  and  C_29
REMARK    4  A    between atoms: C_5  and  S_10
REMARK    5  A    between atoms: C_6  and  C_9
REMARK    6  A    between atoms: C_7  and  C_8
REMARK    7  A    between atoms: S_10  and  N_13
REMARK    8  A    between atoms: N_13  and  N_14
REMARK    9  A    between atoms: C_15  and  C_16
REMARK   10  A    between atoms: C_21  and  C_22
REMARK                            x       y       z     vdW  Elec       q    Type
REMARK                         _______ _______ _______ _____ _____    ______ ____
ROOT
ATOM      1  N   UNL     1       0.344   9.976   0.232  0.00  0.00    -0.137 N 
ATOM      2  H   UNL     1      -0.108  10.178  -0.602  0.00  0.00    +0.197 HD
ENDROOT
BRANCH   1   3
ATOM      3  S   UNL     1       0.109   8.510   0.967  0.00  0.00    +0.087 S 
ATOM      4  O   UNL     1      -0.924   7.855   0.245  0.00  0.00    -0.149 OA
ATOM      5  O   UNL     1       1.396   7.936   1.147  0.00  0.00    -0.149 OA
BRANCH   3  10
ATOM      6  C   UNL     1      -2.074   9.611   6.483  0.00  0.00    +0.044 C 
ATOM      7  C   UNL     1      -1.529   9.336   5.106  0.00  0.00    -0.044 A 
ATOM      8  C   UNL     1      -0.174   9.459   4.861  0.00  0.00    -0.043 A 
ATOM      9  C   UNL     1       0.327   9.207   3.597  0.00  0.00    -0.020 A 
ATOM     10  C   UNL     1      -0.528   8.832   2.578  0.00  0.00    +0.116 A 
ATOM     11  C   UNL     1      -1.884   8.713   2.821  0.00  0.00    -0.020 A 
ATOM     12  C   UNL     1      -2.383   8.961   4.086  0.00  0.00    -0.043 A 
ATOM     13  C   UNL     1      -3.861   8.826   4.353  0.00  0.00    +0.044 C 
ATOM     14  C   UNL     1      -2.816   8.309   1.708  0.00  0.00    +0.046 C 
ATOM     15  C   UNL     1       1.804   9.342   3.331  0.00  0.00    +0.046 C 
ATOM     16  C   UNL     1       0.758   9.868   5.973  0.00  0.00    +0.044 C 
ENDBRANCH   3  10
ENDBRANCH   1   3
BRANCH   1  17
ATOM     17  N   UNL     1       1.195  10.924   0.816  0.00  0.00    -0.174 NA
ATOM     18  C   UNL     1       1.454  12.032   0.194  0.00  0.00    +0.143 C 
BRANCH  18  19
ATOM     19  C   UNL     1       2.437  12.979   0.754  0.00  0.00    +0.040 A 
ATOM     20  C   UNL     1       3.073  12.879   1.959  0.00  0.00    +0.115 A 
ATOM     21  N   UNL     1       3.888  13.944   2.092  0.00  0.00    -0.284 N 
ATOM     22  H   UNL     1       4.502  14.057   2.997  0.00  0.00    +0.188 HD
ATOM     23  N   UNL     1       3.779  14.757   0.960  0.00  0.00    -0.173 NA
ATOM     24  C   UNL     1       2.921  14.210   0.126  0.00  0.00    +0.101 A 
BRANCH  24  25
ATOM     25  C   UNL     1       2.516  14.743  -1.197  0.00  0.00    +0.003 A 
ATOM     26  C   UNL     1       2.447  13.895  -2.302  0.00  0.00    +0.013 A 
ATOM     27  C   UNL     1       2.065  14.395  -3.530  0.00  0.00    +0.039 A 
ATOM     28  C   UNL     1       1.760  15.739  -3.668  0.00  0.00    +0.123 A 
ATOM     29  C   UNL     1       1.832  16.587  -2.575  0.00  0.00    +0.039 A 
ATOM     30  C   UNL     1       2.208  16.095  -1.342  0.00  0.00    +0.013 A 
ATOM     31  F   UNL     1       1.391  16.225  -4.874  0.00  0.00    -0.205 F 
ENDBRANCH  24  25
ENDBRANCH  18  19
ENDBRANCH   1  17
TORSDOF 5
