REMARK  Name = ZINC10154352
REMARK  14 active torsions:
REMARK  status: ('A' for Active; 'I' for Inactive)
REMARK    1  A    between atoms: C_1  and  C_2
REMARK    2  A    between atoms: C_5  and  O_9
REMARK    3  A    between atoms: C_7  and  C_8
REMARK    4  A    between atoms: O_9  and  C_10
REMARK    5  A    between atoms: C_10  and  C_12
REMARK    6  A    between atoms: C_10  and  C_13
REMARK    7  A    between atoms: N_15  and  N_16
REMARK    8  A    between atoms: N_16  and  C_17
REMARK    9  A    between atoms: C_17  and  N_19
REMARK   10  A    between atoms: C_20  and  C_22
REMARK   11  A    between atoms: C_25  and  O_29
REMARK   12  A    between atoms: O_29  and  C_30
REMARK   13  A    between atoms: C_30  and  C_31
REMARK   14  A    between atoms: C_30  and  C_32
REMARK                            x       y       z     vdW  Elec       q    Type
REMARK                         _______ _______ _______ _____ _____    ______ ____
ROOT
ATOM      1  N   UNL     1      -2.907  -5.136  -1.268  0.00  0.00    -0.245 N 
ATOM      2  H   UNL     1      -2.782  -6.098  -1.271  0.00  0.00    +0.172 HD
ENDROOT
BRANCH   1   5
ATOM      3  C   UNL     1      -5.234  -5.415  -0.850  0.00  0.00    +0.270 C 
ATOM      4  O   UNL     1      -5.077  -6.617  -0.853  0.00  0.00    -0.270 OA
ATOM      5  N   UNL     1      -4.183  -4.597  -1.053  0.00  0.00    -0.232 N 
ATOM      6  H   UNL     1      -4.308  -3.635  -1.051  0.00  0.00    +0.173 HD
BRANCH   3   7
ATOM      7  C   UNL     1      -6.606  -4.835  -0.618  0.00  0.00    +0.257 C 
ATOM      8  C   UNL     1      -6.613  -4.049   0.695  0.00  0.00    +0.062 C 
BRANCH   7   9
ATOM      9  O   UNL     1      -7.564  -5.892  -0.546  0.00  0.00    -0.480 OA
BRANCH   9  14
ATOM     10  C   UNL     1     -12.895  -4.605  -1.830  0.00  0.00    +0.044 C 
ATOM     11  C   UNL     1     -11.469  -4.949  -1.486  0.00  0.00    -0.047 A 
ATOM     12  C   UNL     1     -10.511  -3.953  -1.434  0.00  0.00    +0.007 A 
ATOM     13  C   UNL     1      -9.203  -4.266  -1.120  0.00  0.00    +0.046 A 
ATOM     14  C   UNL     1      -8.851  -5.582  -0.856  0.00  0.00    +0.122 A 
ATOM     15  C   UNL     1      -9.812  -6.580  -0.914  0.00  0.00    +0.049 A 
ATOM     16  C   UNL     1     -11.120  -6.261  -1.224  0.00  0.00    -0.044 A 
ATOM     17  C   UNL     1     -12.165  -7.345  -1.282  0.00  0.00    +0.044 C 
ENDBRANCH   9  14
ENDBRANCH   7   9
ENDBRANCH   3   7
ENDBRANCH   1   5
BRANCH   1  18
ATOM     18  C   UNL     1      -1.855  -4.318  -1.472  0.00  0.00    +0.153 C 
ATOM     19  S   UNL     1      -0.297  -4.977  -1.734  0.00  0.00    -0.017 S 
BRANCH  18  20
ATOM     20  N   UNL     1      -2.030  -2.982  -1.468  0.00  0.00    -0.263 N 
ATOM     21  C   UNL     1      -0.978  -2.164  -1.672  0.00  0.00    +0.250 C 
ATOM     22  O   UNL     1       0.128  -2.632  -1.858  0.00  0.00    -0.270 OA
ATOM     23  H   UNL     1      -2.913  -2.609  -1.319  0.00  0.00    +0.157 HD
BRANCH  21  24
ATOM     24  C   UNL     1      -1.170  -0.702  -1.668  0.00  0.00    +0.038 A 
ATOM     25  C   UNL     1      -0.080   0.148  -1.879  0.00  0.00    +0.017 A 
ATOM     26  C   UNL     1      -0.263   1.513  -1.875  0.00  0.00    +0.047 A 
ATOM     27  C   UNL     1      -1.528   2.046  -1.661  0.00  0.00    +0.135 A 
ATOM     28  C   UNL     1      -2.614   1.205  -1.446  0.00  0.00    +0.060 A 
ATOM     29  C   UNL     1      -2.441  -0.162  -1.454  0.00  0.00    +0.032 A 
ATOM     30 BR   UNL     1      -4.332   1.938  -1.149  0.00  0.00    -0.046 Br
BRANCH  27  31
ATOM     31  O   UNL     1      -1.704   3.392  -1.658  0.00  0.00    -0.488 OA
BRANCH  31  32
ATOM     32  C   UNL     1      -0.529   4.200  -1.762  0.00  0.00    +0.167 C 
ATOM     33  C   UNL     1      -0.152   4.362  -3.236  0.00  0.00    +0.051 C 
ATOM     34  C   UNL     1      -0.800   5.576  -1.151  0.00  0.00    +0.051 C 
ENDBRANCH  31  32
ENDBRANCH  27  31
ENDBRANCH  21  24
ENDBRANCH  18  20
ENDBRANCH   1  18
TORSDOF 9
