REMARK  Name = ZINC36207821
REMARK  11 active torsions:
REMARK  status: ('A' for Active; 'I' for Inactive)
REMARK    1  A    between atoms: C_2  and  C_3
REMARK    2  A    between atoms: C_3  and  O_4
REMARK    3  A    between atoms: O_4  and  C_5
REMARK    4  A    between atoms: C_5  and  C_6
REMARK    5  A    between atoms: C_6  and  C_8
REMARK    6  A    between atoms: C_6  and  O_35
REMARK    7  A    between atoms: C_8  and  N_9
REMARK    8  A    between atoms: N_9  and  C_10
REMARK    9  A    between atoms: N_9  and  C_29
REMARK   10  A    between atoms: C_10  and  C_11
REMARK   11  A    between atoms: C_17  and  C_22
REMARK                            x       y       z     vdW  Elec       q    Type
REMARK                         _______ _______ _______ _____ _____    ______ ____
ROOT
ATOM      1  C   UNL     1       4.502   7.164  -0.187  0.00  0.00    -0.003 C 
ENDROOT
BRANCH   1   2
ATOM      2  C   UNL     1       5.953   7.570  -0.170  0.00  0.00    +0.094 A 
ATOM      3  N   UNL     1       6.277   8.888  -0.123  0.00  0.00    -0.312 N 
ATOM      4  H   UNL     1       5.569   9.551  -0.100  0.00  0.00    +0.170 HD
ATOM      5  C   UNL     1       7.561   9.293  -0.106  0.00  0.00    +0.260 A 
ATOM      6  O   UNL     1       7.835  10.479  -0.062  0.00  0.00    -0.267 OA
ATOM      7  C   UNL     1       8.599   8.308  -0.139  0.00  0.00    +0.080 A 
ATOM      8  C   UNL     1      10.045   8.491  -0.129  0.00  0.00    +0.006 A 
ATOM      9  C   UNL     1      10.841   7.395  -0.167  0.00  0.00    +0.056 A 
ATOM     10  S   UNL     1       9.681   6.044  -0.218  0.00  0.00    -0.076 S 
ATOM     11  C   UNL     1       8.169   6.972  -0.188  0.00  0.00    +0.116 A 
ATOM     12  N   UNL     1       6.878   6.648  -0.197  0.00  0.00    -0.229 NA
BRANCH   8  13
ATOM     13  C   UNL     1      10.634   9.851  -0.080  0.00  0.00    +0.019 A 
ATOM     14  C   UNL     1      11.377  10.332  -1.156  0.00  0.00    +0.011 A 
ATOM     15  C   UNL     1      11.922  11.598  -1.105  0.00  0.00    +0.001 A 
ATOM     16  C   UNL     1      11.733  12.392   0.012  0.00  0.00    +0.003 A 
ATOM     17  C   UNL     1      10.997  11.922   1.085  0.00  0.00    +0.039 A 
ATOM     18  C   UNL     1      10.441  10.657   1.044  0.00  0.00    +0.131 A 
ATOM     19  F   UNL     1       9.718  10.201   2.089  0.00  0.00    -0.205 F 
ENDBRANCH   8  13
ENDBRANCH   1   2
BRANCH   1  20
ATOM     20  N   UNL     1       4.401   5.704  -0.066  0.00  0.00    +0.388 N 
ATOM     21  H   UNL     1       5.157   5.271  -0.575  0.00  0.00    -0.081 HD
BRANCH  20  22
ATOM     22  C   UNL     1       4.483   5.323   1.350  0.00  0.00    -0.068 C 
ATOM     23  C   UNL     1       3.285   5.903   2.105  0.00  0.00    -0.015 C 
ATOM     24  C   UNL     1       3.370   5.506   3.580  0.00  0.00    -0.002 C 
ATOM     25  C   UNL     1       4.666   6.054   4.181  0.00  0.00    -0.000 C 
ATOM     26  C   UNL     1       5.864   5.474   3.427  0.00  0.00    -0.002 C 
ATOM     27  C   UNL     1       5.778   5.871   1.952  0.00  0.00    -0.015 C 
ENDBRANCH  20  22
BRANCH  20  28
ATOM     28  C   UNL     1       3.117   5.255  -0.620  0.00  0.00    -0.044 C 
BRANCH  28  29
ATOM     29  C   UNL     1       3.091   3.726  -0.672  0.00  0.00    +0.124 C 
BRANCH  29  30
ATOM     30  O   UNL     1       3.044   3.204   0.657  0.00  0.00    -0.391 OA
ATOM     31  H   UNL     1       2.230   3.417   1.135  0.00  0.00    +0.210 HD
ENDBRANCH  29  30
BRANCH  29  32
ATOM     32  C   UNL     1       1.854   3.263  -1.446  0.00  0.00    +0.190 C 
BRANCH  32  33
ATOM     33  O   UNL     1       1.890   1.842  -1.595  0.00  0.00    -0.365 OA
BRANCH  33  34
ATOM     34  C   UNL     1       0.774   1.304  -2.307  0.00  0.00    +0.248 C 
BRANCH  34  36
ATOM     35  C   UNL     1       1.022  -1.325  -2.478  0.00  0.00    +0.006 C 
ATOM     36  C   UNL     1       0.912  -0.159  -2.402  0.00  0.00    -0.077 C 
ENDBRANCH  34  36
ENDBRANCH  33  34
ENDBRANCH  32  33
ENDBRANCH  29  32
ENDBRANCH  28  29
ENDBRANCH  20  28
ENDBRANCH   1  20
TORSDOF 11
