REMARK  Name = ZINC05242211
REMARK  5 active torsions:
REMARK  status: ('A' for Active; 'I' for Inactive)
REMARK    1  A    between atoms: C_4  and  C_7
REMARK    2  A    between atoms: C_9  and  C_21
REMARK    3  A    between atoms: C_11  and  C_16
REMARK    4  A    between atoms: C_11  and  O_20
REMARK    5  A    between atoms: C_21  and  C_23
REMARK                            x       y       z     vdW  Elec       q    Type
REMARK                         _______ _______ _______ _____ _____    ______ ____
ROOT
ATOM      1  C   UNL     1      -0.024   0.165   0.382  0.00  0.00    +0.117 C 
ATOM      2  C   UNL     1       0.075   1.693   0.327  0.00  0.00    +0.144 C 
ATOM      3  C   UNL     1       1.524   2.077   0.011  0.00  0.00    +0.241 C 
ATOM      4  N   UNL     1       1.938   1.414  -1.227  0.00  0.00    -0.291 N 
ATOM      5  C   UNL     1       1.409   0.239  -1.599  0.00  0.00    +0.133 C 
ATOM      6  S   UNL     1       1.952  -0.483  -3.053  0.00  0.00    -0.019 S 
ATOM      7  N   UNL     1       0.473  -0.394  -0.876  0.00  0.00    -0.319 N 
ATOM      8  H   UNL     1       2.607   1.834  -1.790  0.00  0.00    +0.151 HD
ATOM      9  H   UNL     1       0.118  -1.239  -1.194  0.00  0.00    +0.148 HD
ENDROOT
BRANCH   1  13
ATOM     10  C   UNL     1      -4.101  -0.982   0.942  0.00  0.00    +0.000 A 
ATOM     11  C   UNL     1      -3.260  -0.863   2.033  0.00  0.00    +0.000 A 
ATOM     12  C   UNL     1      -1.941  -0.492   1.851  0.00  0.00    +0.005 A 
ATOM     13  C   UNL     1      -1.462  -0.239   0.580  0.00  0.00    -0.026 A 
ATOM     14  C   UNL     1      -2.304  -0.352  -0.511  0.00  0.00    +0.005 A 
ATOM     15  C   UNL     1      -3.623  -0.728  -0.330  0.00  0.00    +0.000 A 
ENDBRANCH   1  13
BRANCH   3  16
ATOM     16  C   UNL     1       1.625   3.594  -0.163  0.00  0.00    +0.436 C 
ATOM     17  F   UNL     1       1.095   4.229   0.965  0.00  0.00    -0.166 F 
ATOM     18  F   UNL     1       2.968   3.958  -0.315  0.00  0.00    -0.166 F 
ATOM     19  F   UNL     1       0.906   3.982  -1.298  0.00  0.00    -0.166 F 
ENDBRANCH   3  16
BRANCH   3  20
ATOM     20  O   UNL     1       2.373   1.660   1.082  0.00  0.00    -0.364 OA
ATOM     21  H   UNL     1       3.307   1.872   0.949  0.00  0.00    +0.212 HD
ENDBRANCH   3  20
BRANCH   2  22
ATOM     22  C   UNL     1      -0.835   2.221  -0.752  0.00  0.00    +0.173 C 
ATOM     23  O   UNL     1      -0.619   1.949  -1.914  0.00  0.00    -0.292 OA
BRANCH  22  24
ATOM     24  C   UNL     1      -1.986   3.066  -0.396  0.00  0.00    +0.018 A 
ATOM     25  C   UNL     1      -2.324   3.264   0.947  0.00  0.00    +0.011 A 
ATOM     26  C   UNL     1      -3.400   4.062   1.273  0.00  0.00    +0.001 A 
ATOM     27  C   UNL     1      -4.152   4.657   0.275  0.00  0.00    +0.000 A 
ATOM     28  C   UNL     1      -3.827   4.462  -1.056  0.00  0.00    +0.001 A 
ATOM     29  C   UNL     1      -2.751   3.672  -1.398  0.00  0.00    +0.011 A 
ENDBRANCH  22  24
ENDBRANCH   2  22
TORSDOF 5
