REMARK  Name = ZINC45168430
REMARK  12 active torsions:
REMARK  status: ('A' for Active; 'I' for Inactive)
REMARK    1  A    between atoms: C_1  and  C_2
REMARK    2  A    between atoms: C_2  and  C_3
REMARK    3  A    between atoms: C_3  and  C_4
REMARK    4  A    between atoms: C_4  and  C_5
REMARK    5  A    between atoms: C_5  and  C_7
REMARK    6  A    between atoms: C_5  and  O_38
REMARK    7  A    between atoms: C_9  and  O_37
REMARK    8  A    between atoms: C_14  and  C_35
REMARK    9  A    between atoms: C_14  and  C_36
REMARK   10  A    between atoms: C_16  and  C_18
REMARK   11  A    between atoms: N_21  and  C_24
REMARK   12  A    between atoms: C_24  and  C_25
REMARK                            x       y       z     vdW  Elec       q    Type
REMARK                         _______ _______ _______ _____ _____    ______ ____
ROOT
ATOM      1  C   UNL     1      -2.831  -4.094  -0.117  0.00  0.00    -0.012 A 
ATOM      2  C   UNL     1      -2.677  -4.885   1.006  0.00  0.00    +0.052 A 
ATOM      3  C   UNL     1      -2.663  -6.265   0.883  0.00  0.00    +0.124 A 
ATOM      4  C   UNL     1      -2.803  -6.857  -0.366  0.00  0.00    +0.043 A 
ATOM      5  C   UNL     1      -2.953  -6.065  -1.489  0.00  0.00    +0.129 A 
ATOM      6  C   UNL     1      -2.974  -4.679  -1.358  0.00  0.00    +0.052 A 
ATOM      7  O   UNL     1      -3.081  -6.600  -2.731  0.00  0.00    -0.486 OA
ATOM      8  C   UNL     1      -3.433  -7.981  -2.830  0.00  0.00    +0.106 C 
ATOM      9  C   UNL     1      -2.508  -8.784  -1.907  0.00  0.00    +0.060 C 
ATOM     10  C   UNL     1      -2.788  -8.362  -0.462  0.00  0.00    +0.055 C 
ATOM     11  C   UNL     1      -4.888  -8.174  -2.397  0.00  0.00    +0.055 C 
ATOM     12  C   UNL     1      -3.257  -8.455  -4.274  0.00  0.00    +0.055 C 
ENDROOT
BRANCH  10  13
ATOM     13  C   UNL     1      -1.712  -8.911   0.438  0.00  0.00    -0.069 C 
ATOM     14  C   UNL     1      -2.051  -9.726   1.391  0.00  0.00    -0.046 C 
ATOM     15  C   UNL     1      -1.063 -10.326   2.349  0.00  0.00    -0.051 C 
ATOM     16  N   UNL     1       0.299 -10.227   1.810  0.00  0.00    +0.385 N 
ATOM     17  C   UNL     1       0.560  -8.830   1.428  0.00  0.00    -0.074 C 
ATOM     18  C   UNL     1      -0.286  -8.500   0.194  0.00  0.00    +0.012 C 
ATOM     19  H   UNL     1       0.385 -10.821   1.000  0.00  0.00    -0.081 HD
BRANCH  16  20
ATOM     20  C   UNL     1       1.265 -10.646   2.835  0.00  0.00    -0.043 C 
BRANCH  20  21
ATOM     21  C   UNL     1       1.065 -12.107   3.146  0.00  0.00    -0.063 A 
ATOM     22  C   UNL     1       0.176 -12.480   4.152  0.00  0.00    +0.002 A 
ATOM     23  C   UNL     1      -0.026 -13.790   4.458  0.00  0.00    +0.009 A 
ATOM     24  C   UNL     1       0.669 -14.785   3.751  0.00  0.00    -0.018 A 
ATOM     25  C   UNL     1       0.486 -16.149   4.038  0.00  0.00    +0.008 A 
ATOM     26  C   UNL     1       1.176 -17.084   3.331  0.00  0.00    +0.001 A 
ATOM     27  C   UNL     1       2.065 -16.712   2.325  0.00  0.00    +0.001 A 
ATOM     28  C   UNL     1       2.268 -15.401   2.019  0.00  0.00    +0.008 A 
ATOM     29  C   UNL     1       1.573 -14.406   2.727  0.00  0.00    -0.018 A 
ATOM     30  C   UNL     1       1.752 -13.043   2.436  0.00  0.00    +0.010 A 
ENDBRANCH  20  21
ENDBRANCH  16  20
ENDBRANCH  10  13
BRANCH   3  31
ATOM     31  O   UNL     1      -2.514  -7.042   1.988  0.00  0.00    -0.506 OA
ATOM     32  H   UNL     1      -3.347  -7.285   2.414  0.00  0.00    +0.292 HD
ENDBRANCH   3  31
BRANCH   1  33
ATOM     33  C   UNL     1      -2.848  -2.593   0.015  0.00  0.00    +0.145 C 
BRANCH  33  34
ATOM     34  O   UNL     1      -3.480  -2.230   1.244  0.00  0.00    -0.387 OA
ATOM     35  H   UNL     1      -3.041  -2.581   2.031  0.00  0.00    +0.210 HD
ENDBRANCH  33  34
BRANCH  33  36
ATOM     36  C   UNL     1      -1.413  -2.063   0.004  0.00  0.00    +0.036 C 
BRANCH  36  37
ATOM     37  C   UNL     1      -1.433  -0.534   0.013  0.00  0.00    +0.003 C 
BRANCH  37  39
ATOM     38  C   UNL     1      -0.019   1.526   0.010  0.00  0.00    +0.004 C 
ATOM     39  C   UNL     1       0.002  -0.004   0.002  0.00  0.00    -0.003 C 
ENDBRANCH  37  39
ENDBRANCH  36  37
ENDBRANCH  33  36
ENDBRANCH   1  33
TORSDOF 9
