REMARK  Name = ZINC20877033
REMARK  13 active torsions:
REMARK  status: ('A' for Active; 'I' for Inactive)
REMARK    1  A    between atoms: C_1  and  C_2
REMARK    2  A    between atoms: C_2  and  C_4
REMARK    3  A    between atoms: C_2  and  O_30
REMARK    4  A    between atoms: C_4  and  N_5
REMARK    5  A    between atoms: N_5  and  C_6
REMARK    6  A    between atoms: C_6  and  C_7
REMARK    7  A    between atoms: C_9  and  O_28
REMARK    8  A    between atoms: C_10  and  O_14
REMARK    9  A    between atoms: O_14  and  C_15
REMARK   10  A    between atoms: C_15  and  C_16
REMARK   11  A    between atoms: C_16  and  C_18
REMARK   12  A    between atoms: C_16  and  O_27
REMARK   13  A    between atoms: O_28  and  C_29
REMARK                            x       y       z     vdW  Elec       q    Type
REMARK                         _______ _______ _______ _____ _____    ______ ____
ROOT
ATOM      1  C   UNL     1       1.228  -2.064  -0.020  0.00  0.00    -0.060 A 
ATOM      2  C   UNL     1       1.210  -0.682  -0.013  0.00  0.00    +0.051 A 
ATOM      3  C   UNL     1       0.002  -0.004   0.002  0.00  0.00    +0.163 A 
ATOM      4  C   UNL     1      -1.193  -0.718   0.015  0.00  0.00    +0.176 A 
ATOM      5  C   UNL     1      -1.169  -2.103   0.001  0.00  0.00    +0.063 A 
ATOM      6  C   UNL     1       0.042  -2.774  -0.013  0.00  0.00    +0.021 A 
ATOM      7 BR   UNL     1      -2.789  -3.078   0.011  0.00  0.00    -0.046 Br
ENDROOT
BRANCH   3   8
ATOM      8  O   UNL     1      -0.016   1.356   0.009  0.00  0.00    -0.491 OA
ATOM      9  C   UNL     1       1.248   2.022   0.001  0.00  0.00    +0.277 C 
ENDBRANCH   3   8
BRANCH   1  10
ATOM     10  C   UNL     1       2.543  -2.800  -0.037  0.00  0.00    -0.047 C 
BRANCH  10  11
ATOM     11  N   UNL     1       2.984  -3.046   1.343  0.00  0.00    +0.383 N 
ATOM     12  H   UNL     1       2.219  -3.647   1.856  0.00  0.00    -0.085 HD
ATOM     13  H   UNL     1       3.095  -2.079   1.855  0.00  0.00    -0.085 HD
BRANCH  11  14
ATOM     14  C   UNL     1       4.266  -3.762   1.366  0.00  0.00    -0.051 C 
BRANCH  14  16
ATOM     15  C   UNL     1       6.084  -4.633   2.842  0.00  0.00    +0.035 C 
ATOM     16  C   UNL     1       4.692  -3.999   2.816  0.00  0.00    +0.095 C 
BRANCH  16  17
ATOM     17  O   UNL     1       3.758  -4.876   3.449  0.00  0.00    -0.394 OA
ATOM     18  H   UNL     1       2.699  -4.588   3.527  0.00  0.00    +0.210 HD
ENDBRANCH  16  17
ENDBRANCH  14  16
ENDBRANCH  11  14
ENDBRANCH  10  11
ENDBRANCH   1  10
BRANCH   4  19
ATOM     19  O   UNL     1      -2.381  -0.057   0.036  0.00  0.00    -0.484 OA
BRANCH  19  20
ATOM     20  C   UNL     1      -2.966   0.265  -1.227  0.00  0.00    +0.265 C 
BRANCH  20  21
ATOM     21  C   UNL     1      -4.289   1.001  -1.004  0.00  0.00    +0.182 C 
BRANCH  21  22
ATOM     22  C   UNL     1      -4.845   1.449  -2.331  0.00  0.00    -0.012 A 
ATOM     23  C   UNL     1      -5.604   0.578  -3.090  0.00  0.00    +0.010 A 
ATOM     24  C   UNL     1      -6.120   0.985  -4.306  0.00  0.00    +0.050 A 
ATOM     25  C   UNL     1      -5.870   2.265  -4.772  0.00  0.00    +0.166 A 
ATOM     26  C   UNL     1      -5.101   3.142  -4.010  0.00  0.00    +0.167 A 
ATOM     27  C   UNL     1      -4.591   2.728  -2.789  0.00  0.00    +0.055 A 
ATOM     28  O   UNL     1      -4.999   4.327  -4.678  0.00  0.00    -0.453 OA
ATOM     29  C   UNL     1      -6.050   4.305  -5.662  0.00  0.00    +0.466 C 
ATOM     30  O   UNL     1      -6.250   2.902  -5.918  0.00  0.00    -0.453 OA
ENDBRANCH  21  22
BRANCH  21  31
ATOM     31  O   UNL     1      -5.221   0.124  -0.368  0.00  0.00    -0.384 OA
ATOM     32  H   UNL     1      -6.233   0.479  -0.126  0.00  0.00    +0.210 HD
ENDBRANCH  21  31
ENDBRANCH  20  21
ENDBRANCH  19  20
ENDBRANCH   4  19
TORSDOF 11
