REMARK  Name = ZINC22748017
REMARK  8 active torsions:
REMARK  status: ('A' for Active; 'I' for Inactive)
REMARK    1  A    between atoms: C_1  and  C_2
REMARK    2  A    between atoms: C_2  and  N_3
REMARK    3  A    between atoms: C_5  and  C_9
REMARK    4  A    between atoms: C_6  and  C_8
REMARK    5  A    between atoms: C_16  and  C_34
REMARK    6  A    between atoms: C_17  and  C_25
REMARK    7  A    between atoms: C_18  and  C_20
REMARK    8  A    between atoms: N_27  and  C_28
REMARK                            x       y       z     vdW  Elec       q    Type
REMARK                         _______ _______ _______ _____ _____    ______ ____
ROOT
ATOM      1  C   UNL     1       2.242   2.273  -2.203  0.00  0.00    +0.031 C 
ATOM      2  C   UNL     1       3.252   3.054  -1.737  0.00  0.00    +0.081 A 
ATOM      3  C   UNL     1       3.217   4.443  -1.267  0.00  0.00    +0.268 A 
ATOM      4  O   UNL     1       2.175   5.074  -1.255  0.00  0.00    -0.266 OA
ATOM      5  N   UNL     1       4.362   4.996  -0.848  0.00  0.00    -0.274 N 
ATOM      6  C   UNL     1       5.513   4.242  -0.889  0.00  0.00    +0.178 A 
ATOM      7  N   UNL     1       6.688   4.677  -0.512  0.00  0.00    -0.228 NA
ATOM      8  C   UNL     1       6.930   5.895  -0.042  0.00  0.00    +0.052 C 
ATOM      9  C   UNL     1       5.919   6.805   0.081  0.00  0.00    +0.063 C 
ATOM     10  C   UNL     1       4.528   6.384  -0.333  0.00  0.00    +0.166 C 
ATOM     11  C   UNL     1       8.331   6.276   0.361  0.00  0.00    +0.066 C 
ATOM     12  S   UNL     1       4.985   2.668  -1.538  0.00  0.00    -0.046 S 
ENDROOT
BRANCH   1  15
ATOM     13  N   UNL     1      -1.006   3.554  -1.231  0.00  0.00    -0.271 N 
ATOM     14  C   UNL     1       0.286   3.311  -0.946  0.00  0.00    +0.116 A 
ATOM     15  C   UNL     1       0.849   2.714  -2.060  0.00  0.00    +0.017 A 
ATOM     16  C   UNL     1      -0.171   2.607  -3.035  0.00  0.00    +0.067 A 
ATOM     17  N   UNL     1      -1.263   3.114  -2.534  0.00  0.00    -0.176 NA
ATOM     18  C   UNL     1      -0.019   2.018  -4.414  0.00  0.00    +0.068 C 
BRANCH  13  20
ATOM     19  C   UNL     1      -2.607   5.391  -1.022  0.00  0.00    +0.029 C 
ATOM     20  C   UNL     1      -1.978   4.179  -0.331  0.00  0.00    +0.140 C 
ENDBRANCH  13  20
ENDBRANCH   1  15
BRANCH  10  21
ATOM     21  C   UNL     1       3.620   6.546   0.860  0.00  0.00    +0.017 A 
ATOM     22  C   UNL     1       2.586   7.405   1.035  0.00  0.00    +0.013 A 
ATOM     23  C   UNL     1       1.883   7.374   2.225  0.00  0.00    +0.008 A 
ATOM     24  C   UNL     1       2.256   6.493   3.185  0.00  0.00    +0.045 A 
ATOM     25  S   UNL     1       3.634   5.663   2.411  0.00  0.00    -0.099 S 
ENDBRANCH  10  21
BRANCH   9  26
ATOM     26  C   UNL     1       6.166   8.098   0.578  0.00  0.00    +0.248 C 
ATOM     27  O   UNL     1       7.266   8.381   1.019  0.00  0.00    -0.270 OA
ATOM     28  N   UNL     1       5.186   9.022   0.567  0.00  0.00    -0.282 N 
ATOM     29  H   UNL     1       4.185   8.759   0.193  0.00  0.00    +0.155 HD
BRANCH  28  30
ATOM     30  C   UNL     1       5.440  10.316   1.032  0.00  0.00    +0.034 A 
ATOM     31  C   UNL     1       6.732  10.826   0.999  0.00  0.00    +0.023 A 
ATOM     32  C   UNL     1       6.979  12.107   1.454  0.00  0.00    +0.002 A 
ATOM     33  C   UNL     1       5.944  12.877   1.952  0.00  0.00    +0.000 A 
ATOM     34  C   UNL     1       4.658  12.371   1.990  0.00  0.00    +0.002 A 
ATOM     35  C   UNL     1       4.403  11.093   1.532  0.00  0.00    +0.023 A 
ENDBRANCH  28  30
ENDBRANCH   9  26
TORSDOF 5
