REMARK  Name = ZINC19901167
REMARK  9 active torsions:
REMARK  status: ('A' for Active; 'I' for Inactive)
REMARK    1  A    between atoms: C_1  and  C_2
REMARK    2  A    between atoms: C_6  and  O_9
REMARK    3  A    between atoms: C_7  and  C_8
REMARK    4  A    between atoms: O_9  and  C_10
REMARK    5  A    between atoms: C_10  and  C_11
REMARK    6  A    between atoms: C_23  and  C_29
REMARK    7  A    between atoms: C_23  and  C_30
REMARK    8  A    between atoms: C_25  and  C_27
REMARK    9  A    between atoms: C_25  and  C_28
REMARK                            x       y       z     vdW  Elec       q    Type
REMARK                         _______ _______ _______ _____ _____    ______ ____
ROOT
ATOM      1  C   UNL     1       1.261  -0.431  -0.011  0.00  0.00    +0.189 A 
ATOM      2  N   UNL     1       0.002  -0.004   0.002  0.00  0.00    -0.207 NA
ATOM      3  C   UNL     1      -0.016   1.315   0.009  0.00  0.00    +0.168 A 
ATOM      4  C   UNL     1      -1.100   2.316   0.030  0.00  0.00    +0.055 A 
ATOM      5  C   UNL     1      -2.542   2.111   0.050  0.00  0.00    -0.021 A 
ATOM      6  C   UNL     1      -3.324   3.214   0.063  0.00  0.00    +0.015 A 
ATOM      7  S   UNL     1      -2.189   4.574   0.056  0.00  0.00    -0.071 S 
ATOM      8  C   UNL     1      -0.671   3.654   0.032  0.00  0.00    +0.114 A 
ATOM      9  N   UNL     1       0.616   3.982   0.019  0.00  0.00    -0.228 NA
ATOM     10  C   UNL     1       1.560   3.083   0.003  0.00  0.00    +0.226 A 
ATOM     11  N   UNL     1       1.277   1.752  -0.001  0.00  0.00    -0.201 N 
ATOM     12  N   UNL     1       2.074   0.598  -0.013  0.00  0.00    -0.145 NA
ATOM     13  C   UNL     1      -4.818   3.253   0.069  0.00  0.00    +0.046 C 
ATOM     14  N   UNL     1      -5.388   1.914   0.176  0.00  0.00    -0.301 NA
ATOM     15  C   UNL     1      -4.563   0.862   0.744  0.00  0.00    +0.018 C 
ATOM     16  C   UNL     1      -3.206   0.740   0.048  0.00  0.00    +0.058 C 
ATOM     17  C   UNL     1      -5.301  -0.481   0.575  0.00  0.00    +0.028 C 
ATOM     18  C   UNL     1      -4.342   1.085   2.244  0.00  0.00    +0.028 C 
ATOM     19  C   UNL     1      -5.290   3.892  -1.252  0.00  0.00    +0.033 C 
ATOM     20  C   UNL     1      -5.303   4.140   1.223  0.00  0.00    +0.033 C 
ATOM     21  H   UNL     1      -6.285   1.947   0.812  0.00  0.00    +0.123 HD
ENDROOT
BRANCH   1  22
ATOM     22  C   UNL     1       1.689  -1.876  -0.022  0.00  0.00    +0.306 C 
BRANCH  22  23
ATOM     23  O   UNL     1       1.812  -2.326  -1.373  0.00  0.00    -0.484 OA
BRANCH  23  29
ATOM     24  C   UNL     1       2.872  -5.979  -4.431  0.00  0.00    +0.044 C 
ATOM     25  C   UNL     1       2.720  -5.432  -3.035  0.00  0.00    -0.044 A 
ATOM     26  C   UNL     1       2.969  -6.244  -1.944  0.00  0.00    +0.004 A 
ATOM     27  C   UNL     1       2.830  -5.746  -0.662  0.00  0.00    +0.004 A 
ATOM     28  C   UNL     1       2.443  -4.434  -0.468  0.00  0.00    +0.046 A 
ATOM     29  C   UNL     1       2.193  -3.617  -1.561  0.00  0.00    +0.124 A 
ATOM     30  C   UNL     1       2.328  -4.121  -2.846  0.00  0.00    -0.006 A 
ATOM     31  C   UNL     1       2.051  -3.239  -4.036  0.00  0.00    +0.048 C 
ENDBRANCH  23  29
ENDBRANCH  22  23
ENDBRANCH   1  22
TORSDOF 3
