REMARK  Name = ZINC16921695
REMARK  8 active torsions:
REMARK  status: ('A' for Active; 'I' for Inactive)
REMARK    1  A    between atoms: C_4  and  N_7
REMARK    2  A    between atoms: C_8  and  C_28
REMARK    3  A    between atoms: C_11  and  S_12
REMARK    4  A    between atoms: S_12  and  C_13
REMARK    5  A    between atoms: C_13  and  C_14
REMARK    6  A    between atoms: N_16  and  C_17
REMARK    7  A    between atoms: C_18  and  C_25
REMARK    8  A    between atoms: C_28  and  N_62
REMARK                            x       y       z     vdW  Elec       q    Type
REMARK                         _______ _______ _______ _____ _____    ______ ____
ROOT
ATOM      1  N   UNL     1       4.975   1.030   2.629  0.00  0.00    -0.276 N 
ATOM      2  C   UNL     1       4.456  -0.149   2.163  0.00  0.00    +0.122 A 
ATOM      3  N   UNL     1       5.366  -0.703   1.413  0.00  0.00    -0.135 NA
ATOM      4  N   UNL     1       6.413   0.042   1.363  0.00  0.00    -0.122 NA
ATOM      5  C   UNL     1       6.231   1.117   2.094  0.00  0.00    +0.197 A 
ENDROOT
BRANCH   1   9
ATOM      6  C   UNL     1       3.115   3.780   5.151  0.00  0.00    +0.000 A 
ATOM      7  C   UNL     1       4.215   3.071   5.595  0.00  0.00    +0.002 A 
ATOM      8  C   UNL     1       4.834   2.159   4.762  0.00  0.00    +0.026 A 
ATOM      9  C   UNL     1       4.349   1.955   3.477  0.00  0.00    +0.050 A 
ATOM     10  C   UNL     1       3.247   2.672   3.032  0.00  0.00    +0.026 A 
ATOM     11  C   UNL     1       2.629   3.578   3.872  0.00  0.00    +0.002 A 
ENDBRANCH   1   9
BRANCH   5  12
ATOM     12  S   UNL     1       7.386   2.425   2.340  0.00  0.00    -0.076 S 
BRANCH  12  13
ATOM     13  C   UNL     1       8.764   1.820   1.333  0.00  0.00    +0.173 C 
BRANCH  13  14
ATOM     14  C   UNL     1       9.901   2.807   1.394  0.00  0.00    +0.228 C 
ATOM     15  O   UNL     1       9.792   3.819   2.053  0.00  0.00    -0.275 OA
ATOM     16  N   UNL     1      11.041   2.565   0.716  0.00  0.00    -0.279 N 
ATOM     17  H   UNL     1      11.129   1.755   0.189  0.00  0.00    +0.155 HD
BRANCH  16  18
ATOM     18  C   UNL     1      12.087   3.472   0.772  0.00  0.00    +0.084 A 
ATOM     19  C   UNL     1      13.325   3.398   0.156  0.00  0.00    +0.068 A 
ATOM     20  C   UNL     1      14.258   4.502   0.376  0.00  0.00    -0.023 A 
ATOM     21  C   UNL     1      13.805   5.483   1.177  0.00  0.00    -0.004 A 
ATOM     22  S   UNL     1      12.167   4.970   1.635  0.00  0.00    -0.077 S 
ATOM     23  C   UNL     1      14.820   6.579   1.357  0.00  0.00    +0.043 C 
ATOM     24  C   UNL     1      15.829   6.367   0.207  0.00  0.00    +0.010 C 
ATOM     25  C   UNL     1      15.677   4.858  -0.071  0.00  0.00    +0.037 C 
BRANCH  19  26
ATOM     26  C   UNL     1      13.685   2.255  -0.690  0.00  0.00    +0.244 C 
ATOM     27  O   UNL     1      13.446   2.282  -1.883  0.00  0.00    -0.270 OA
ATOM     28  N   UNL     1      14.281   1.176  -0.146  0.00  0.00    -0.325 N 
ATOM     29  H   UNL     1      14.471   1.154   0.805  0.00  0.00    +0.145 HD
ATOM     30  H   UNL     1      14.519   0.420  -0.705  0.00  0.00    +0.145 HD
ENDBRANCH  19  26
ENDBRANCH  16  18
ENDBRANCH  13  14
ENDBRANCH  12  13
ENDBRANCH   5  12
BRANCH   2  31
ATOM     31  C   UNL     1       3.090  -0.706   2.468  0.00  0.00    -0.001 C 
BRANCH  31  37
ATOM     32  C   UNL     1       1.779  -1.678   4.256  0.00  0.00    -0.078 C 
ATOM     33  C   UNL     1       1.866  -2.316   5.644  0.00  0.00    -0.019 C 
ATOM     34  C   UNL     1       2.633  -3.638   5.546  0.00  0.00    -0.004 C 
ATOM     35  C   UNL     1       4.021  -3.371   4.959  0.00  0.00    -0.019 C 
ATOM     36  C   UNL     1       3.872  -2.703   3.590  0.00  0.00    -0.078 C 
ATOM     37  N   UNL     1       3.147  -1.425   3.757  0.00  0.00    +0.384 N 
ATOM     38  H   UNL     1       3.649  -0.845   4.440  0.00  0.00    -0.081 HD
ENDBRANCH  31  37
ENDBRANCH   2  31
TORSDOF 8
