REMARK  Name = ZINC17878726
REMARK  5 active torsions:
REMARK  status: ('A' for Active; 'I' for Inactive)
REMARK    1  A    between atoms: C_1  and  C_2
REMARK    2  A    between atoms: C_2  and  C_3
REMARK    3  A    between atoms: C_3  and  N_4
REMARK    4  A    between atoms: C_11  and  C_14
REMARK    5  A    between atoms: C_11  and  O_22
REMARK                            x       y       z     vdW  Elec       q    Type
REMARK                         _______ _______ _______ _____ _____    ______ ____
ROOT
ATOM      1  N   UNL     1       0.762  -1.976   1.234  0.00  0.00    -0.268 N 
ATOM      2  C   UNL     1      -0.228  -2.771   1.813  0.00  0.00    +0.043 A 
ATOM      3  C   UNL     1      -1.394  -2.422   2.493  0.00  0.00    +0.025 A 
ATOM      4  C   UNL     1      -2.229  -3.404   2.984  0.00  0.00    +0.022 A 
ATOM      5  C   UNL     1      -1.919  -4.740   2.805  0.00  0.00    +0.041 A 
ATOM      6  C   UNL     1      -0.762  -5.094   2.131  0.00  0.00    +0.028 A 
ATOM      7  C   UNL     1       0.073  -4.115   1.641  0.00  0.00    +0.017 A 
ATOM      8  C   UNL     1       1.378  -4.164   0.879  0.00  0.00    +0.189 C 
ATOM      9  C   UNL     1       1.732  -2.709   0.662  0.00  0.00    +0.258 C 
ATOM     10  O   UNL     1       2.710  -2.284   0.084  0.00  0.00    -0.272 OA
ATOM     11 CL   UNL     1      -2.975  -5.970   3.426  0.00  0.00    -0.084 Cl
ENDROOT
BRANCH   8  12
ATOM     12  C   UNL     1       1.188  -4.871  -0.465  0.00  0.00    +0.187 C 
ATOM     13  C   UNL     1       2.466  -4.839  -1.296  0.00  0.00    +0.255 C 
ATOM     14  O   UNL     1       3.506  -5.364  -0.952  0.00  0.00    -0.272 OA
ATOM     15  N   UNL     1       2.321  -4.186  -2.421  0.00  0.00    -0.159 NA
ATOM     16  C   UNL     1       1.197  -3.611  -2.807  0.00  0.00    +0.145 C 
ATOM     17  S   UNL     1       0.083  -3.911  -1.579  0.00  0.00    -0.077 S 
ATOM     18  N   UNL     1       0.982  -2.918  -3.962  0.00  0.00    -0.340 N 
ATOM     19  H   UNL     1       1.701  -2.808  -4.603  0.00  0.00    +0.144 HD
ATOM     20  H   UNL     1       0.108  -2.536  -4.142  0.00  0.00    +0.144 HD
ENDBRANCH   8  12
BRANCH   8  21
ATOM     21  O   UNL     1       2.385  -4.819   1.653  0.00  0.00    -0.373 OA
ATOM     22  H   UNL     1       2.567  -4.394   2.502  0.00  0.00    +0.211 HD
ENDBRANCH   8  21
BRANCH   1  23
ATOM     23  C   UNL     1       0.742  -0.511   1.242  0.00  0.00    +0.113 C 
BRANCH  23  25
ATOM     24  C   UNL     1      -0.019   1.526   0.010  0.00  0.00    +0.005 C 
ATOM     25  C   UNL     1       0.002  -0.004   0.002  0.00  0.00    +0.016 C 
ENDBRANCH  23  25
ENDBRANCH   1  23
TORSDOF 4
