REMARK  Name = ZINC59409175
REMARK  15 active torsions:
REMARK  status: ('A' for Active; 'I' for Inactive)
REMARK    1  A    between atoms: C_1  and  C_2
REMARK    2  A    between atoms: C_2  and  C_3
REMARK    3  A    between atoms: C_2  and  C_4
REMARK    4  A    between atoms: C_4  and  N_5
REMARK    5  A    between atoms: C_6  and  N_33
REMARK    6  A    between atoms: C_7  and  N_14
REMARK    7  A    between atoms: N_14  and  C_15
REMARK    8  A    between atoms: C_15  and  C_16
REMARK    9  A    between atoms: C_16  and  C_17
REMARK   10  A    between atoms: C_16  and  C_18
REMARK   11  A    between atoms: C_19  and  C_21
REMARK   12  A    between atoms: C_21  and  N_22
REMARK   13  A    between atoms: N_22  and  C_23
REMARK   14  A    between atoms: N_22  and  C_30
REMARK   15  A    between atoms: C_23  and  C_24
REMARK                            x       y       z     vdW  Elec       q    Type
REMARK                         _______ _______ _______ _____ _____    ______ ____
ROOT
ATOM      1  N   UNL     1      -1.653  -4.747  -2.302  0.00  0.00    -0.266 N 
ATOM      2  C   UNL     1      -1.488  -4.124  -3.488  0.00  0.00    +0.203 C 
ATOM      3  O   UNL     1      -1.346  -2.920  -3.526  0.00  0.00    -0.277 OA
ENDROOT
BRANCH   1   6
ATOM      4  N   UNL     1      -0.474  -3.580   0.976  0.00  0.00    -0.280 N 
ATOM      5  C   UNL     1      -0.554  -4.311  -0.186  0.00  0.00    +0.127 A 
ATOM      6  C   UNL     1      -1.545  -4.016  -1.100  0.00  0.00    +0.140 A 
ATOM      7  C   UNL     1      -2.447  -2.974  -0.813  0.00  0.00    +0.277 A 
ATOM      8  O   UNL     1      -3.332  -2.694  -1.602  0.00  0.00    -0.266 OA
ATOM      9  N   UNL     1      -2.325  -2.289   0.341  0.00  0.00    -0.273 N 
ATOM     10  H   UNL     1      -2.946  -1.571   0.540  0.00  0.00    +0.173 HD
ATOM     11  C   UNL     1      -1.356  -2.594   1.223  0.00  0.00    +0.331 A 
ATOM     12  O   UNL     1      -1.271  -1.963   2.259  0.00  0.00    -0.246 OA
BRANCH   5  13
ATOM     13  N   UNL     1       0.343  -5.321  -0.435  0.00  0.00    -0.343 N 
ATOM     14  H   UNL     1       1.070  -5.488   0.185  0.00  0.00    +0.144 HD
ATOM     15  H   UNL     1       0.250  -5.868  -1.231  0.00  0.00    +0.144 HD
ENDBRANCH   5  13
BRANCH   4  16
ATOM     16  C   UNL     1       0.573  -3.882   1.955  0.00  0.00    +0.131 C 
BRANCH  16  18
ATOM     17  C   UNL     1       1.194  -5.338   3.888  0.00  0.00    +0.009 C 
ATOM     18  C   UNL     1       0.061  -4.932   2.943  0.00  0.00    +0.003 C 
ATOM     19  C   UNL     1      -1.096  -4.346   3.756  0.00  0.00    +0.009 C 
ENDBRANCH  16  18
ENDBRANCH   4  16
ENDBRANCH   1   6
BRANCH   1  20
ATOM     20  C   UNL     1      -1.944  -6.183  -2.263  0.00  0.00    +0.117 C 
BRANCH  20  21
ATOM     21  C   UNL     1      -3.450  -6.403  -2.420  0.00  0.00    +0.001 C 
ATOM     22  C   UNL     1      -3.737  -7.901  -2.535  0.00  0.00    +0.009 C 
ATOM     23  C   UNL     1      -4.178  -5.836  -1.200  0.00  0.00    +0.009 C 
ENDBRANCH  20  21
ENDBRANCH   1  20
BRANCH   2  24
ATOM     24  C   UNL     1      -1.481  -4.924  -4.765  0.00  0.00    +0.019 C 
BRANCH  24  25
ATOM     25  N   UNL     1      -1.288  -4.021  -5.907  0.00  0.00    +0.387 N 
ATOM     26  H   UNL     1      -1.992  -3.300  -5.889  0.00  0.00    -0.081 HD
BRANCH  25  27
ATOM     27  C   UNL     1       0.044  -3.407  -5.826  0.00  0.00    -0.068 C 
ATOM     28  C   UNL     1       0.113  -1.895  -5.606  0.00  0.00    -0.017 C 
ATOM     29  C   UNL     1       0.469  -2.486  -6.971  0.00  0.00    -0.017 C 
ENDBRANCH  25  27
BRANCH  25  30
ATOM     30  C   UNL     1      -1.400  -4.783  -7.158  0.00  0.00    -0.074 C 
BRANCH  30  31
ATOM     31  C   UNL     1      -2.829  -5.308  -7.309  0.00  0.00    -0.028 C 
ATOM     32  C   UNL     1      -3.796  -4.128  -7.420  0.00  0.00    +0.002 C 
ATOM     33  C   UNL     1      -5.226  -4.653  -7.571  0.00  0.00    +0.000 C 
ATOM     34  C   UNL     1      -5.323  -5.512  -8.833  0.00  0.00    +0.000 C 
ATOM     35  C   UNL     1      -4.355  -6.692  -8.723  0.00  0.00    +0.000 C 
ATOM     36  C   UNL     1      -2.926  -6.167  -8.571  0.00  0.00    +0.002 C 
ENDBRANCH  30  31
ENDBRANCH  25  30
ENDBRANCH  24  25
ENDBRANCH   2  24
TORSDOF 11
