REMARK  Name = ZINC01146278
REMARK  5 active torsions:
REMARK  status: ('A' for Active; 'I' for Inactive)
REMARK    1  A    between atoms: C_1  and  N_2
REMARK    2  A    between atoms: C_11  and  C_24
REMARK    3  A    between atoms: C_27  and  O_30
REMARK    4  A    between atoms: O_30  and  C_31
REMARK    5  A    between atoms: C_31  and  C_33
REMARK                            x       y       z     vdW  Elec       q    Type
REMARK                         _______ _______ _______ _____ _____    ______ ____
ROOT
ATOM      1  C   UNL     1      -1.511   3.240   0.163  0.00  0.00    +0.155 C 
ATOM      2  N   UNL     1      -1.382   1.781   0.154  0.00  0.00    -0.284 N 
ATOM      3  C   UNL     1      -0.131   1.207   0.089  0.00  0.00    +0.116 A 
ATOM      4  C   UNL     1      -0.019  -0.149   0.077  0.00  0.00    +0.067 A 
ATOM      5  C   UNL     1      -1.192  -0.930   0.135  0.00  0.00    +0.260 A 
ATOM      6  O   UNL     1      -1.117  -2.147   0.130  0.00  0.00    -0.267 OA
ATOM      7  N   UNL     1      -2.394  -0.328   0.196  0.00  0.00    -0.275 N 
ATOM      8  H   UNL     1      -3.226  -0.882   0.237  0.00  0.00    +0.173 HD
ATOM      9  C   UNL     1      -2.485   1.014   0.201  0.00  0.00    +0.330 A 
ATOM     10  O   UNL     1      -3.580   1.541   0.254  0.00  0.00    -0.246 OA
ATOM     11  C   UNL     1       1.312  -0.852   0.004  0.00  0.00    +0.093 C 
ATOM     12  C   UNL     1       2.417   0.136   0.278  0.00  0.00    +0.034 C 
ATOM     13  C   UNL     1       2.212   1.492   0.282  0.00  0.00    +0.048 C 
ATOM     14  N   UNL     1       0.969   2.035   0.043  0.00  0.00    -0.299 N 
ATOM     15  C   UNL     1       3.481   2.167   0.574  0.00  0.00    +0.007 A 
ATOM     16  C   UNL     1       3.813   3.508   0.687  0.00  0.00    +0.010 A 
ATOM     17  C   UNL     1       5.145   3.808   0.981  0.00  0.00    +0.001 A 
ATOM     18  C   UNL     1       6.093   2.826   1.151  0.00  0.00    +0.001 A 
ATOM     19  C   UNL     1       5.775   1.469   1.040  0.00  0.00    +0.012 A 
ATOM     20  C   UNL     1       4.461   1.157   0.750  0.00  0.00    +0.031 A 
ATOM     21  C   UNL     1       3.774  -0.140   0.560  0.00  0.00    +0.193 C 
ATOM     22  O   UNL     1       4.283  -1.241   0.634  0.00  0.00    -0.287 OA
ATOM     23  H   UNL     1       0.871   2.980  -0.154  0.00  0.00    +0.154 HD
ENDROOT
BRANCH  11  24
ATOM     24  C   UNL     1       1.495  -1.441  -1.371  0.00  0.00    -0.035 A 
ATOM     25  C   UNL     1       1.484  -0.618  -2.482  0.00  0.00    +0.008 A 
ATOM     26  C   UNL     1       1.655  -1.156  -3.742  0.00  0.00    +0.046 A 
ATOM     27  C   UNL     1       1.828  -2.524  -3.894  0.00  0.00    +0.132 A 
ATOM     28  C   UNL     1       1.833  -3.348  -2.778  0.00  0.00    +0.046 A 
ATOM     29  C   UNL     1       1.667  -2.805  -1.519  0.00  0.00    +0.008 A 
BRANCH  27  30
ATOM     30  O   UNL     1       1.991  -3.056  -5.134  0.00  0.00    -0.422 OA
BRANCH  30  31
ATOM     31  C   UNL     1       0.986  -3.817  -5.610  0.00  0.00    +0.344 C 
ATOM     32  O   UNL     1      -0.050  -3.916  -4.984  0.00  0.00    -0.245 OA
BRANCH  31  33
ATOM     33  C   UNL     1       1.145  -4.531  -6.893  0.00  0.00    +0.059 A 
ATOM     34  C   UNL     1       2.333  -4.415  -7.618  0.00  0.00    +0.016 A 
ATOM     35  C   UNL     1       2.477  -5.089  -8.812  0.00  0.00    +0.021 A 
ATOM     36  C   UNL     1       1.442  -5.870  -9.299  0.00  0.00    +0.041 A 
ATOM     37  C   UNL     1       0.259  -5.985  -8.588  0.00  0.00    +0.021 A 
ATOM     38  C   UNL     1       0.105  -5.321  -7.389  0.00  0.00    +0.016 A 
ATOM     39 CL   UNL     1       1.629  -6.710 -10.807  0.00  0.00    -0.084 Cl
ENDBRANCH  31  33
ENDBRANCH  30  31
ENDBRANCH  27  30
ENDBRANCH  11  24
TORSDOF 4
