REMARK  Name = ZINC35228242
REMARK  10 active torsions:
REMARK  status: ('A' for Active; 'I' for Inactive)
REMARK    1  A    between atoms: C_1  and  C_2
REMARK    2  A    between atoms: C_3  and  C_18
REMARK    3  A    between atoms: C_4  and  C_11
REMARK    4  A    between atoms: N_9  and  C_10
REMARK    5  A    between atoms: C_14  and  N_17
REMARK    6  A    between atoms: C_18  and  O_20
REMARK    7  A    between atoms: O_20  and  C_21
REMARK    8  A    between atoms: C_21  and  C_22
REMARK    9  A    between atoms: C_22  and  C_23
REMARK   10  A    between atoms: C_22  and  C_24
REMARK                            x       y       z     vdW  Elec       q    Type
REMARK                         _______ _______ _______ _____ _____    ______ ____
ROOT
ATOM      1  C   UNL     1      -0.157   1.542  -0.337  0.00  0.00    +0.061 C 
ATOM      2  C   UNL     1      -0.164   0.036  -0.392  0.00  0.00    +0.024 C 
ATOM      3  C   UNL     1      -1.286  -0.636  -0.053  0.00  0.00    +0.078 C 
ATOM      4  C   UNL     1      -1.250  -2.149  -0.122  0.00  0.00    +0.143 C 
ATOM      5  N   UNL     1       0.015  -2.767  -0.555  0.00  0.00    -0.288 N 
ATOM      6  C   UNL     1       1.051  -1.962  -0.861  0.00  0.00    +0.307 C 
ATOM      7  O   UNL     1       2.099  -2.462  -1.219  0.00  0.00    -0.252 OA
ATOM      8  N   UNL     1       0.962  -0.628  -0.787  0.00  0.00    -0.262 N 
ATOM      9  C   UNL     1       2.141   0.165  -1.145  0.00  0.00    +0.139 C 
ATOM     10  H   UNL     1       0.100  -3.732  -0.619  0.00  0.00    +0.151 HD
ENDROOT
BRANCH   4  11
ATOM     11  C   UNL     1      -1.583  -2.685   1.246  0.00  0.00    -0.022 A 
ATOM     12  C   UNL     1      -0.651  -2.603   2.265  0.00  0.00    +0.007 A 
ATOM     13  C   UNL     1      -0.953  -3.092   3.520  0.00  0.00    +0.023 A 
ATOM     14  C   UNL     1      -2.195  -3.668   3.760  0.00  0.00    +0.025 A 
ATOM     15  C   UNL     1      -3.128  -3.748   2.734  0.00  0.00    +0.023 A 
ATOM     16  C   UNL     1      -2.822  -3.252   1.483  0.00  0.00    +0.007 A 
BRANCH  14  17
ATOM     17  N   UNL     1      -2.503  -4.164   5.028  0.00  0.00    -0.358 N 
ATOM     18  H   UNL     1      -1.851  -4.108   5.743  0.00  0.00    +0.142 HD
ATOM     19  H   UNL     1      -3.371  -4.566   5.194  0.00  0.00    +0.142 HD
ENDBRANCH  14  17
ENDBRANCH   4  11
BRANCH   3  20
ATOM     20  C   UNL     1      -2.455   0.050   0.352  0.00  0.00    +0.339 C 
ATOM     21  O   UNL     1      -3.421  -0.575   0.748  0.00  0.00    -0.245 OA
BRANCH  20  22
ATOM     22  O   UNL     1      -2.499   1.397   0.298  0.00  0.00    -0.461 OA
BRANCH  22  23
ATOM     23  C   UNL     1      -3.667   2.030   0.826  0.00  0.00    +0.235 C 
BRANCH  23  24
ATOM     24  C   UNL     1      -3.592   3.536   0.568  0.00  0.00    +0.020 C 
ATOM     25  C   UNL     1      -3.645   3.799  -0.938  0.00  0.00    +0.010 C 
ATOM     26  C   UNL     1      -4.775   4.229   1.248  0.00  0.00    +0.010 C 
ENDBRANCH  23  24
ENDBRANCH  22  23
ENDBRANCH  20  22
ENDBRANCH   3  20
TORSDOF 6
