REMARK  Name = ZINC20912076
REMARK  17 active torsions:
REMARK  status: ('A' for Active; 'I' for Inactive)
REMARK    1  A    between atoms: C_1  and  C_2
REMARK    2  A    between atoms: C_2  and  C_3
REMARK    3  A    between atoms: C_3  and  C_5
REMARK    4  A    between atoms: C_3  and  C_6
REMARK    5  A    between atoms: C_9  and  N_12
REMARK    6  A    between atoms: C_13  and  C_15
REMARK    7  A    between atoms: C_15  and  C_16
REMARK    8  A    between atoms: C_16  and  S_17
REMARK    9  A    between atoms: S_17  and  C_18
REMARK   10  A    between atoms: N_22  and  N_23
REMARK   11  A    between atoms: N_24  and  N_25
REMARK   12  A    between atoms: C_26  and  C_27
REMARK   13  A    between atoms: C_28  and  C_36
REMARK   14  A    between atoms: N_30  and  C_33
REMARK   15  A    between atoms: C_31  and  C_32
REMARK   16  A    between atoms: C_33  and  C_34
REMARK   17  A    between atoms: C_33  and  C_35
REMARK                            x       y       z     vdW  Elec       q    Type
REMARK                         _______ _______ _______ _____ _____    ______ ____
ROOT
ATOM      1  C   UNL     1       1.307  -0.409  -0.005  0.00  0.00    +0.210 A 
ATOM      2  N   UNL     1       2.063   0.662  -0.016  0.00  0.00    -0.119 NA
ATOM      3  N   UNL     1       1.224   1.784  -0.004  0.00  0.00    -0.109 NA
ATOM      4  C   UNL     1      -0.017   1.362   0.015  0.00  0.00    +0.254 A 
ATOM      5  N   UNL     1       0.002  -0.005   0.014  0.00  0.00    -0.211 N 
ATOM      6  N   UNL     1      -1.150   2.162   0.026  0.00  0.00    -0.204 N 
ATOM      7  H   UNL     1      -2.149   1.701   0.037  0.00  0.00    +0.177 HD
ENDROOT
BRANCH   5   8
ATOM      8  N   UNL     1      -1.092  -0.823   0.031  0.00  0.00    -0.294 N 
ATOM      9  H   UNL     1      -2.103  -0.389   0.046  0.00  0.00    +0.163 HD
ATOM     10  H   UNL     1      -0.962  -1.915   0.029  0.00  0.00    +0.163 HD
ENDBRANCH   5   8
BRANCH   6  11
ATOM     11  N   UNL     1      -1.023   3.558   0.025  0.00  0.00    -0.187 NA
ATOM     12  C   UNL     1      -2.083   4.306   0.036  0.00  0.00    +0.141 C 
BRANCH  12  13
ATOM     13  C   UNL     1      -1.949   5.776   0.035  0.00  0.00    +0.038 A 
ATOM     14  C   UNL     1      -0.741   6.506   0.023  0.00  0.00    +0.069 A 
ATOM     15  N   UNL     1      -1.035   7.778   0.025  0.00  0.00    -0.175 NA
ATOM     16  N   UNL     1      -2.427   7.920   0.040  0.00  0.00    -0.265 N 
ATOM     17  C   UNL     1      -2.980   6.690   0.041  0.00  0.00    +0.045 A 
ATOM     18  C   UNL     1      -4.453   6.374   0.049  0.00  0.00    +0.066 C 
ATOM     19  C   UNL     1       0.647   5.919   0.009  0.00  0.00    +0.068 C 
BRANCH  16  20
ATOM     20  C   UNL     1      -3.159   9.189   0.047  0.00  0.00    +0.101 C 
ATOM     21  C   UNL     1      -2.776   9.992   1.292  0.00  0.00    +0.032 C 
ATOM     22  C   UNL     1      -2.803   9.991  -1.206  0.00  0.00    +0.032 C 
ENDBRANCH  16  20
ENDBRANCH  12  13
ENDBRANCH   6  11
BRANCH   1  23
ATOM     23  S   UNL     1       1.874  -2.077  -0.014  0.00  0.00    -0.084 S 
BRANCH  23  24
ATOM     24  C   UNL     1       3.682  -1.926  -0.041  0.00  0.00    +0.086 C 
BRANCH  24  25
ATOM     25  C   UNL     1       4.310  -3.321  -0.050  0.00  0.00    +0.107 C 
BRANCH  25  27
ATOM     26  N   UNL     1       6.580  -4.302  -0.084  0.00  0.00    -0.285 N 
ATOM     27  C   UNL     1       5.811  -3.195  -0.072  0.00  0.00    +0.218 C 
ATOM     28  O   UNL     1       6.328  -2.098  -0.080  0.00  0.00    -0.275 OA
ATOM     29  H   UNL     1       6.115  -5.295  -0.001  0.00  0.00    +0.155 HD
BRANCH  26  33
ATOM     30  C   UNL     1      10.717  -3.961  -0.436  0.00  0.00    -0.044 A 
ATOM     31  C   UNL     1      10.005  -3.010   0.270  0.00  0.00    +0.006 A 
ATOM     32  C   UNL     1       8.633  -3.120   0.389  0.00  0.00    +0.023 A 
ATOM     33  C   UNL     1       7.970  -4.188  -0.202  0.00  0.00    +0.033 A 
ATOM     34  C   UNL     1       8.690  -5.144  -0.906  0.00  0.00    +0.023 A 
ATOM     35  C   UNL     1      10.060  -5.026  -1.025  0.00  0.00    +0.006 A 
BRANCH  30  36
ATOM     36  C   UNL     1      12.214  -3.838  -0.564  0.00  0.00    +0.016 C 
ATOM     37  C   UNL     1      12.593  -3.735  -2.042  0.00  0.00    +0.012 C 
BRANCH  36  39
ATOM     38  C   UNL     1      14.401  -4.890   0.033  0.00  0.00    +0.004 C 
ATOM     39  C   UNL     1      12.881  -5.071   0.049  0.00  0.00    +0.004 C 
ENDBRANCH  36  39
ENDBRANCH  30  36
ENDBRANCH  26  33
ENDBRANCH  25  27
ENDBRANCH  24  25
ENDBRANCH  23  24
ENDBRANCH   1  23
TORSDOF 11
