REMARK  Name = ZINC06135358
REMARK  10 active torsions:
REMARK  status: ('A' for Active; 'I' for Inactive)
REMARK    1  A    between atoms: C_1  and  C_2
REMARK    2  A    between atoms: C_2  and  C_3
REMARK    3  A    between atoms: C_10  and  C_15
REMARK    4  A    between atoms: C_15  and  C_17
REMARK    5  A    between atoms: C_15  and  N_76
REMARK    6  A    between atoms: N_21  and  C_22
REMARK    7  A    between atoms: C_22  and  C_23
REMARK    8  A    between atoms: N_31  and  C_34
REMARK    9  A    between atoms: C_38  and  C_41
REMARK   10  A    between atoms: C_39  and  C_40
REMARK                            x       y       z     vdW  Elec       q    Type
REMARK                         _______ _______ _______ _____ _____    ______ ____
ROOT
ATOM      1  C   UNL     1       2.905  -0.488   2.352  0.00  0.00    +0.039 C 
ENDROOT
BRANCH   1   9
ATOM      2  C   UNL     1       7.978   2.475   4.296  0.00  0.00    -0.047 A 
ATOM      3  C   UNL     1       8.711   2.311   3.128  0.00  0.00    +0.005 A 
ATOM      4  C   UNL     1       8.175   1.641   2.049  0.00  0.00    +0.026 A 
ATOM      5  C   UNL     1       6.887   1.123   2.129  0.00  0.00    +0.049 A 
ATOM      6  C   UNL     1       6.147   1.292   3.315  0.00  0.00    -0.001 A 
ATOM      7  C   UNL     1       6.711   1.975   4.397  0.00  0.00    +0.013 A 
ATOM      8  C   UNL     1       4.791   0.743   3.389  0.00  0.00    +0.017 A 
ATOM      9  C   UNL     1       4.297   0.089   2.309  0.00  0.00    +0.011 A 
ATOM     10  C   UNL     1       5.083  -0.058   1.146  0.00  0.00    +0.251 A 
ATOM     11  O   UNL     1       4.621  -0.653   0.188  0.00  0.00    -0.268 OA
ATOM     12  N   UNL     1       6.326   0.448   1.066  0.00  0.00    -0.322 N 
ATOM     13  H   UNL     1       6.852   0.332   0.224  0.00  0.00    +0.169 HD
BRANCH   2  15
ATOM     14  C   UNL     1       9.322   2.218   6.364  0.00  0.00    +0.009 C 
ATOM     15  C   UNL     1       8.586   3.211   5.462  0.00  0.00    +0.032 C 
ENDBRANCH   2  15
ENDBRANCH   1   9
BRANCH   1  21
ATOM     16  C   UNL     1       0.757  -0.508   1.234  0.00  0.00    -0.058 C 
ATOM     17  C   UNL     1       0.002  -0.004   0.002  0.00  0.00    +0.086 C 
ATOM     18  N   UNL     1      -0.018   1.465   0.010  0.00  0.00    -0.333 N 
ATOM     19  C   UNL     1       1.348   2.008   0.000  0.00  0.00    +0.086 C 
ATOM     20  C   UNL     1       2.103   1.504   1.232  0.00  0.00    -0.058 C 
ATOM     21  N   UNL     1       2.135   0.026   1.200  0.00  0.00    +0.391 N 
ATOM     22  H   UNL     1       2.590  -0.279   0.332  0.00  0.00    -0.080 HD
BRANCH  18  23
ATOM     23  C   UNL     1      -0.762   1.962  -1.063  0.00  0.00    +0.033 A 
ATOM     24  C   UNL     1      -0.384   1.667  -2.367  0.00  0.00    +0.023 A 
ATOM     25  C   UNL     1      -1.125   2.155  -3.425  0.00  0.00    +0.002 A 
ATOM     26  C   UNL     1      -2.235   2.946  -3.189  0.00  0.00    +0.004 A 
ATOM     27  C   UNL     1      -2.610   3.246  -1.892  0.00  0.00    -0.046 A 
ATOM     28  C   UNL     1      -1.877   2.756  -0.829  0.00  0.00    -0.027 A 
ATOM     29  C   UNL     1      -2.286   3.083   0.584  0.00  0.00    +0.046 C 
ATOM     30  C   UNL     1      -3.820   4.107  -1.639  0.00  0.00    +0.044 C 
ENDBRANCH  18  23
ENDBRANCH   1  21
BRANCH   1  31
ATOM     31  C   UNL     1       2.981  -1.990   2.259  0.00  0.00    +0.143 A 
ATOM     32  N   UNL     1       3.236  -2.695   1.183  0.00  0.00    -0.115 NA
ATOM     33  N   UNL     1       3.213  -3.941   1.510  0.00  0.00    -0.023 NA
ATOM     34  N   UNL     1       2.951  -4.049   2.766  0.00  0.00    -0.044 NA
ATOM     35  N   UNL     1       2.807  -2.868   3.264  0.00  0.00    -0.228 N 
BRANCH  35  36
ATOM     36  C   UNL     1       2.506  -2.543   4.660  0.00  0.00    +0.178 C 
BRANCH  36  37
ATOM     37  C   UNL     1       0.989  -2.483   4.855  0.00  0.00    +0.140 C 
ATOM     38  C   UNL     1       0.648  -2.194   6.338  0.00  0.00    +0.035 C 
ATOM     39  C   UNL     1      -0.760  -1.553   6.197  0.00  0.00    +0.031 C 
ATOM     40  C   UNL     1      -0.640  -0.790   4.861  0.00  0.00    +0.160 C 
ATOM     41  O   UNL     1       0.435  -1.380   4.120  0.00  0.00    -0.375 OA
ENDBRANCH  36  37
ENDBRANCH  35  36
ENDBRANCH   1  31
TORSDOF 7
