REMARK  Name = ZINC09494846
REMARK  6 active torsions:
REMARK  status: ('A' for Active; 'I' for Inactive)
REMARK    1  A    between atoms: C_1  and  C_2
REMARK    2  A    between atoms: C_2  and  C_3
REMARK    3  A    between atoms: C_2  and  C_4
REMARK    4  A    between atoms: C_4  and  C_5
REMARK    5  A    between atoms: N_9  and  C_13
REMARK    6  A    between atoms: C_14  and  C_26
REMARK                            x       y       z     vdW  Elec       q    Type
REMARK                         _______ _______ _______ _____ _____    ______ ____
ROOT
ATOM      1  C   UNL     1      -1.798   0.436   5.685  0.00  0.00    +0.118 A 
ATOM      2  C   UNL     1      -2.496  -0.674   6.126  0.00  0.00    +0.018 A 
ATOM      3  C   UNL     1      -3.329  -0.539   7.332  0.00  0.00    +0.009 A 
ATOM      4  C   UNL     1      -4.056  -1.623   7.829  0.00  0.00    +0.030 A 
ATOM      5  C   UNL     1      -4.827  -1.465   8.960  0.00  0.00    +0.042 A 
ATOM      6  C   UNL     1      -4.882  -0.236   9.606  0.00  0.00    +0.022 A 
ATOM      7  C   UNL     1      -4.169   0.841   9.127  0.00  0.00    +0.028 A 
ATOM      8  C   UNL     1      -3.385   0.703   7.986  0.00  0.00    +0.050 A 
ATOM      9  N   UNL     1      -2.664   1.772   7.493  0.00  0.00    -0.321 N 
ATOM     10  H   UNL     1      -2.708   2.626   7.951  0.00  0.00    +0.169 HD
ATOM     11  C   UNL     1      -1.897   1.655   6.396  0.00  0.00    +0.272 A 
ATOM     12  O   UNL     1      -1.274   2.625   6.000  0.00  0.00    -0.266 OA
ATOM     13 CL   UNL     1      -5.734  -2.808   9.582  0.00  0.00    -0.084 Cl
ENDROOT
BRANCH   1  17
ATOM     14  C   UNL     1       0.654  -0.180   3.052  0.00  0.00    +0.162 C 
ATOM     15  C   UNL     1       0.122  -0.398   4.455  0.00  0.00    +0.248 C 
ATOM     16  O   UNL     1       0.601  -1.101   5.319  0.00  0.00    -0.273 OA
ATOM     17  N   UNL     1      -0.994   0.353   4.542  0.00  0.00    -0.187 N 
ATOM     18  C   UNL     1      -1.238   1.007   3.401  0.00  0.00    +0.314 C 
ATOM     19  O   UNL     1      -2.188   1.747   3.237  0.00  0.00    -0.252 OA
ATOM     20  N   UNL     1      -0.314   0.754   2.452  0.00  0.00    -0.287 N 
ATOM     21  H   UNL     1      -0.289   1.115   1.552  0.00  0.00    +0.151 HD
BRANCH  14  22
ATOM     22  C   UNL     1       2.050   0.446   3.097  0.00  0.00    +0.035 C 
BRANCH  22  24
ATOM     23  C   UNL     1       2.789  -0.801   1.062  0.00  0.00    +0.007 C 
ATOM     24  C   UNL     1       2.591   0.588   1.673  0.00  0.00    -0.015 C 
ATOM     25  C   UNL     1       3.930   1.326   1.707  0.00  0.00    +0.007 C 
ENDBRANCH  22  24
ENDBRANCH  14  22
ENDBRANCH   1  17
BRANCH   2  26
ATOM     26  C   UNL     1      -2.406  -1.963   5.405  0.00  0.00    -0.015 A 
ATOM     27  C   UNL     1      -2.936  -2.085   4.120  0.00  0.00    +0.008 A 
ATOM     28  C   UNL     1      -2.845  -3.288   3.450  0.00  0.00    +0.001 A 
ATOM     29  C   UNL     1      -2.240  -4.375   4.055  0.00  0.00    +0.000 A 
ATOM     30  C   UNL     1      -1.717  -4.263   5.332  0.00  0.00    +0.001 A 
ATOM     31  C   UNL     1      -1.797  -3.064   6.009  0.00  0.00    +0.008 A 
ENDBRANCH   2  26
TORSDOF 4
