REMARK  Name = ZINC38684422
REMARK  14 active torsions:
REMARK  status: ('A' for Active; 'I' for Inactive)
REMARK    1  A    between atoms: C_1  and  C_2
REMARK    2  A    between atoms: C_2  and  C_3
REMARK    3  A    between atoms: C_3  and  O_4
REMARK    4  A    between atoms: O_4  and  C_5
REMARK    5  A    between atoms: C_9  and  C_11
REMARK    6  A    between atoms: C_16  and  O_25
REMARK    7  A    between atoms: C_20  and  N_24
REMARK    8  A    between atoms: C_21  and  C_22
REMARK    9  A    between atoms: O_25  and  C_26
REMARK   10  A    between atoms: C_26  and  C_28
REMARK   11  A    between atoms: C_28  and  O_29
REMARK   12  A    between atoms: O_29  and  C_30
REMARK   13  A    between atoms: C_33  and  O_36
REMARK   14  A    between atoms: O_36  and  C_37
REMARK                            x       y       z     vdW  Elec       q    Type
REMARK                         _______ _______ _______ _____ _____    ______ ____
ROOT
ATOM      1  C   UNL     1       2.200  -6.100   3.459  0.00  0.00    +0.098 C 
ATOM      2  C   UNL     1       1.499  -6.573   4.705  0.00  0.00    +0.008 A 
ATOM      3  C   UNL     1       0.119  -6.496   4.780  0.00  0.00    +0.012 A 
ATOM      4  C   UNL     1      -0.541  -6.925   5.914  0.00  0.00    +0.047 A 
ATOM      5  C   UNL     1       0.180  -7.437   6.984  0.00  0.00    +0.135 A 
ATOM      6  C   UNL     1       1.561  -7.516   6.912  0.00  0.00    +0.093 A 
ATOM      7  C   UNL     1       2.224  -7.083   5.771  0.00  0.00    +0.138 A 
ATOM      8  O   UNL     1       3.576  -7.168   5.715  0.00  0.00    -0.441 OA
ATOM      9  C   UNL     1       4.201  -7.131   4.527  0.00  0.00    +0.199 C 
ATOM     10  C   UNL     1       3.604  -6.636   3.421  0.00  0.00    +0.098 C 
ENDROOT
BRANCH   1  15
ATOM     11  C   UNL     1       1.675  -2.505   2.419  0.00  0.00    +0.121 A 
ATOM     12  C   UNL     1       2.320  -1.826   3.443  0.00  0.00    +0.045 A 
ATOM     13  C   UNL     1       2.922  -2.532   4.467  0.00  0.00    +0.004 A 
ATOM     14  C   UNL     1       2.882  -3.914   4.471  0.00  0.00    +0.005 A 
ATOM     15  C   UNL     1       2.241  -4.593   3.452  0.00  0.00    -0.031 A 
ATOM     16  C   UNL     1       1.632  -3.892   2.429  0.00  0.00    +0.050 A 
BRANCH  11  17
ATOM     17  O   UNL     1       1.082  -1.813   1.411  0.00  0.00    -0.492 OA
BRANCH  17  18
ATOM     18  C   UNL     1       1.165  -0.387   1.467  0.00  0.00    +0.229 C 
BRANCH  18  20
ATOM     19  C   UNL     1       0.535   1.739   0.317  0.00  0.00    +0.007 C 
ATOM     20  C   UNL     1       0.445   0.213   0.258  0.00  0.00    +0.038 C 
ENDBRANCH  18  20
ENDBRANCH  17  18
ENDBRANCH  11  17
ENDBRANCH   1  15
BRANCH   9  21
ATOM     21  N   UNL     1       5.485  -7.608   4.435  0.00  0.00    -0.328 N 
ATOM     22  H   UNL     1       5.927  -7.965   5.221  0.00  0.00    +0.145 HD
ATOM     23  H   UNL     1       5.950  -7.588   3.584  0.00  0.00    +0.145 HD
ENDBRANCH   9  21
BRANCH  10  24
ATOM     24  C   UNL     1       4.326  -6.624   2.185  0.00  0.00    +0.101 C 
ATOM     25  N   UNL     1       4.899  -6.615   1.204  0.00  0.00    -0.191 NA
ENDBRANCH  10  24
BRANCH   5  26
ATOM     26  O   UNL     1      -0.469  -7.860   8.102  0.00  0.00    -0.423 OA
BRANCH  26  27
ATOM     27  C   UNL     1      -0.320  -7.142   9.226  0.00  0.00    +0.350 C 
ATOM     28  O   UNL     1       0.288  -6.098   9.201  0.00  0.00    -0.247 OA
BRANCH  27  29
ATOM     29  C   UNL     1      -0.911  -7.639  10.521  0.00  0.00    +0.349 C 
BRANCH  29  30
ATOM     30  O   UNL     1      -0.620  -6.708  11.565  0.00  0.00    -0.481 OA
BRANCH  30  31
ATOM     31  C   UNL     1      -1.086  -7.008  12.807  0.00  0.00    +0.122 A 
ATOM     32  C   UNL     1      -1.802  -8.178  13.015  0.00  0.00    +0.049 A 
ATOM     33  C   UNL     1      -2.274  -8.483  14.277  0.00  0.00    +0.049 A 
ATOM     34  C   UNL     1      -2.033  -7.620  15.335  0.00  0.00    +0.120 A 
ATOM     35  C   UNL     1      -1.316  -6.451  15.127  0.00  0.00    +0.049 A 
ATOM     36  C   UNL     1      -0.840  -6.148  13.867  0.00  0.00    +0.049 A 
BRANCH  34  37
ATOM     37  O   UNL     1      -2.499  -7.920  16.577  0.00  0.00    -0.495 OA
ATOM     38  C   UNL     1      -2.213  -6.986  17.620  0.00  0.00    +0.277 C 
ENDBRANCH  34  37
ENDBRANCH  30  31
ENDBRANCH  29  30
ENDBRANCH  27  29
ENDBRANCH  26  27
ENDBRANCH   5  26
TORSDOF 12
