REMARK  Name = ZINC63385576
REMARK  10 active torsions:
REMARK  status: ('A' for Active; 'I' for Inactive)
REMARK    1  A    between atoms: C_1  and  C_2
REMARK    2  A    between atoms: C_2  and  C_3
REMARK    3  A    between atoms: C_2  and  C_4
REMARK    4  A    between atoms: C_4  and  C_6
REMARK    5  A    between atoms: C_4  and  N_22
REMARK    6  A    between atoms: N_8  and  C_9
REMARK    7  A    between atoms: C_9  and  C_10
REMARK    8  A    between atoms: C_10  and  C_11
REMARK    9  A    between atoms: C_14  and  O_20
REMARK   10  A    between atoms: O_20  and  C_21
REMARK                            x       y       z     vdW  Elec       q    Type
REMARK                         _______ _______ _______ _____ _____    ______ ____
ROOT
ATOM      1  C   UNL     1      -1.563  -1.900   0.114  0.00  0.00    +0.235 C 
ATOM      2  O   UNL     1      -2.055  -2.516  -0.807  0.00  0.00    -0.274 OA
ATOM      3  N   UNL     1      -1.117  -2.558   1.203  0.00  0.00    -0.313 N 
ATOM      4  H   UNL     1      -0.661  -2.075   1.909  0.00  0.00    +0.149 HD
ENDROOT
BRANCH   1   5
ATOM      5  C   UNL     1      -1.449  -0.399   0.042  0.00  0.00    +0.183 C 
BRANCH   5   6
ATOM      6  N   UNL     1      -2.468   0.125  -0.870  0.00  0.00    -0.205 N 
ATOM      7  C   UNL     1      -3.386   1.001  -0.401  0.00  0.00    +0.264 C 
ATOM      8  O   UNL     1      -3.322   1.432   0.735  0.00  0.00    -0.269 OA
ATOM      9  C   UNL     1      -4.467   1.415  -1.317  0.00  0.00    +0.060 A 
ATOM     10  C   UNL     1      -5.319   2.478  -1.048  0.00  0.00    +0.015 A 
ATOM     11  C   UNL     1      -6.307   2.797  -1.959  0.00  0.00    +0.001 A 
ATOM     12  C   UNL     1      -6.450   2.067  -3.128  0.00  0.00    +0.002 A 
ATOM     13  C   UNL     1      -5.606   1.007  -3.407  0.00  0.00    +0.025 A 
ATOM     14  C   UNL     1      -4.611   0.676  -2.507  0.00  0.00    +0.055 A 
ATOM     15  N   UNL     1      -3.718  -0.368  -2.715  0.00  0.00    -0.264 N 
ATOM     16  N   UNL     1      -2.464  -0.279  -2.170  0.00  0.00    -0.157 NA
ATOM     17  H   UNL     1      -3.977  -1.143  -3.239  0.00  0.00    +0.168 HD
ATOM     18  H   UNL     1      -1.864   0.309  -2.729  0.00  0.00    +0.168 HD
ENDBRANCH   5   6
BRANCH   5  20
ATOM     19  C   UNL     1       0.011   1.498  -0.671  0.00  0.00    +0.009 C 
ATOM     20  C   UNL     1      -0.060  -0.017  -0.471  0.00  0.00    +0.014 C 
ATOM     21  C   UNL     1       0.997  -0.447   0.548  0.00  0.00    +0.009 C 
ENDBRANCH   5  20
ENDBRANCH   1   5
BRANCH   3  22
ATOM     22  C   UNL     1      -1.323  -4.004   1.320  0.00  0.00    +0.108 C 
BRANCH  22  23
ATOM     23  C   UNL     1      -0.727  -4.499   2.639  0.00  0.00    +0.052 C 
BRANCH  23  24
ATOM     24  C   UNL     1      -0.939  -5.986   2.759  0.00  0.00    -0.040 C 
ATOM     25  C   UNL     1      -0.065  -6.961   2.422  0.00  0.00    +0.002 A 
ATOM     26  C   UNL     1       1.291  -6.933   1.864  0.00  0.00    +0.055 A 
ATOM     27  C   UNL     1       1.938  -8.099   1.623  0.00  0.00    +0.121 A 
ATOM     28  C   UNL     1       1.355  -9.350   1.891  0.00  0.00    +0.047 A 
ATOM     29  C   UNL     1       0.113  -9.478   2.404  0.00  0.00    +0.029 A 
ATOM     30  C   UNL     1      -0.678  -8.280   2.704  0.00  0.00    +0.043 A 
ATOM     31  N   UNL     1      -1.882  -8.126   3.195  0.00  0.00    -0.380 N 
ATOM     32  C   UNL     1      -2.169  -6.690   3.288  0.00  0.00    +0.144 C 
ATOM     33  H   UNL     1      -2.483  -8.841   3.457  0.00  0.00    +0.160 HD
BRANCH  27  34
ATOM     34  O   UNL     1       3.194  -8.057   1.105  0.00  0.00    -0.495 OA
ATOM     35  C   UNL     1       3.840  -9.310   0.868  0.00  0.00    +0.277 C 
ENDBRANCH  27  34
ENDBRANCH  23  24
ENDBRANCH  22  23
ENDBRANCH   3  22
TORSDOF 7
