REMARK  Name = ZINC01645398
REMARK  12 active torsions:
REMARK  status: ('A' for Active; 'I' for Inactive)
REMARK    1  A    between atoms: C_1  and  C_2
REMARK    2  A    between atoms: C_2  and  C_3
REMARK    3  A    between atoms: C_3  and  C_4
REMARK    4  A    between atoms: N_6  and  C_7
REMARK    5  A    between atoms: C_7  and  C_8
REMARK    6  A    between atoms: C_7  and  C_12
REMARK    7  A    between atoms: C_7  and  N_16
REMARK    8  A    between atoms: N_16  and  C_17
REMARK    9  A    between atoms: C_20  and  S_23
REMARK   10  A    between atoms: S_23  and  N_26
REMARK   11  A    between atoms: C_30  and  O_33
REMARK   12  A    between atoms: O_33  and  C_34
REMARK                            x       y       z     vdW  Elec       q    Type
REMARK                         _______ _______ _______ _____ _____    ______ ____
ROOT
ATOM      1  C   UNL     1      -1.266   1.733   0.080  0.00  0.00    +0.029 A 
ATOM      2  C   UNL     1      -1.358   3.111  -0.067  0.00  0.00    +0.025 A 
ATOM      3  C   UNL     1      -2.596   3.722  -0.079  0.00  0.00    +0.030 A 
ATOM      4  C   UNL     1      -3.744   2.965   0.066  0.00  0.00    +0.109 A 
ATOM      5  C   UNL     1      -3.657   1.593   0.217  0.00  0.00    +0.030 A 
ATOM      6  C   UNL     1      -2.422   0.975   0.225  0.00  0.00    +0.025 A 
ENDROOT
BRANCH   4   7
ATOM      7  S   UNL     1      -5.322   3.749   0.057  0.00  0.00    +0.074 S 
ATOM      8  O   UNL     1      -5.162   4.974  -0.645  0.00  0.00    -0.150 OA
ATOM      9  O   UNL     1      -6.264   2.762  -0.337  0.00  0.00    -0.150 OA
BRANCH   7  10
ATOM     10  N   UNL     1      -5.680   4.146   1.625  0.00  0.00    -0.198 N 
ATOM     11  C   UNL     1      -4.903   5.084   2.300  0.00  0.00    +0.160 A 
ATOM     12  C   UNL     1      -5.206   5.424   3.620  0.00  0.00    +0.052 A 
ATOM     13  C   UNL     1      -4.401   6.357   4.250  0.00  0.00    +0.072 A 
ATOM     14  C   UNL     1      -3.345   6.907   3.525  0.00  0.00    +0.234 A 
ATOM     15  N   UNL     1      -3.137   6.528   2.277  0.00  0.00    -0.110 NA
ATOM     16  N   UNL     1      -3.878   5.659   1.692  0.00  0.00    -0.129 NA
ATOM     17  H   UNL     1      -6.430   3.725   2.072  0.00  0.00    +0.175 HD
BRANCH  14  18
ATOM     18  O   UNL     1      -2.533   7.830   4.101  0.00  0.00    -0.479 OA
ATOM     19  C   UNL     1      -1.471   8.350   3.299  0.00  0.00    +0.279 C 
ENDBRANCH  14  18
ENDBRANCH   7  10
ENDBRANCH   4   7
BRANCH   1  20
ATOM     20  N   UNL     1      -0.016   1.111   0.087  0.00  0.00    -0.309 N 
ATOM     21  H   UNL     1       0.044   0.143   0.098  0.00  0.00    +0.149 HD
BRANCH  20  22
ATOM     22  C   UNL     1       1.205   1.921   0.072  0.00  0.00    +0.293 C 
BRANCH  22  25
ATOM     23  C   UNL     1       0.665   2.613  -2.201  0.00  0.00    +0.215 C 
ATOM     24  O   UNL     1       0.276   1.486  -2.422  0.00  0.00    -0.276 OA
ATOM     25  N   UNL     1       1.098   2.946  -0.969  0.00  0.00    -0.280 N 
ATOM     26  H   UNL     1       1.339   3.865  -0.771  0.00  0.00    +0.151 HD
BRANCH  23  27
ATOM     27  C   UNL     1       0.666   3.641  -3.303  0.00  0.00    +0.095 C 
BRANCH  27  29
ATOM     28  C   UNL     1       0.131   4.053  -5.708  0.00  0.00    +0.004 C 
ATOM     29  C   UNL     1       0.131   3.009  -4.589  0.00  0.00    +0.006 C 
ENDBRANCH  27  29
ENDBRANCH  23  27
ENDBRANCH  22  25
BRANCH  22  30
ATOM     30  C   UNL     1       1.387   2.594   1.434  0.00  0.00    +0.436 C 
ATOM     31  F   UNL     1       1.376   1.621   2.440  0.00  0.00    -0.166 F 
ATOM     32  F   UNL     1       2.608   3.275   1.458  0.00  0.00    -0.166 F 
ATOM     33  F   UNL     1       0.343   3.500   1.650  0.00  0.00    -0.166 F 
ENDBRANCH  22  30
BRANCH  22  34
ATOM     34  C   UNL     1       2.409   1.023  -0.218  0.00  0.00    +0.436 C 
ATOM     35  F   UNL     1       2.294   0.489  -1.506  0.00  0.00    -0.166 F 
ATOM     36  F   UNL     1       3.585   1.776  -0.129  0.00  0.00    -0.166 F 
ATOM     37  F   UNL     1       2.450  -0.018   0.716  0.00  0.00    -0.166 F 
ENDBRANCH  22  34
ENDBRANCH  20  22
ENDBRANCH   1  20
TORSDOF 10
