REMARK  Name = ZINC34968990
REMARK  11 active torsions:
REMARK  status: ('A' for Active; 'I' for Inactive)
REMARK    1  A    between atoms: C_1  and  C_2
REMARK    2  A    between atoms: C_2  and  C_3
REMARK    3  A    between atoms: C_3  and  C_5
REMARK    4  A    between atoms: C_3  and  C_6
REMARK    5  A    between atoms: C_6  and  C_8
REMARK    6  A    between atoms: C_6  and  N_19
REMARK    7  A    between atoms: N_10  and  C_11
REMARK    8  A    between atoms: C_11  and  C_12
REMARK    9  A    between atoms: C_12  and  C_13
REMARK   10  A    between atoms: N_22  and  C_23
REMARK   11  A    between atoms: C_28  and  C_29
REMARK                            x       y       z     vdW  Elec       q    Type
REMARK                         _______ _______ _______ _____ _____    ______ ____
ROOT
ATOM      1  C   UNL     1      -1.930  -0.208   1.625  0.00  0.00    +0.163 C 
ENDROOT
BRANCH   1   2
ATOM      2  N   UNL     1      -3.065  -1.135   1.632  0.00  0.00    -0.288 N 
ATOM      3  C   UNL     1      -2.867  -2.440   1.901  0.00  0.00    +0.304 C 
ATOM      4  O   UNL     1      -1.747  -2.850   2.137  0.00  0.00    -0.252 OA
ATOM      5  N   UNL     1      -3.912  -3.293   1.908  0.00  0.00    -0.269 N 
ATOM      6  H   UNL     1      -3.959  -0.808   1.444  0.00  0.00    +0.151 HD
ATOM      7  H   UNL     1      -4.793  -2.982   1.649  0.00  0.00    +0.156 HD
BRANCH   5   8
ATOM      8  C   UNL     1      -3.724  -4.626   2.289  0.00  0.00    +0.046 A 
ATOM      9  C   UNL     1      -2.770  -4.949   3.246  0.00  0.00    +0.024 A 
ATOM     10  C   UNL     1      -2.588  -6.266   3.620  0.00  0.00    +0.002 A 
ATOM     11  C   UNL     1      -3.353  -7.262   3.043  0.00  0.00    +0.001 A 
ATOM     12  C   UNL     1      -4.303  -6.944   2.090  0.00  0.00    +0.014 A 
ATOM     13  C   UNL     1      -4.495  -5.628   1.716  0.00  0.00    +0.076 A 
BRANCH  13  14
ATOM     14  C   UNL     1      -5.535  -5.282   0.682  0.00  0.00    +0.419 C 
ATOM     15  F   UNL     1      -6.176  -6.450   0.256  0.00  0.00    -0.166 F 
ATOM     16  F   UNL     1      -6.476  -4.410   1.240  0.00  0.00    -0.166 F 
ATOM     17  F   UNL     1      -4.918  -4.664  -0.411  0.00  0.00    -0.166 F 
ENDBRANCH  13  14
ENDBRANCH   5   8
ENDBRANCH   1   2
BRANCH   1  18
ATOM     18  C   UNL     1      -2.419   1.188   1.915  0.00  0.00    +0.234 C 
ATOM     19  O   UNL     1      -3.609   1.413   1.975  0.00  0.00    -0.274 OA
ATOM     20  N   UNL     1      -1.534   2.185   2.107  0.00  0.00    -0.313 N 
ATOM     21  H   UNL     1      -0.585   2.022   1.987  0.00  0.00    +0.149 HD
BRANCH  20  22
ATOM     22  C   UNL     1      -2.004   3.517   2.497  0.00  0.00    +0.109 C 
BRANCH  22  23
ATOM     23  C   UNL     1      -0.806   4.457   2.648  0.00  0.00    +0.054 C 
BRANCH  23  24
ATOM     24  C   UNL     1      -1.290   5.826   3.049  0.00  0.00    -0.046 A 
ATOM     25  C   UNL     1      -1.610   6.758   2.079  0.00  0.00    +0.004 A 
ATOM     26  C   UNL     1      -2.054   8.014   2.447  0.00  0.00    +0.000 A 
ATOM     27  C   UNL     1      -2.177   8.339   3.784  0.00  0.00    +0.000 A 
ATOM     28  C   UNL     1      -1.858   7.408   4.755  0.00  0.00    +0.000 A 
ATOM     29  C   UNL     1      -1.418   6.150   4.387  0.00  0.00    +0.004 A 
ENDBRANCH  23  24
ENDBRANCH  22  23
ENDBRANCH  20  22
ENDBRANCH   1  18
BRANCH   1  30
ATOM     30  C   UNL     1      -1.257  -0.238   0.251  0.00  0.00    +0.015 C 
ATOM     31  C   UNL     1      -2.303   0.022  -0.835  0.00  0.00    +0.010 C 
BRANCH  30  33
ATOM     32  C   UNL     1       0.504  -1.823   1.044  0.00  0.00    +0.004 C 
ATOM     33  C   UNL     1      -0.618  -1.610   0.026  0.00  0.00    +0.002 C 
ENDBRANCH  30  33
ENDBRANCH   1  30
TORSDOF 9
