REMARK  Name = ZINC40475763
REMARK  13 active torsions:
REMARK  status: ('A' for Active; 'I' for Inactive)
REMARK    1  A    between atoms: C_1  and  C_2
REMARK    2  A    between atoms: C_2  and  O_3
REMARK    3  A    between atoms: O_3  and  C_4
REMARK    4  A    between atoms: C_6  and  C_11
REMARK    5  A    between atoms: C_9  and  O_10
REMARK    6  A    between atoms: C_20  and  C_29
REMARK    7  A    between atoms: C_22  and  C_24
REMARK    8  A    between atoms: C_24  and  O_26
REMARK    9  A    between atoms: O_26  and  C_27
REMARK   10  A    between atoms: C_27  and  C_28
REMARK   11  A    between atoms: C_29  and  O_31
REMARK   12  A    between atoms: O_31  and  C_32
REMARK   13  A    between atoms: C_32  and  C_33
REMARK                            x       y       z     vdW  Elec       q    Type
REMARK                         _______ _______ _______ _____ _____    ______ ____
ROOT
ATOM      1  C   UNL     1       0.377  -4.284   0.933  0.00  0.00    +0.074 C 
ATOM      2  C   UNL     1      -0.336  -4.200  -0.370  0.00  0.00    +0.032 A 
ATOM      3  C   UNL     1      -0.387  -5.109  -1.385  0.00  0.00    +0.110 A 
ATOM      4  N   UNL     1      -1.111  -4.735  -2.439  0.00  0.00    -0.225 NA
ATOM      5  C   UNL     1      -1.731  -3.575  -2.480  0.00  0.00    +0.147 A 
ATOM      6  S   UNL     1      -2.728  -2.912  -3.772  0.00  0.00    -0.023 SA
ATOM      7  S   UNL     1      -1.342  -2.878  -0.997  0.00  0.00    -0.063 S 
ATOM      8  S   UNL     1       0.469  -6.663  -1.251  0.00  0.00    -0.089 S 
ATOM      9  C   UNL     1       1.548  -6.372   0.186  0.00  0.00    +0.176 C 
ATOM     10  C   UNL     1       0.709  -5.730   1.296  0.00  0.00    +0.134 C 
ENDROOT
BRANCH   1  13
ATOM     11  C   UNL     1      -0.750  -2.289   3.938  0.00  0.00    +0.162 A 
ATOM     12  C   UNL     1       0.051  -2.833   2.946  0.00  0.00    +0.053 A 
ATOM     13  C   UNL     1      -0.495  -3.693   2.011  0.00  0.00    -0.035 A 
ATOM     14  C   UNL     1      -1.840  -4.011   2.061  0.00  0.00    +0.008 A 
ATOM     15  C   UNL     1      -2.644  -3.471   3.048  0.00  0.00    +0.049 A 
ATOM     16  C   UNL     1      -2.102  -2.614   3.992  0.00  0.00    +0.158 A 
BRANCH  16  17
ATOM     17  O   UNL     1      -2.891  -2.087   4.966  0.00  0.00    -0.503 OA
ATOM     18  H   UNL     1      -3.305  -1.247   4.726  0.00  0.00    +0.292 HD
ENDBRANCH  16  17
BRANCH  11  19
ATOM     19  O   UNL     1      -0.215  -1.444   4.859  0.00  0.00    -0.489 OA
BRANCH  19  21
ATOM     20  C   UNL     1       1.598  -0.196   5.856  0.00  0.00    +0.048 C 
ATOM     21  C   UNL     1       1.180  -1.156   4.741  0.00  0.00    +0.226 C 
ENDBRANCH  19  21
ENDBRANCH  11  19
ENDBRANCH   1  13
BRANCH  10  22
ATOM     22  C   UNL     1      -0.571  -6.507   1.472  0.00  0.00    +0.313 C 
ATOM     23  O   UNL     1      -1.397  -6.517   0.590  0.00  0.00    -0.250 OA
BRANCH  22  24
ATOM     24  O   UNL     1      -0.792  -7.188   2.607  0.00  0.00    -0.465 OA
BRANCH  24  25
ATOM     25  C   UNL     1      -2.026  -7.902   2.705  0.00  0.00    +0.229 C 
ATOM     26  C   UNL     1      -2.099  -8.611   4.059  0.00  0.00    +0.048 C 
ENDBRANCH  24  25
ENDBRANCH  22  24
ENDBRANCH  10  22
BRANCH   9  27
ATOM     27  C   UNL     1       2.112  -7.683   0.670  0.00  0.00    +0.321 C 
ATOM     28  O   UNL     1       1.477  -8.370   1.434  0.00  0.00    -0.250 OA
BRANCH  27  29
ATOM     29  O   UNL     1       3.322  -8.088   0.251  0.00  0.00    -0.464 OA
BRANCH  29  30
ATOM     30  C   UNL     1       3.795  -9.341   0.750  0.00  0.00    +0.229 C 
ATOM     31  C   UNL     1       5.179  -9.632   0.166  0.00  0.00    +0.048 C 
ENDBRANCH  29  30
ENDBRANCH  27  29
ENDBRANCH   9  27
TORSDOF 10
