REMARK  Name = ZINC39835785
REMARK  13 active torsions:
REMARK  status: ('A' for Active; 'I' for Inactive)
REMARK    1  A    between atoms: C_1  and  C_2
REMARK    2  A    between atoms: C_2  and  C_3
REMARK    3  A    between atoms: C_3  and  C_4
REMARK    4  A    between atoms: C_4  and  C_5
REMARK    5  A    between atoms: C_5  and  C_7
REMARK    6  A    between atoms: C_5  and  C_9
REMARK    7  A    between atoms: C_7  and  C_8
REMARK    8  A    between atoms: C_9  and  N_10
REMARK    9  A    between atoms: C_14  and  C_15
REMARK   10  A    between atoms: C_16  and  O_26
REMARK   11  A    between atoms: O_26  and  C_27
REMARK   12  A    between atoms: C_31  and  C_34
REMARK   13  A    between atoms: C_32  and  C_33
REMARK                            x       y       z     vdW  Elec       q    Type
REMARK                         _______ _______ _______ _____ _____    ______ ____
ROOT
ATOM      1  C   UNL     1       6.590  -4.828   3.997  0.00  0.00    +0.103 A 
ATOM      2  C   UNL     1       6.408  -4.917   2.599  0.00  0.00    +0.235 A 
ATOM      3  N   UNL     1       7.369  -4.506   1.787  0.00  0.00    -0.194 NA
ATOM      4  C   UNL     1       8.514  -4.007   2.254  0.00  0.00    +0.144 A 
ATOM      5  C   UNL     1       9.499  -3.586   1.342  0.00  0.00    +0.047 A 
ATOM      6  C   UNL     1      10.673  -3.075   1.810  0.00  0.00    +0.005 A 
ATOM      7  C   UNL     1      10.882  -2.975   3.192  0.00  0.00    +0.018 A 
ATOM      8  C   UNL     1       9.923  -3.384   4.054  0.00  0.00    +0.096 A 
ATOM      9  N   UNL     1       8.746  -3.896   3.596  0.00  0.00    -0.268 N 
ATOM     10  C   UNL     1       7.808  -4.291   4.483  0.00  0.00    +0.269 A 
ATOM     11  O   UNL     1       8.006  -4.192   5.682  0.00  0.00    -0.266 OA
ENDROOT
BRANCH   1  16
ATOM     12  N   UNL     1       2.587  -3.285   4.136  0.00  0.00    -0.255 N 
ATOM     13  C   UNL     1       3.858  -3.630   4.025  0.00  0.00    +0.258 C 
ATOM     14  O   UNL     1       4.604  -3.038   3.266  0.00  0.00    -0.269 OA
ATOM     15  C   UNL     1       4.331  -4.715   4.819  0.00  0.00    +0.077 C 
ATOM     16  C   UNL     1       5.580  -5.259   4.889  0.00  0.00    +0.039 C 
ATOM     17  S   UNL     1       2.842  -5.168   5.698  0.00  0.00    -0.061 S 
ATOM     18  C   UNL     1       1.761  -3.940   4.983  0.00  0.00    +0.121 C 
ATOM     19  S   UNL     1       0.099  -3.663   5.290  0.00  0.00    -0.027 S 
BRANCH  12  20
ATOM     20  C   UNL     1       2.067  -2.174   3.335  0.00  0.00    +0.118 C 
BRANCH  20  21
ATOM     21  C   UNL     1       2.099  -0.889   4.164  0.00  0.00    +0.007 C 
BRANCH  21  22
ATOM     22  C   UNL     1       1.489   0.256   3.354  0.00  0.00    +0.002 C 
ATOM     23  C   UNL     1       0.004  -0.023   3.116  0.00  0.00    +0.004 C 
ENDBRANCH  21  22
BRANCH  21  24
ATOM     24  C   UNL     1       3.548  -0.547   4.519  0.00  0.00    +0.005 C 
BRANCH  24  25
ATOM     25  C   UNL     1       3.572   0.666   5.451  0.00  0.00    +0.000 C 
BRANCH  25  27
ATOM     26  C   UNL     1       5.045   2.221   6.737  0.00  0.00    +0.004 C 
ATOM     27  C   UNL     1       5.021   1.008   5.806  0.00  0.00    -0.003 C 
ENDBRANCH  25  27
ENDBRANCH  24  25
ENDBRANCH  21  24
ENDBRANCH  20  21
ENDBRANCH  12  20
ENDBRANCH   1  16
BRANCH   2  28
ATOM     28  O   UNL     1       5.258  -5.419   2.094  0.00  0.00    -0.437 OA
BRANCH  28  29
ATOM     29  C   UNL     1       5.172  -5.585   0.748  0.00  0.00    +0.134 A 
ATOM     30  C   UNL     1       4.611  -4.590  -0.041  0.00  0.00    +0.046 A 
ATOM     31  C   UNL     1       4.524  -4.761  -1.408  0.00  0.00    +0.004 A 
ATOM     32  C   UNL     1       4.996  -5.922  -1.992  0.00  0.00    +0.004 A 
ATOM     33  C   UNL     1       5.555  -6.915  -1.209  0.00  0.00    -0.044 A 
ATOM     34  C   UNL     1       5.649  -6.746   0.159  0.00  0.00    -0.005 A 
ATOM     35  C   UNL     1       6.265  -7.826   1.011  0.00  0.00    +0.048 C 
ATOM     36  C   UNL     1       6.068  -8.180  -1.849  0.00  0.00    +0.044 C 
ENDBRANCH  28  29
ENDBRANCH   2  28
TORSDOF 9
