REMARK  Name = ZINC60361380
REMARK  7 active torsions:
REMARK  status: ('A' for Active; 'I' for Inactive)
REMARK    1  A    between atoms: C_1  and  C_2
REMARK    2  A    between atoms: C_2  and  C_28
REMARK    3  A    between atoms: N_5  and  N_9
REMARK    4  A    between atoms: C_10  and  C_12
REMARK    5  A    between atoms: C_12  and  N_13
REMARK    6  A    between atoms: C_31  and  O_34
REMARK    7  A    between atoms: O_34  and  C_35
REMARK                            x       y       z     vdW  Elec       q    Type
REMARK                         _______ _______ _______ _____ _____    ______ ____
ROOT
ATOM      1  N   UNL     1       2.826  -1.867  -1.372  0.00  0.00    -0.225 N 
ATOM      2  C   UNL     1       4.063  -1.337  -1.451  0.00  0.00    +0.213 C 
ATOM      3  O   UNL     1       4.316  -0.299  -0.878  0.00  0.00    -0.276 OA
ATOM      4  H   UNL     1       2.623  -2.697  -1.830  0.00  0.00    +0.173 HD
ENDROOT
BRANCH   1   9
ATOM      5  C   UNL     1      -0.019   1.526   0.010  0.00  0.00    +0.047 C 
ATOM      6  C   UNL     1       0.002  -0.004   0.002  0.00  0.00    +0.137 C 
ATOM      7  C   UNL     1       0.815  -0.520  -1.169  0.00  0.00    +0.267 C 
ATOM      8  O   UNL     1       0.595  -0.342  -2.348  0.00  0.00    -0.271 OA
ATOM      9  N   UNL     1       1.833  -1.217  -0.627  0.00  0.00    -0.137 N 
ATOM     10  C   UNL     1       1.777  -1.214   0.710  0.00  0.00    +0.327 C 
ATOM     11  O   UNL     1       2.586  -1.776   1.421  0.00  0.00    -0.251 OA
ATOM     12  N   UNL     1       0.724  -0.519   1.178  0.00  0.00    -0.280 N 
ATOM     13  H   UNL     1       0.487  -0.383   2.109  0.00  0.00    +0.152 HD
BRANCH   6  14
ATOM     14  C   UNL     1      -1.401  -0.551  -0.040  0.00  0.00    -0.015 A 
ATOM     15  C   UNL     1      -2.004  -0.814  -1.256  0.00  0.00    +0.010 A 
ATOM     16  C   UNL     1      -3.290  -1.316  -1.298  0.00  0.00    +0.046 A 
ATOM     17  C   UNL     1      -3.978  -1.556  -0.117  0.00  0.00    +0.120 A 
ATOM     18  C   UNL     1      -3.371  -1.292   1.102  0.00  0.00    +0.046 A 
ATOM     19  C   UNL     1      -2.082  -0.796   1.138  0.00  0.00    +0.010 A 
BRANCH  17  20
ATOM     20  O   UNL     1      -5.244  -2.049  -0.155  0.00  0.00    -0.495 OA
ATOM     21  C   UNL     1      -5.891  -2.272   1.099  0.00  0.00    +0.277 C 
ENDBRANCH  17  20
ENDBRANCH   6  14
ENDBRANCH   1   9
BRANCH   2  22
ATOM     22  C   UNL     1       5.131  -2.036  -2.252  0.00  0.00    +0.021 C 
BRANCH  22  23
ATOM     23  N   UNL     1       6.379  -1.264  -2.181  0.00  0.00    +0.391 N 
ATOM     24  C   UNL     1       6.168   0.046  -2.797  0.00  0.00    -0.041 C 
ATOM     25  C   UNL     1       6.138  -0.045  -4.297  0.00  0.00    -0.056 A 
ATOM     26  C   UNL     1       4.947  -0.013  -4.990  0.00  0.00    +0.002 A 
ATOM     27  C   UNL     1       4.951  -0.080  -6.373  0.00  0.00    +0.000 A 
ATOM     28  C   UNL     1       6.143  -0.178  -7.067  0.00  0.00    +0.001 A 
ATOM     29  C   UNL     1       7.343  -0.218  -6.383  0.00  0.00    +0.009 A 
ATOM     30  C   UNL     1       7.341  -0.161  -4.996  0.00  0.00    -0.016 A 
ATOM     31  C   UNL     1       8.597  -0.249  -4.211  0.00  0.00    -0.016 A 
ATOM     32  C   UNL     1       9.706   0.525  -4.520  0.00  0.00    +0.009 A 
ATOM     33  C   UNL     1      10.847   0.421  -3.747  0.00  0.00    +0.001 A 
ATOM     34  C   UNL     1      10.878  -0.449  -2.671  0.00  0.00    +0.000 A 
ATOM     35  C   UNL     1       9.775  -1.227  -2.365  0.00  0.00    +0.002 A 
ATOM     36  C   UNL     1       8.636  -1.139  -3.136  0.00  0.00    -0.056 A 
ATOM     37  C   UNL     1       7.441  -2.007  -2.860  0.00  0.00    -0.041 C 
ATOM     38  H   UNL     1       6.633  -1.135  -1.213  0.00  0.00    -0.080 HD
ENDBRANCH  22  23
ENDBRANCH   2  22
TORSDOF 5
