REMARK  Name = ZINC08846694
REMARK  4 active torsions:
REMARK  status: ('A' for Active; 'I' for Inactive)
REMARK    1  A    between atoms: C_1  and  C_2
REMARK    2  A    between atoms: C_5  and  C_8
REMARK    3  A    between atoms: C_13  and  C_23
REMARK    4  A    between atoms: C_28  and  C_29
REMARK                            x       y       z     vdW  Elec       q    Type
REMARK                         _______ _______ _______ _____ _____    ______ ____
ROOT
ATOM      1  C   UNL     1      -2.229   1.488   0.817  0.00  0.00    +0.032 C 
ATOM      2  C   UNL     1      -1.138   2.248   0.064  0.00  0.00    +0.059 C 
ATOM      3  C   UNL     1       0.145   1.435   0.054  0.00  0.00    +0.017 C 
ATOM      4  C   UNL     1       0.102   0.092   0.030  0.00  0.00    +0.036 C 
ATOM      5  C   UNL     1       1.295  -0.833   0.009  0.00  0.00    +0.136 C 
ATOM      6  N   UNL     1       2.559  -0.178  -0.248  0.00  0.00    -0.331 N 
ATOM      7  C   UNL     1       3.085   0.747   0.652  0.00  0.00    +0.049 A 
ATOM      8  C   UNL     1       4.267   0.505   1.333  0.00  0.00    +0.025 A 
ATOM      9  C   UNL     1       4.724   1.434   2.253  0.00  0.00    +0.002 A 
ATOM     10  C   UNL     1       4.007   2.592   2.494  0.00  0.00    +0.002 A 
ATOM     11  C   UNL     1       2.835   2.845   1.801  0.00  0.00    +0.025 A 
ATOM     12  C   UNL     1       2.389   1.928   0.866  0.00  0.00    +0.052 A 
ATOM     13  N   UNL     1       1.286   2.171   0.055  0.00  0.00    -0.316 N 
ATOM     14  C   UNL     1      -1.144  -0.580   0.037  0.00  0.00    +0.163 C 
ATOM     15  O   UNL     1      -1.155  -1.794  -0.009  0.00  0.00    -0.292 OA
ATOM     16  C   UNL     1      -2.450   0.153   0.097  0.00  0.00    +0.088 C 
ATOM     17  H   UNL     1       3.049  -0.386  -1.059  0.00  0.00    +0.147 HD
ATOM     18  H   UNL     1       1.335   2.923  -0.555  0.00  0.00    +0.152 HD
ENDROOT
BRANCH   1  23
ATOM     19  C   UNL     1      -7.126   4.556   0.802  0.00  0.00    +0.044 C 
ATOM     20  C   UNL     1      -5.849   3.757   0.806  0.00  0.00    -0.050 A 
ATOM     21  C   UNL     1      -5.266   3.391   2.005  0.00  0.00    +0.003 A 
ATOM     22  C   UNL     1      -4.095   2.657   2.009  0.00  0.00    +0.004 A 
ATOM     23  C   UNL     1      -3.506   2.288   0.813  0.00  0.00    -0.043 A 
ATOM     24  C   UNL     1      -4.086   2.659  -0.386  0.00  0.00    +0.004 A 
ATOM     25  C   UNL     1      -5.259   3.389  -0.389  0.00  0.00    +0.003 A 
ENDBRANCH   1  23
BRANCH   5  26
ATOM     26  C   UNL     1       1.381  -1.531   1.342  0.00  0.00    -0.011 A 
ATOM     27  C   UNL     1       0.716  -1.013   2.438  0.00  0.00    +0.006 A 
ATOM     28  C   UNL     1       0.795  -1.653   3.660  0.00  0.00    +0.000 A 
ATOM     29  C   UNL     1       1.539  -2.811   3.788  0.00  0.00    +0.001 A 
ATOM     30  C   UNL     1       2.204  -3.329   2.692  0.00  0.00    +0.013 A 
ATOM     31  C   UNL     1       2.121  -2.692   1.468  0.00  0.00    +0.060 A 
BRANCH  31  32
ATOM     32  C   UNL     1       2.840  -3.260   0.272  0.00  0.00    +0.418 C 
ATOM     33  F   UNL     1       3.451  -4.468   0.626  0.00  0.00    -0.166 F 
ATOM     34  F   UNL     1       1.923  -3.486  -0.760  0.00  0.00    -0.166 F 
ATOM     35  F   UNL     1       3.815  -2.353  -0.160  0.00  0.00    -0.166 F 
ENDBRANCH  31  32
ENDBRANCH   5  26
TORSDOF 3
