REMARK  Name = ZINC66253579
REMARK  4 active torsions:
REMARK  status: ('A' for Active; 'I' for Inactive)
REMARK    1  A    between atoms: C_1  and  C_2
REMARK    2  A    between atoms: C_3  and  C_22
REMARK    3  A    between atoms: N_7  and  S_8
REMARK    4  A    between atoms: S_8  and  C_11
REMARK                            x       y       z     vdW  Elec       q    Type
REMARK                         _______ _______ _______ _____ _____    ______ ____
ROOT
ATOM      1  C   UNL     1      -0.085   1.454  -0.502  0.00  0.00    +0.064 C 
ATOM      2  C   UNL     1      -0.026  -0.025  -0.217  0.00  0.00    +0.029 A 
ATOM      3  C   UNL     1      -1.150  -0.696   0.106  0.00  0.00    +0.042 A 
ATOM      4  S   UNL     1      -0.540  -2.358   0.335  0.00  0.00    -0.048 S 
ATOM      5  C   UNL     1       1.181  -2.037  -0.018  0.00  0.00    +0.192 A 
ATOM      6  N   UNL     1       1.159  -0.686  -0.290  0.00  0.00    -0.336 N 
ATOM      7  N   UNL     1       2.195  -2.867  -0.023  0.00  0.00    -0.103 NA
ATOM      8  H   UNL     1       1.974  -0.215  -0.524  0.00  0.00    +0.168 HD
ENDROOT
BRANCH   3   9
ATOM      9  C   UNL     1      -2.533  -0.186   0.237  0.00  0.00    -0.010 A 
ATOM     10  C   UNL     1      -3.592  -0.872  -0.358  0.00  0.00    +0.009 A 
ATOM     11  C   UNL     1      -4.879  -0.392  -0.233  0.00  0.00    +0.001 A 
ATOM     12  C   UNL     1      -5.121   0.768   0.482  0.00  0.00    +0.000 A 
ATOM     13  C   UNL     1      -4.075   1.453   1.075  0.00  0.00    +0.001 A 
ATOM     14  C   UNL     1      -2.784   0.981   0.961  0.00  0.00    +0.009 A 
ENDBRANCH   3   9
BRANCH   7  15
ATOM     15  S   UNL     1       3.714  -2.316  -0.388  0.00  0.00    +0.101 S 
ATOM     16  O   UNL     1       3.683  -1.913  -1.750  0.00  0.00    -0.146 OA
ATOM     17  O   UNL     1       4.088  -1.432   0.660  0.00  0.00    -0.146 OA
BRANCH  15  18
ATOM     18  C   UNL     1       4.804  -3.697  -0.295  0.00  0.00    +0.116 A 
ATOM     19  C   UNL     1       5.421  -4.008   0.904  0.00  0.00    +0.031 A 
ATOM     20  C   UNL     1       6.278  -5.089   0.984  0.00  0.00    +0.031 A 
ATOM     21  C   UNL     1       6.518  -5.863  -0.140  0.00  0.00    +0.087 A 
ATOM     22  C   UNL     1       5.897  -5.550  -1.349  0.00  0.00    +0.159 A 
ATOM     23  C   UNL     1       5.035  -4.467  -1.419  0.00  0.00    +0.077 A 
ATOM     24  O   UNL     1       6.311  -6.463  -2.262  0.00  0.00    -0.408 OA
ATOM     25  C   UNL     1       7.158  -7.322  -1.674  0.00  0.00    +0.419 A 
ATOM     26  O   UNL     1       7.704  -8.258  -2.226  0.00  0.00    -0.223 OA
ATOM     27  N   UNL     1       7.309  -6.987  -0.377  0.00  0.00    -0.288 N 
ATOM     28  H   UNL     1       7.865  -7.445   0.272  0.00  0.00    +0.172 HD
ENDBRANCH  15  18
ENDBRANCH   7  15
TORSDOF 3
