REMARK  Name = ZINC51654965
REMARK  3 active torsions:
REMARK  status: ('A' for Active; 'I' for Inactive)
REMARK    1  A    between atoms: C_5  and  C_7
REMARK    2  A    between atoms: C_10  and  S_13
REMARK    3  A    between atoms: S_13  and  C_14
REMARK                            x       y       z     vdW  Elec       q    Type
REMARK                         _______ _______ _______ _____ _____    ______ ____
ROOT
ATOM      1  C   UNL     1       1.245  -2.166  -0.021  0.00  0.00    +0.185 A 
ATOM      2  N   UNL     1       0.169  -2.964  -0.015  0.00  0.00    -0.200 NA
ATOM      3  H   UNL     1       2.467  -5.038  -0.049  0.00  0.00    +0.191 HD
ATOM      4  C   UNL     1       0.551  -4.222  -0.026  0.00  0.00    +0.194 A 
ATOM      5  N   UNL     1       1.902  -4.249  -0.039  0.00  0.00    -0.253 N 
ATOM      6  N   UNL     1       2.327  -2.911  -0.042  0.00  0.00    -0.151 NA
ENDROOT
BRANCH   1  11
ATOM      7  C   UNL     1      -0.017   1.376   0.010  0.00  0.00    +0.001 A 
ATOM      8  C   UNL     1       1.170   2.087   0.002  0.00  0.00    +0.003 A 
ATOM      9  C   UNL     1       2.382   1.422  -0.013  0.00  0.00    +0.039 A 
ATOM     10  C   UNL     1       2.413   0.040  -0.021  0.00  0.00    +0.134 A 
ATOM     11  C   UNL     1       1.219  -0.682  -0.013  0.00  0.00    +0.056 A 
ATOM     12  C   UNL     1       0.002  -0.004   0.002  0.00  0.00    +0.014 A 
ATOM     13  F   UNL     1       3.598  -0.611  -0.037  0.00  0.00    -0.205 F 
ENDBRANCH   1  11
BRANCH   4  14
ATOM     14  S   UNL     1      -0.512  -5.627  -0.023  0.00  0.00    +0.008 S 
BRANCH  14  15
ATOM     15  C   UNL     1      -2.133  -4.935  -0.004  0.00  0.00    +0.266 A 
ATOM     16  N   UNL     1      -2.401  -3.654  -0.000  0.00  0.00    -0.203 NA
ATOM     17  C   UNL     1      -3.752  -3.492   0.015  0.00  0.00    +0.110 A 
ATOM     18  C   UNL     1      -4.588  -2.374   0.025  0.00  0.00    +0.031 A 
ATOM     19  C   UNL     1      -5.956  -2.544   0.041  0.00  0.00    +0.002 A 
ATOM     20  C   UNL     1      -6.504  -3.817   0.047  0.00  0.00    +0.004 A 
ATOM     21  C   UNL     1      -5.689  -4.931   0.037  0.00  0.00    +0.048 A 
ATOM     22  C   UNL     1      -4.312  -4.779   0.021  0.00  0.00    +0.156 A 
ATOM     23  O   UNL     1      -3.274  -5.646   0.004  0.00  0.00    -0.430 OA
ENDBRANCH  14  15
ENDBRANCH   4  14
TORSDOF 3
