REMARK  Name = ZINC45147627
REMARK  4 active torsions:
REMARK  status: ('A' for Active; 'I' for Inactive)
REMARK    1  A    between atoms: C_3  and  N_20
REMARK    2  A    between atoms: C_4  and  S_8
REMARK    3  A    between atoms: S_8  and  N_11
REMARK    4  A    between atoms: N_11  and  C_12
REMARK                            x       y       z     vdW  Elec       q    Type
REMARK                         _______ _______ _______ _____ _____    ______ ____
ROOT
ATOM      1  S   UNL     1       3.874  -0.902  -0.386  0.00  0.00    +0.096 S 
ATOM      2  O   UNL     1       3.552  -2.058  -1.147  0.00  0.00    -0.148 OA
ATOM      3  O   UNL     1       4.853   0.039  -0.806  0.00  0.00    -0.148 OA
ENDROOT
BRANCH   1   7
ATOM      4  C   UNL     1       0.011   1.405   0.161  0.00  0.00    +0.005 A 
ATOM      5  C   UNL     1       1.220   2.017   0.430  0.00  0.00    +0.025 A 
ATOM      6  C   UNL     1       2.405   1.313   0.263  0.00  0.00    +0.054 A 
ATOM      7  C   UNL     1       2.372  -0.005  -0.173  0.00  0.00    +0.166 A 
ATOM      8  C   UNL     1       1.159  -0.613  -0.440  0.00  0.00    +0.152 A 
ATOM      9  C   UNL     1      -0.021   0.093  -0.273  0.00  0.00    +0.040 A 
ATOM     10  F   UNL     1       1.125  -1.895  -0.865  0.00  0.00    -0.203 F 
BRANCH   6  11
ATOM     11  N   UNL     1       3.629   1.930   0.534  0.00  0.00    -0.356 N 
ATOM     12  H   UNL     1       3.668   2.889   0.676  0.00  0.00    +0.142 HD
ATOM     13  H   UNL     1       4.440   1.400   0.579  0.00  0.00    +0.142 HD
ENDBRANCH   6  11
ENDBRANCH   1   7
BRANCH   1  14
ATOM     14  N   UNL     1       4.342  -1.436   1.110  0.00  0.00    -0.095 NA
BRANCH  14  15
ATOM     15  C   UNL     1       5.514  -2.186   1.250  0.00  0.00    +0.111 A 
ATOM     16  C   UNL     1       6.290  -2.478   0.136  0.00  0.00    +0.049 A 
ATOM     17  C   UNL     1       7.448  -3.220   0.278  0.00  0.00    +0.043 A 
ATOM     18  C   UNL     1       7.835  -3.671   1.528  0.00  0.00    +0.023 A 
ATOM     19  C   UNL     1       7.065  -3.381   2.639  0.00  0.00    +0.042 A 
ATOM     20  C   UNL     1       5.909  -2.635   2.506  0.00  0.00    +0.148 A 
ATOM     21  F   UNL     1       5.160  -2.347   3.593  0.00  0.00    -0.203 F 
ATOM     22 CL   UNL     1       8.418  -3.587  -1.115  0.00  0.00    -0.083 Cl
ENDBRANCH  14  15
ENDBRANCH   1  14
TORSDOF 4
