REMARK  Name = ZINC15305178
REMARK  24 active torsions:
REMARK  status: ('A' for Active; 'I' for Inactive)
REMARK    1  A    between atoms: C_1  and  C_2
REMARK    2  A    between atoms: C_3  and  C_26
REMARK    3  A    between atoms: C_11  and  C_15
REMARK    4  A    between atoms: C_12  and  C_14
REMARK    5  A    between atoms: C_15  and  O_17
REMARK    6  A    between atoms: O_17  and  C_18
REMARK    7  A    between atoms: C_18  and  C_19
REMARK    8  A    between atoms: C_19  and  N_81
REMARK    9  A    between atoms: C_20  and  C_21
REMARK   10  A    between atoms: C_20  and  C_22
REMARK   11  A    between atoms: C_20  and  N_81
REMARK   12  A    between atoms: C_23  and  C_24
REMARK   13  A    between atoms: C_23  and  C_25
REMARK   14  A    between atoms: C_23  and  N_81
REMARK   15  A    between atoms: C_26  and  O_28
REMARK   16  A    between atoms: O_28  and  C_29
REMARK   17  A    between atoms: C_29  and  C_30
REMARK   18  A    between atoms: C_30  and  N_83
REMARK   19  A    between atoms: C_31  and  C_32
REMARK   20  A    between atoms: C_31  and  C_33
REMARK   21  A    between atoms: C_31  and  N_83
REMARK   22  A    between atoms: C_34  and  C_35
REMARK   23  A    between atoms: C_34  and  C_36
REMARK   24  A    between atoms: C_34  and  N_83
REMARK                            x       y       z     vdW  Elec       q    Type
REMARK                         _______ _______ _______ _____ _____    ______ ____
ROOT
ATOM      1  C   UNL     1       0.299  -2.380   0.531  0.00  0.00    +0.087 C 
ATOM      2  C   UNL     1       1.147  -1.185   0.884  0.00  0.00    +0.117 A 
ATOM      3  C   UNL     1       0.665   0.043   1.221  0.00  0.00    +0.107 A 
ATOM      4  C   UNL     1       1.853   0.882   1.480  0.00  0.00    +0.038 A 
ATOM      5  C   UNL     1       2.031   2.207   1.857  0.00  0.00    +0.059 A 
ATOM      6  C   UNL     1       3.313   2.707   2.022  0.00  0.00    +0.137 A 
ATOM      7  C   UNL     1       4.418   1.865   1.807  0.00  0.00    +0.038 A 
ATOM      8  C   UNL     1       4.239   0.541   1.430  0.00  0.00    +0.059 A 
ATOM      9  C   UNL     1       2.958   0.041   1.264  0.00  0.00    +0.137 A 
ATOM     10  O   UNL     1       2.484  -1.174   0.913  0.00  0.00    -0.459 OA
ATOM     11  C   UNL     1       5.606   2.705   2.067  0.00  0.00    +0.107 A 
ATOM     12  C   UNL     1       5.124   3.933   2.404  0.00  0.00    +0.117 A 
ATOM     13  O   UNL     1       3.786   3.921   2.375  0.00  0.00    -0.459 OA
ATOM     14  C   UNL     1       5.971   5.128   2.757  0.00  0.00    +0.087 C 
ENDROOT
BRANCH  11  15
ATOM     15  C   UNL     1       7.015   2.299   1.979  0.00  0.00    +0.343 C 
ATOM     16  O   UNL     1       7.617   2.417   0.930  0.00  0.00    -0.245 OA
BRANCH  15  17
ATOM     17  O   UNL     1       7.640   1.796   3.062  0.00  0.00    -0.463 OA
BRANCH  17  18
ATOM     18  C   UNL     1       9.032   1.416   2.903  0.00  0.00    +0.214 C 
BRANCH  18  19
ATOM     19  C   UNL     1       9.567   0.870   4.228  0.00  0.00    -0.036 C 
BRANCH  19  20
ATOM     20  N   UNL     1       8.820  -0.358   4.571  0.00  0.00    +0.385 N 
ATOM     21  H   UNL     1       7.823  -0.207   4.378  0.00  0.00    -0.081 HD
BRANCH  20  22
ATOM     22  C   UNL     1       9.302  -1.489   3.750  0.00  0.00    -0.074 C 
ATOM     23  C   UNL     1      10.473  -2.189   4.442  0.00  0.00    -0.014 C 
ATOM     24  C   UNL     1       8.152  -2.481   3.564  0.00  0.00    -0.014 C 
ENDBRANCH  20  22
BRANCH  20  25
ATOM     25  C   UNL     1       8.989  -0.668   6.006  0.00  0.00    -0.074 C 
ATOM     26  C   UNL     1       8.507   0.526   6.833  0.00  0.00    -0.014 C 
ATOM     27  C   UNL     1       8.148  -1.899   6.350  0.00  0.00    -0.014 C 
ENDBRANCH  20  25
ENDBRANCH  19  20
ENDBRANCH  18  19
ENDBRANCH  17  18
ENDBRANCH  15  17
ENDBRANCH  11  15
BRANCH   3  28
ATOM     28  C   UNL     1      -0.744   0.449   1.308  0.00  0.00    +0.343 C 
ATOM     29  O   UNL     1      -1.308   0.902   0.331  0.00  0.00    -0.245 OA
BRANCH  28  30
ATOM     30  O   UNL     1      -1.413   0.319   2.472  0.00  0.00    -0.463 OA
BRANCH  30  31
ATOM     31  C   UNL     1      -2.802   0.740   2.485  0.00  0.00    +0.214 C 
BRANCH  31  32
ATOM     32  C   UNL     1      -3.389   0.518   3.880  0.00  0.00    -0.036 C 
BRANCH  32  33
ATOM     33  N   UNL     1      -2.694   1.408   4.834  0.00  0.00    +0.385 N 
ATOM     34  H   UNL     1      -1.682   1.347   4.671  0.00  0.00    -0.081 HD
BRANCH  33  35
ATOM     35  C   UNL     1      -3.129   2.806   4.630  0.00  0.00    -0.074 C 
ATOM     36  C   UNL     1      -4.390   3.097   5.447  0.00  0.00    -0.014 C 
ATOM     37  C   UNL     1      -2.003   3.738   5.081  0.00  0.00    -0.014 C 
ENDBRANCH  33  35
BRANCH  33  38
ATOM     38  C   UNL     1      -2.984   0.986   6.221  0.00  0.00    -0.074 C 
ATOM     39  C   UNL     1      -2.623  -0.493   6.378  0.00  0.00    -0.014 C 
ATOM     40  C   UNL     1      -2.134   1.823   7.180  0.00  0.00    -0.014 C 
ENDBRANCH  33  38
ENDBRANCH  32  33
ENDBRANCH  31  32
ENDBRANCH  30  31
ENDBRANCH  28  30
ENDBRANCH   3  28
TORSDOF 14
