REMARK  Name = ZINC53606399
REMARK  7 active torsions:
REMARK  status: ('A' for Active; 'I' for Inactive)
REMARK    1  A    between atoms: C_6  and  C_11
REMARK    2  A    between atoms: C_11  and  C_12
REMARK    3  A    between atoms: N_14  and  N_15
REMARK    4  A    between atoms: C_16  and  C_18
REMARK    5  A    between atoms: C_18  and  C_19
REMARK    6  A    between atoms: C_19  and  C_21
REMARK    7  A    between atoms: C_19  and  N_26
REMARK                            x       y       z     vdW  Elec       q    Type
REMARK                         _______ _______ _______ _____ _____    ______ ____
ROOT
ATOM      1  N   UNL     1       7.050  -3.818   2.902  0.00  0.00    -0.234 N 
ATOM      2  C   UNL     1       8.214  -4.456   3.133  0.00  0.00    +0.231 C 
ATOM      3  O   UNL     1       8.896  -4.830   2.203  0.00  0.00    -0.274 OA
ATOM      4  H   UNL     1       6.504  -3.519   3.646  0.00  0.00    +0.173 HD
ENDROOT
BRANCH   1   7
ATOM      5  C   UNL     1       5.463  -2.949   1.355  0.00  0.00    +0.233 C 
ATOM      6  O   UNL     1       4.781  -2.575   2.285  0.00  0.00    -0.274 OA
ATOM      7  N   UNL     1       6.627  -3.587   1.586  0.00  0.00    -0.234 N 
ATOM      8  H   UNL     1       7.172  -3.886   0.842  0.00  0.00    +0.173 HD
BRANCH   5   9
ATOM      9  C   UNL     1       5.008  -2.700  -0.060  0.00  0.00    +0.132 C 
BRANCH   9  15
ATOM     10  C   UNL     1      -0.016   1.357   0.009  0.00  0.00    +0.001 A 
ATOM     11  C   UNL     1       1.169   2.091   0.002  0.00  0.00    +0.001 A 
ATOM     12  C   UNL     1       2.378   1.468  -0.013  0.00  0.00    +0.008 A 
ATOM     13  C   UNL     1       2.438   0.063  -0.021  0.00  0.00    -0.018 A 
ATOM     14  C   UNL     1       3.668  -0.615  -0.036  0.00  0.00    +0.012 A 
ATOM     15  C   UNL     1       3.687  -1.976  -0.043  0.00  0.00    -0.038 A 
ATOM     16  C   UNL     1       2.502  -2.710  -0.036  0.00  0.00    +0.005 A 
ATOM     17  C   UNL     1       1.292  -2.087  -0.021  0.00  0.00    +0.009 A 
ATOM     18  C   UNL     1       1.233  -0.683  -0.013  0.00  0.00    -0.018 A 
ATOM     19  C   UNL     1       0.002  -0.004   0.002  0.00  0.00    +0.008 A 
ENDBRANCH   9  15
ENDBRANCH   5   9
ENDBRANCH   1   7
BRANCH   2  20
ATOM     20  C   UNL     1       8.669  -4.705   4.548  0.00  0.00    +0.125 C 
BRANCH  20  21
ATOM     21  C   UNL     1      10.010  -5.440   4.531  0.00  0.00    +0.120 C 
BRANCH  21  22
ATOM     22  N   UNL     1       9.831  -6.770   3.943  0.00  0.00    -0.292 N 
ATOM     23  C   UNL     1      10.874  -7.396   3.363  0.00  0.00    +0.298 C 
ATOM     24  O   UNL     1      11.963  -6.858   3.328  0.00  0.00    -0.253 OA
ATOM     25  N   UNL     1      10.709  -8.619   2.821  0.00  0.00    -0.313 N 
ATOM     26  H   UNL     1       8.961  -7.199   3.971  0.00  0.00    +0.151 HD
ATOM     27  H   UNL     1       9.839  -9.049   2.849  0.00  0.00    +0.146 HD
ATOM     28  H   UNL     1      11.459  -9.070   2.404  0.00  0.00    +0.146 HD
ENDBRANCH  21  22
BRANCH  21  29
ATOM     29  C   UNL     1      10.524  -5.580   5.941  0.00  0.00    +0.010 A 
ATOM     30  C   UNL     1      11.455  -4.837   6.588  0.00  0.00    +0.013 A 
ATOM     31  C   UNL     1      11.773  -5.151   7.896  0.00  0.00    +0.008 A 
ATOM     32  C   UNL     1      11.144  -6.193   8.493  0.00  0.00    +0.045 A 
ATOM     33  S   UNL     1      10.060  -6.763   7.195  0.00  0.00    -0.100 S 
ENDBRANCH  21  29
ENDBRANCH  20  21
ENDBRANCH   2  20
TORSDOF 7
