REMARK  Name = ZINC28053919
REMARK  3 active torsions:
REMARK  status: ('A' for Active; 'I' for Inactive)
REMARK    1  A    between atoms: C_1  and  C_2
REMARK    2  A    between atoms: C_5  and  C_8
REMARK    3  A    between atoms: C_19  and  C_21
REMARK                            x       y       z     vdW  Elec       q    Type
REMARK                         _______ _______ _______ _____ _____    ______ ____
ROOT
ATOM      1  C   UNL     1      -2.493   3.804  -0.249  0.00  0.00    +0.174 C 
ATOM      2  C   UNL     1      -1.108   3.204  -0.256  0.00  0.00    +0.025 C 
ATOM      3  C   UNL     1      -0.874   1.943   0.115  0.00  0.00    +0.050 C 
ATOM      4  C   UNL     1       0.521   1.445   0.079  0.00  0.00    +0.038 A 
ATOM      5  C   UNL     1       0.810   0.087   0.106  0.00  0.00    +0.013 A 
ATOM      6  C   UNL     1       2.128  -0.330   0.080  0.00  0.00    +0.001 A 
ATOM      7  C   UNL     1       3.153   0.598   0.026  0.00  0.00    +0.004 A 
ATOM      8  C   UNL     1       2.874   1.953  -0.004  0.00  0.00    +0.046 A 
ATOM      9  C   UNL     1       1.561   2.384   0.022  0.00  0.00    +0.131 A 
ATOM     10  O   UNL     1       1.244   3.703  -0.009  0.00  0.00    -0.479 OA
ATOM     11  C   UNL     1       0.050   4.068  -0.701  0.00  0.00    +0.234 C 
ATOM     12  N   UNL     1      -1.897   1.086   0.539  0.00  0.00    -0.282 N 
ATOM     13  C   UNL     1      -3.121   1.660   0.841  0.00  0.00    +0.240 A 
ATOM     14  N   UNL     1      -3.410   2.938   0.483  0.00  0.00    -0.201 N 
ATOM     15  N   UNL     1      -4.701   3.173   0.953  0.00  0.00    -0.042 NA
ATOM     16  N   UNL     1      -5.089   2.079   1.526  0.00  0.00    -0.021 NA
ATOM     17  N   UNL     1      -4.163   1.185   1.460  0.00  0.00    -0.092 NA
ATOM     18  H   UNL     1      -1.709   0.005   0.622  0.00  0.00    +0.155 HD
ENDROOT
BRANCH   1  23
ATOM     19  C   UNL     1      -4.340   4.415  -5.691  0.00  0.00    +0.044 C 
ATOM     20  C   UNL     1      -3.858   4.256  -4.271  0.00  0.00    -0.050 A 
ATOM     21  C   UNL     1      -3.741   5.363  -3.453  0.00  0.00    +0.004 A 
ATOM     22  C   UNL     1      -3.299   5.217  -2.151  0.00  0.00    +0.006 A 
ATOM     23  C   UNL     1      -2.975   3.963  -1.668  0.00  0.00    -0.019 A 
ATOM     24  C   UNL     1      -3.087   2.856  -2.489  0.00  0.00    +0.006 A 
ATOM     25  C   UNL     1      -3.534   3.002  -3.788  0.00  0.00    +0.004 A 
ENDBRANCH   1  23
BRANCH  11  26
ATOM     26  C   UNL     1       0.260   3.892  -2.183  0.00  0.00    -0.003 A 
ATOM     27  C   UNL     1      -0.137   4.884  -3.060  0.00  0.00    +0.007 A 
ATOM     28  C   UNL     1       0.060   4.724  -4.419  0.00  0.00    +0.000 A 
ATOM     29  C   UNL     1       0.646   3.568  -4.901  0.00  0.00    +0.000 A 
ATOM     30  C   UNL     1       1.039   2.575  -4.024  0.00  0.00    +0.000 A 
ATOM     31  C   UNL     1       0.846   2.736  -2.665  0.00  0.00    +0.007 A 
ENDBRANCH  11  26
TORSDOF 2
