REMARK  Name = ZINC39914540
REMARK  6 active torsions:
REMARK  status: ('A' for Active; 'I' for Inactive)
REMARK    1  A    between atoms: C_1  and  C_2
REMARK    2  A    between atoms: C_4  and  O_30
REMARK    3  A    between atoms: C_5  and  C_9
REMARK    4  A    between atoms: N_17  and  C_27
REMARK    5  A    between atoms: C_18  and  C_20
REMARK    6  A    between atoms: C_27  and  C_28
REMARK                            x       y       z     vdW  Elec       q    Type
REMARK                         _______ _______ _______ _____ _____    ______ ____
ROOT
ATOM      1  C   UNL     1      -0.200  -3.959   0.182  0.00  0.00    +0.102 A 
ATOM      2  C   UNL     1       0.008  -4.927   1.171  0.00  0.00    +0.035 A 
ATOM      3  C   UNL     1       0.251  -6.108   0.496  0.00  0.00    +0.126 A 
ATOM      4  N   UNL     1       0.180  -5.807  -0.834  0.00  0.00    -0.272 N 
ATOM      5  H   UNL     1       0.309  -6.442  -1.557  0.00  0.00    +0.189 HD
ATOM      6  N   UNL     1      -0.087  -4.559  -0.987  0.00  0.00    -0.173 NA
ATOM      7  C   UNL     1       0.478  -7.171   1.482  0.00  0.00    +0.266 C 
ATOM      8  O   UNL     1       0.719  -8.331   1.210  0.00  0.00    -0.268 OA
ATOM      9  N   UNL     1       0.382  -6.679   2.731  0.00  0.00    -0.281 N 
ATOM     10  C   UNL     1       0.082  -5.244   2.639  0.00  0.00    +0.144 C 
ENDROOT
BRANCH   1  15
ATOM     11  C   UNL     1      -1.364   1.617   1.061  0.00  0.00    +0.045 C 
ATOM     12  C   UNL     1      -1.059   0.159   0.829  0.00  0.00    -0.029 A 
ATOM     13  C   UNL     1      -0.843  -0.302  -0.456  0.00  0.00    +0.050 A 
ATOM     14  C   UNL     1      -0.563  -1.641  -0.675  0.00  0.00    +0.126 A 
ATOM     15  C   UNL     1      -0.499  -2.523   0.408  0.00  0.00    +0.045 A 
ATOM     16  C   UNL     1      -0.718  -2.049   1.698  0.00  0.00    +0.034 A 
ATOM     17  C   UNL     1      -0.992  -0.711   1.903  0.00  0.00    +0.045 A 
ATOM     18 CL   UNL     1      -1.258  -0.119   3.514  0.00  0.00    -0.083 Cl
BRANCH  14  19
ATOM     19  O   UNL     1      -0.351  -2.096  -1.938  0.00  0.00    -0.506 OA
ATOM     20  H   UNL     1       0.574  -2.061  -2.218  0.00  0.00    +0.292 HD
ENDBRANCH  14  19
ENDBRANCH   1  15
BRANCH  10  21
ATOM     21  C   UNL     1       1.180  -4.442   3.288  0.00  0.00    +0.013 A 
ATOM     22  C   UNL     1       2.165  -3.863   2.511  0.00  0.00    +0.008 A 
ATOM     23  C   UNL     1       3.173  -3.127   3.106  0.00  0.00    +0.001 A 
ATOM     24  C   UNL     1       3.196  -2.969   4.479  0.00  0.00    +0.003 A 
ATOM     25  C   UNL     1       2.212  -3.547   5.259  0.00  0.00    +0.039 A 
ATOM     26  C   UNL     1       1.199  -4.280   4.663  0.00  0.00    +0.129 A 
ATOM     27  F   UNL     1       0.234  -4.841   5.423  0.00  0.00    -0.205 F 
ENDBRANCH  10  21
BRANCH   9  28
ATOM     28  C   UNL     1       0.547  -7.444   3.969  0.00  0.00    +0.135 C 
BRANCH  28  29
ATOM     29  C   UNL     1       2.012  -7.534   4.312  0.00  0.00    -0.016 C 
ATOM     30  C   UNL     1       2.436  -7.135   5.485  0.00  0.00    +0.005 C 
ENDBRANCH  28  29
ENDBRANCH   9  28
TORSDOF 5
