REMARK  Name = ZINC12833119
REMARK  14 active torsions:
REMARK  status: ('A' for Active; 'I' for Inactive)
REMARK    1  A    between atoms: C_1  and  C_2
REMARK    2  A    between atoms: C_5  and  C_39
REMARK    3  A    between atoms: C_9  and  C_14
REMARK    4  A    between atoms: C_14  and  N_77
REMARK    5  A    between atoms: C_15  and  C_16
REMARK    6  A    between atoms: C_15  and  N_77
REMARK    7  A    between atoms: C_16  and  C_17
REMARK    8  A    between atoms: C_20  and  O_25
REMARK    9  A    between atoms: C_21  and  O_23
REMARK   10  A    between atoms: O_23  and  C_24
REMARK   11  A    between atoms: O_25  and  C_26
REMARK   12  A    between atoms: C_27  and  C_28
REMARK   13  A    between atoms: C_27  and  N_77
REMARK   14  A    between atoms: N_32  and  C_33
REMARK                            x       y       z     vdW  Elec       q    Type
REMARK                         _______ _______ _______ _____ _____    ______ ____
ROOT
ATOM      1  N   UNL     1      -0.662  -3.011  -2.008  0.00  0.00    +0.387 N 
ATOM      2  H   UNL     1      -1.396  -3.675  -1.734  0.00  0.00    -0.081 HD
ENDROOT
BRANCH   1   3
ATOM      3  C   UNL     1       0.270  -2.831  -0.875  0.00  0.00    -0.037 C 
BRANCH   3  12
ATOM      4  C   UNL     1      -1.318  -6.227   2.739  0.00  0.00    +0.044 C 
ATOM      5  C   UNL     1      -1.823  -4.868   3.149  0.00  0.00    -0.041 A 
ATOM      6  C   UNL     1      -2.554  -4.724   4.295  0.00  0.00    +0.004 A 
ATOM      7  C   UNL     1      -3.024  -3.477   4.681  0.00  0.00    +0.005 A 
ATOM      8  C   UNL     1      -2.763  -2.359   3.918  0.00  0.00    -0.026 A 
ATOM      9  C   UNL     1      -2.021  -2.481   2.747  0.00  0.00    +0.052 A 
ATOM     10  C   UNL     1      -1.547  -3.748   2.358  0.00  0.00    +0.002 A 
ATOM     11  C   UNL     1      -0.767  -3.865   1.125  0.00  0.00    +0.017 A 
ATOM     12  C   UNL     1      -0.530  -2.745   0.399  0.00  0.00    +0.001 A 
ATOM     13  C   UNL     1      -1.024  -1.497   0.836  0.00  0.00    +0.251 A 
ATOM     14  O   UNL     1      -0.795  -0.501   0.171  0.00  0.00    -0.268 OA
ATOM     15  N   UNL     1      -1.745  -1.380   1.965  0.00  0.00    -0.322 N 
ATOM     16  H   UNL     1      -2.073  -0.507   2.234  0.00  0.00    +0.169 HD
ATOM     17  C   UNL     1      -3.280  -1.011   4.349  0.00  0.00    +0.046 C 
ENDBRANCH   3  12
ENDBRANCH   1   3
BRANCH   1  18
ATOM     18  C   UNL     1       0.062  -3.551  -3.178  0.00  0.00    -0.073 C 
BRANCH  18  19
ATOM     19  C   UNL     1      -0.945  -4.238  -4.102  0.00  0.00    +0.017 C 
BRANCH  19  20
ATOM     20  C   UNL     1      -0.210  -4.930  -5.221  0.00  0.00    -0.045 A 
ATOM     21  C   UNL     1       0.051  -4.253  -6.397  0.00  0.00    +0.007 A 
ATOM     22  C   UNL     1       0.730  -4.881  -7.424  0.00  0.00    +0.049 A 
ATOM     23  C   UNL     1       1.142  -6.196  -7.280  0.00  0.00    +0.161 A 
ATOM     24  C   UNL     1       0.875  -6.880  -6.097  0.00  0.00    +0.162 A 
ATOM     25  C   UNL     1       0.198  -6.242  -5.070  0.00  0.00    +0.053 A 
BRANCH  24  26
ATOM     26  O   UNL     1       1.277  -8.170  -5.951  0.00  0.00    -0.491 OA
ATOM     27  C   UNL     1       0.969  -8.809  -4.710  0.00  0.00    +0.277 C 
ENDBRANCH  24  26
BRANCH  23  28
ATOM     28  O   UNL     1       1.806  -6.817  -8.291  0.00  0.00    -0.491 OA
ATOM     29  C   UNL     1       2.045  -6.054  -9.475  0.00  0.00    +0.277 C 
ENDBRANCH  23  28
ENDBRANCH  19  20
ENDBRANCH  18  19
ENDBRANCH   1  18
BRANCH   1  30
ATOM     30  C   UNL     1      -1.290  -1.718  -2.355  0.00  0.00    +0.001 C 
BRANCH  30  31
ATOM     31  C   UNL     1      -2.543  -1.988  -3.149  0.00  0.00    +0.135 A 
ATOM     32  N   UNL     1      -2.678  -1.901  -4.450  0.00  0.00    -0.115 NA
ATOM     33  N   UNL     1      -3.894  -2.208  -4.745  0.00  0.00    -0.023 NA
ATOM     34  N   UNL     1      -4.537  -2.494  -3.666  0.00  0.00    -0.044 NA
ATOM     35  N   UNL     1      -3.739  -2.365  -2.660  0.00  0.00    -0.228 N 
BRANCH  35  36
ATOM     36  C   UNL     1      -4.071  -2.591  -1.252  0.00  0.00    +0.111 C 
ATOM     37  C   UNL     1      -5.097  -1.552  -0.796  0.00  0.00    +0.027 C 
ATOM     38  C   UNL     1      -5.444  -1.788   0.675  0.00  0.00    +0.002 C 
ATOM     39  C   UNL     1      -6.031  -3.191   0.842  0.00  0.00    +0.000 C 
ATOM     40  C   UNL     1      -5.005  -4.231   0.387  0.00  0.00    +0.002 C 
ATOM     41  C   UNL     1      -4.658  -3.994  -1.085  0.00  0.00    +0.027 C 
ENDBRANCH  35  36
ENDBRANCH  30  31
ENDBRANCH   1  30
TORSDOF 10
