REMARK  Name = ZINC39684956
REMARK  6 active torsions:
REMARK  status: ('A' for Active; 'I' for Inactive)
REMARK    1  A    between atoms: C_3  and  C_36
REMARK    2  A    between atoms: C_6  and  C_7
REMARK    3  A    between atoms: C_7  and  N_8
REMARK    4  A    between atoms: C_9  and  C_11
REMARK    5  A    between atoms: C_22  and  C_24
REMARK    6  A    between atoms: C_27  and  C_29
REMARK                            x       y       z     vdW  Elec       q    Type
REMARK                         _______ _______ _______ _____ _____    ______ ____
ROOT
ATOM      1  C   UNL     1      -3.318  -1.935  -3.024  0.00  0.00    +0.100 C 
ATOM      2  C   UNL     1      -2.231  -2.710  -3.802  0.00  0.00    +0.121 C 
ATOM      3  N   UNL     1      -2.632  -4.132  -3.691  0.00  0.00    -0.294 N 
ATOM      4  C   UNL     1      -4.109  -4.110  -3.825  0.00  0.00    +0.115 C 
ATOM      5  C   UNL     1      -4.550  -2.856  -3.044  0.00  0.00    -0.004 C 
ATOM      6  C   UNL     1      -5.710  -2.170  -3.758  0.00  0.00    -0.010 C 
ATOM      7  C   UNL     1      -6.941  -3.080  -3.714  0.00  0.00    -0.082 C 
ATOM      8  N   UNL     1      -7.295  -3.359  -2.317  0.00  0.00    +0.379 N 
ATOM      9  C   UNL     1      -6.211  -4.101  -1.664  0.00  0.00    -0.082 C 
ATOM     10  C   UNL     1      -4.950  -3.234  -1.621  0.00  0.00    -0.010 C 
ATOM     11  C   UNL     1      -1.835  -5.204  -3.509  0.00  0.00    +0.282 C 
ATOM     12  O   UNL     1      -2.320  -6.318  -3.437  0.00  0.00    -0.267 OA
ATOM     13  H   UNL     1      -7.447  -2.489  -1.830  0.00  0.00    -0.086 HD
ATOM     14  H   UNL     1      -8.141  -3.908  -2.290  0.00  0.00    -0.086 HD
ENDROOT
BRANCH  11  15
ATOM     15  C   UNL     1      -0.385  -5.028  -3.398  0.00  0.00    +0.190 A 
ATOM     16  C   UNL     1       0.540  -6.032  -3.217  0.00  0.00    +0.055 A 
ATOM     17  C   UNL     1       1.796  -5.420  -3.167  0.00  0.00    +0.050 A 
ATOM     18  C   UNL     1       1.595  -4.077  -3.316  0.00  0.00    +0.136 A 
ATOM     19  O   UNL     1       0.278  -3.853  -3.461  0.00  0.00    -0.450 OA
BRANCH  18  20
ATOM     20  C   UNL     1       2.649  -3.044  -3.324  0.00  0.00    +0.017 A 
ATOM     21  C   UNL     1       3.989  -3.409  -3.175  0.00  0.00    +0.014 A 
ATOM     22  C   UNL     1       4.970  -2.440  -3.183  0.00  0.00    +0.039 A 
ATOM     23  C   UNL     1       4.628  -1.106  -3.339  0.00  0.00    +0.123 A 
ATOM     24  C   UNL     1       3.300  -0.738  -3.487  0.00  0.00    +0.039 A 
ATOM     25  C   UNL     1       2.311  -1.698  -3.486  0.00  0.00    +0.014 A 
ATOM     26  F   UNL     1       5.593  -0.160  -3.347  0.00  0.00    -0.205 F 
ENDBRANCH  18  20
ENDBRANCH  11  15
BRANCH   1  28
ATOM     27  N   UNL     1      -3.327  -0.611  -0.934  0.00  0.00    -0.311 N 
ATOM     28  C   UNL     1      -2.871  -1.687  -1.606  0.00  0.00    +0.218 C 
ATOM     29  O   UNL     1      -2.102  -2.455  -1.069  0.00  0.00    -0.275 OA
ATOM     30  H   UNL     1      -3.943   0.004  -1.364  0.00  0.00    +0.149 HD
BRANCH  27  31
ATOM     31  C   UNL     1      -2.893  -0.370   0.444  0.00  0.00    +0.139 C 
BRANCH  31  37
ATOM     32  C   UNL     1      -4.767   0.816   1.604  0.00  0.00    +0.006 A 
ATOM     33  C   UNL     1      -5.367   1.963   2.081  0.00  0.00    +0.019 A 
ATOM     34  C   UNL     1      -4.736   3.198   1.915  0.00  0.00    +0.052 A 
ATOM     35  C   UNL     1      -3.501   3.263   1.267  0.00  0.00    +0.019 A 
ATOM     36  C   UNL     1      -2.913   2.108   0.794  0.00  0.00    +0.006 A 
ATOM     37  C   UNL     1      -3.543   0.888   0.962  0.00  0.00    -0.030 A 
BRANCH  34  38
ATOM     38  C   UNL     1      -5.353   4.393   2.408  0.00  0.00    +0.099 C 
ATOM     39  N   UNL     1      -5.843   5.340   2.798  0.00  0.00    -0.191 NA
ENDBRANCH  34  38
ENDBRANCH  31  37
ENDBRANCH  27  31
ENDBRANCH   1  28
TORSDOF 6
