REMARK  Name = ZINC05257230
REMARK  6 active torsions:
REMARK  status: ('A' for Active; 'I' for Inactive)
REMARK    1  A    between atoms: C_4  and  C_7
REMARK    2  A    between atoms: C_10  and  S_13
REMARK    3  A    between atoms: N_11  and  N_12
REMARK    4  A    between atoms: S_13  and  C_14
REMARK    5  A    between atoms: C_14  and  C_15
REMARK    6  A    between atoms: N_17  and  C_18
REMARK                            x       y       z     vdW  Elec       q    Type
REMARK                         _______ _______ _______ _____ _____    ______ ____
ROOT
ATOM      1  C   UNL     1       3.658   3.139  -0.074  0.00  0.00    +0.182 A 
ATOM      2  N   UNL     1       3.760   1.838   0.071  0.00  0.00    -0.127 NA
ATOM      3  N   UNL     1       2.595   1.298   0.027  0.00  0.00    -0.121 NA
ATOM      4  C   UNL     1       1.677   2.220  -0.159  0.00  0.00    +0.209 A 
ATOM      5  N   UNL     1       2.320   3.424  -0.225  0.00  0.00    -0.224 N 
ENDROOT
BRANCH   1   9
ATOM      6  C   UNL     1       6.851   5.939  -0.073  0.00  0.00    +0.000 A 
ATOM      7  C   UNL     1       5.553   6.375   0.120  0.00  0.00    +0.001 A 
ATOM      8  C   UNL     1       4.511   5.471   0.121  0.00  0.00    +0.011 A 
ATOM      9  C   UNL     1       4.769   4.113  -0.073  0.00  0.00    +0.021 A 
ATOM     10  C   UNL     1       6.082   3.679  -0.262  0.00  0.00    +0.011 A 
ATOM     11  C   UNL     1       7.114   4.595  -0.267  0.00  0.00    +0.001 A 
ENDBRANCH   1   9
BRANCH   5  12
ATOM     12  N   UNL     1       1.754   4.653  -0.405  0.00  0.00    -0.295 N 
ATOM     13  H   UNL     1       1.602   5.115   0.479  0.00  0.00    +0.163 HD
ATOM     14  H   UNL     1       2.315   5.224  -1.019  0.00  0.00    +0.163 HD
ENDBRANCH   5  12
BRANCH   4  15
ATOM     15  S   UNL     1      -0.060   1.955  -0.289  0.00  0.00    -0.075 S 
BRANCH  15  16
ATOM     16  C   UNL     1      -0.117   0.155  -0.107  0.00  0.00    +0.173 C 
BRANCH  16  17
ATOM     17  C   UNL     1      -1.548  -0.312  -0.188  0.00  0.00    +0.228 C 
ATOM     18  O   UNL     1      -2.440   0.492  -0.353  0.00  0.00    -0.275 OA
ATOM     19  N   UNL     1      -1.835  -1.625  -0.078  0.00  0.00    -0.284 N 
ATOM     20  H   UNL     1      -1.118  -2.275  -0.019  0.00  0.00    +0.155 HD
BRANCH  19  21
ATOM     21  C   UNL     1      -3.169  -2.049  -0.048  0.00  0.00    +0.052 A 
ATOM     22  C   UNL     1      -4.132  -1.368  -0.781  0.00  0.00    +0.026 A 
ATOM     23  C   UNL     1      -5.447  -1.789  -0.751  0.00  0.00    +0.022 A 
ATOM     24  C   UNL     1      -5.806  -2.889   0.009  0.00  0.00    +0.042 A 
ATOM     25  C   UNL     1      -4.849  -3.570   0.740  0.00  0.00    +0.041 A 
ATOM     26  C   UNL     1      -3.530  -3.156   0.710  0.00  0.00    +0.064 A 
ATOM     27 CL   UNL     1      -2.329  -4.014   1.622  0.00  0.00    -0.082 Cl
ATOM     28 CL   UNL     1      -7.460  -3.415   0.044  0.00  0.00    -0.083 Cl
ENDBRANCH  19  21
ENDBRANCH  16  17
ENDBRANCH  15  16
ENDBRANCH   4  15
TORSDOF 6
