REMARK  Name = ZINC08839438
REMARK  4 active torsions:
REMARK  status: ('A' for Active; 'I' for Inactive)
REMARK    1  A    between atoms: C_5  and  N_7
REMARK    2  A    between atoms: N_10  and  C_11
REMARK    3  A    between atoms: C_11  and  C_12
REMARK    4  A    between atoms: N_15  and  C_19
REMARK                            x       y       z     vdW  Elec       q    Type
REMARK                         _______ _______ _______ _____ _____    ______ ____
ROOT
ATOM      1  C   UNL     1       1.244   2.092   0.028  0.00  0.00    +0.152 C 
ENDROOT
BRANCH   1   5
ATOM      2  N   UNL     1      -1.156  -0.694   0.009  0.00  0.00    -0.267 N 
ATOM      3  C   UNL     1       0.002  -0.005   0.009  0.00  0.00    +0.304 C 
ATOM      4  O   UNL     1       1.063  -0.599  -0.008  0.00  0.00    -0.253 OA
ATOM      5  N   UNL     1      -0.015   1.343   0.028  0.00  0.00    -0.296 N 
ATOM      6  H   UNL     1      -2.000  -0.223   0.088  0.00  0.00    +0.156 HD
ATOM      7  H   UNL     1      -0.861   1.817   0.037  0.00  0.00    +0.150 HD
BRANCH   2  12
ATOM      8  C   UNL     1      -0.100  -4.200   0.360  0.00  0.00    +0.002 A 
ATOM      9  C   UNL     1      -1.109  -4.849  -0.327  0.00  0.00    +0.003 A 
ATOM     10  C   UNL     1      -2.135  -4.123  -0.904  0.00  0.00    +0.040 A 
ATOM     11  C   UNL     1      -2.157  -2.745  -0.790  0.00  0.00    +0.145 A 
ATOM     12  C   UNL     1      -1.140  -2.090  -0.104  0.00  0.00    +0.070 A 
ATOM     13  C   UNL     1      -0.113  -2.823   0.473  0.00  0.00    +0.026 A 
ATOM     14  F   UNL     1      -3.162  -2.035  -1.349  0.00  0.00    -0.204 F 
ENDBRANCH   2  12
ENDBRANCH   1   5
BRANCH   1  15
ATOM     15  C   UNL     1       0.945   3.592   0.050  0.00  0.00    +0.213 C 
ATOM     16  C   UNL     1       2.252   4.405  -0.027  0.00  0.00    +0.163 C 
ATOM     17  N   UNL     1       2.262   5.167   1.235  0.00  0.00    -0.234 N 
ATOM     18  C   UNL     1       1.159   4.864   1.934  0.00  0.00    +0.408 C 
ATOM     19  O   UNL     1       0.908   5.350   3.019  0.00  0.00    -0.226 OA
ATOM     20  O   UNL     1       0.361   3.977   1.329  0.00  0.00    -0.444 OA
BRANCH  17  21
ATOM     21  C   UNL     1       3.260   6.062   1.637  0.00  0.00    +0.040 A 
ATOM     22  C   UNL     1       4.362   6.287   0.822  0.00  0.00    +0.025 A 
ATOM     23  C   UNL     1       5.342   7.176   1.218  0.00  0.00    +0.022 A 
ATOM     24  C   UNL     1       5.233   7.833   2.431  0.00  0.00    +0.041 A 
ATOM     25  C   UNL     1       4.139   7.606   3.248  0.00  0.00    +0.022 A 
ATOM     26  C   UNL     1       3.153   6.723   2.854  0.00  0.00    +0.025 A 
ATOM     27 CL   UNL     1       6.471   8.943   2.929  0.00  0.00    -0.084 Cl
ENDBRANCH  17  21
ENDBRANCH   1  15
TORSDOF 4
