REMARK  Name = ZINC36581409
REMARK  18 active torsions:
REMARK  status: ('A' for Active; 'I' for Inactive)
REMARK    1  A    between atoms: C_1  and  C_2
REMARK    2  A    between atoms: C_2  and  C_3
REMARK    3  A    between atoms: C_3  and  C_4
REMARK    4  A    between atoms: C_4  and  N_5
REMARK    5  A    between atoms: C_6  and  C_8
REMARK    6  A    between atoms: C_8  and  C_10
REMARK    7  A    between atoms: C_8  and  N_19
REMARK    8  A    between atoms: C_11  and  O_18
REMARK    9  A    between atoms: C_13  and  O_17
REMARK   10  A    between atoms: C_15  and  O_16
REMARK   11  A    between atoms: N_19  and  C_36
REMARK   12  A    between atoms: C_20  and  C_22
REMARK   13  A    between atoms: C_30  and  C_32
REMARK   14  A    between atoms: C_33  and  C_34
REMARK   15  A    between atoms: C_33  and  C_35
REMARK   16  A    between atoms: C_36  and  C_37
REMARK   17  A    between atoms: C_36  and  C_38
REMARK   18  A    between atoms: C_36  and  C_39
REMARK                            x       y       z     vdW  Elec       q    Type
REMARK                         _______ _______ _______ _____ _____    ______ ____
ROOT
ATOM      1  C   UNL     1      -3.065  -3.903   0.486  0.00  0.00    +0.200 C 
ENDROOT
BRANCH   1   2
ATOM      2  C   UNL     1      -3.583  -3.118   1.663  0.00  0.00    +0.065 A 
ATOM      3  C   UNL     1      -4.875  -3.326   2.121  0.00  0.00    +0.129 A 
ATOM      4  C   UNL     1      -5.352  -2.603   3.204  0.00  0.00    +0.091 A 
ATOM      5  C   UNL     1      -4.537  -1.673   3.830  0.00  0.00    +0.124 A 
ATOM      6  C   UNL     1      -3.244  -1.465   3.373  0.00  0.00    +0.091 A 
ATOM      7  C   UNL     1      -2.766  -2.191   2.292  0.00  0.00    +0.129 A 
BRANCH   7   8
ATOM      8  O   UNL     1      -1.497  -1.990   1.847  0.00  0.00    -0.506 OA
ATOM      9  H   UNL     1      -1.422  -1.304   1.171  0.00  0.00    +0.292 HD
ENDBRANCH   7   8
BRANCH   5  10
ATOM     10  O   UNL     1      -5.004  -0.964   4.891  0.00  0.00    -0.507 OA
ATOM     11  H   UNL     1      -4.845  -1.386   5.747  0.00  0.00    +0.292 HD
ENDBRANCH   5  10
BRANCH   3  12
ATOM     12  O   UNL     1      -5.675  -4.238   1.508  0.00  0.00    -0.506 OA
ATOM     13  H   UNL     1      -5.533  -5.147   1.804  0.00  0.00    +0.292 HD
ENDBRANCH   3  12
ENDBRANCH   1   2
BRANCH   1  15
ATOM     14  N   UNL     1      -4.138  -2.477  -1.226  0.00  0.00    -0.313 N 
ATOM     15  C   UNL     1      -3.982  -3.704  -0.693  0.00  0.00    +0.238 C 
ATOM     16  O   UNL     1      -4.580  -4.650  -1.163  0.00  0.00    -0.273 OA
ATOM     17  H   UNL     1      -3.660  -1.720  -0.851  0.00  0.00    +0.149 HD
BRANCH  14  18
ATOM     18  C   UNL     1      -5.030  -2.284  -2.373  0.00  0.00    +0.104 C 
BRANCH  18  19
ATOM     19  C   UNL     1      -5.027  -0.809  -2.779  0.00  0.00    +0.018 C 
BRANCH  19  21
ATOM     20  C   UNL     1      -5.954   0.868  -4.382  0.00  0.00    +0.004 C 
ATOM     21  C   UNL     1      -5.958  -0.607  -3.976  0.00  0.00    -0.002 C 
ENDBRANCH  19  21
ENDBRANCH  18  19
ENDBRANCH  14  18
ENDBRANCH   1  15
BRANCH   1  22
ATOM     22  N   UNL     1      -3.015  -5.326   0.832  0.00  0.00    -0.280 N 
ATOM     23  C   UNL     1      -3.502  -5.749   2.015  0.00  0.00    +0.220 C 
ATOM     24  O   UNL     1      -3.962  -4.949   2.803  0.00  0.00    -0.275 OA
BRANCH  23  25
ATOM     25  C   UNL     1      -3.475  -7.227   2.362  0.00  0.00    +0.079 C 
ATOM     26  C   UNL     1      -4.465  -7.958   1.462  0.00  0.00    +0.017 C 
ATOM     27  C   UNL     1      -5.188  -9.096   2.181  0.00  0.00    -0.004 C 
ATOM     28  C   UNL     1      -5.971  -8.573   3.406  0.00  0.00    +0.008 C 
ATOM     29  C   UNL     1      -4.600  -8.660   4.123  0.00  0.00    -0.001 C 
ATOM     30  C   UNL     1      -3.800  -7.389   3.841  0.00  0.00    +0.001 C 
ATOM     31  C   UNL     1      -2.521  -7.355   4.683  0.00  0.00    +0.008 C 
ATOM     32  C   UNL     1      -4.318  -9.846   3.199  0.00  0.00    -0.029 C 
ATOM     33  C   UNL     1      -2.868 -10.075   2.786  0.00  0.00    +0.011 C 
ATOM     34  C   UNL     1      -4.961 -11.160   3.687  0.00  0.00    +0.011 C 
ENDBRANCH  23  25
BRANCH  22  35
ATOM     35  C   UNL     1      -2.436  -6.288  -0.109  0.00  0.00    +0.030 C 
ATOM     36  C   UNL     1      -1.410  -5.580  -0.996  0.00  0.00    +0.031 C 
ATOM     37  C   UNL     1      -1.749  -7.412   0.670  0.00  0.00    +0.031 C 
ATOM     38  C   UNL     1      -3.545  -6.878  -0.983  0.00  0.00    +0.031 C 
ENDBRANCH  22  35
ENDBRANCH   1  22
TORSDOF 11
