REMARK  Name = ZINC44166626
REMARK  14 active torsions:
REMARK  status: ('A' for Active; 'I' for Inactive)
REMARK    1  A    between atoms: C_1  and  C_2
REMARK    2  A    between atoms: C_2  and  C_4
REMARK    3  A    between atoms: C_2  and  N_14
REMARK    4  A    between atoms: C_15  and  C_17
REMARK    5  A    between atoms: C_22  and  C_25
REMARK    6  A    between atoms: C_27  and  C_36
REMARK    7  A    between atoms: C_28  and  O_35
REMARK    8  A    between atoms: C_29  and  C_31
REMARK    9  A    between atoms: C_31  and  C_32
REMARK   10  A    between atoms: C_31  and  C_33
REMARK   11  A    between atoms: C_31  and  C_34
REMARK   12  A    between atoms: C_36  and  C_37
REMARK   13  A    between atoms: C_36  and  C_38
REMARK   14  A    between atoms: C_36  and  C_39
REMARK                            x       y       z     vdW  Elec       q    Type
REMARK                         _______ _______ _______ _____ _____    ______ ____
ROOT
ATOM      1  C   UNL     1       2.397  -1.185  -2.497  0.00  0.00    +0.027 C 
ATOM      2  C   UNL     1       1.631  -2.458  -2.876  0.00  0.00    +0.062 C 
ATOM      3  S   UNL     1       1.745  -3.627  -1.485  0.00  0.00    -0.163 S 
ATOM      4  C   UNL     1       3.529  -3.645  -1.125  0.00  0.00    +0.058 C 
ATOM      5  C   UNL     1       4.011  -2.194  -1.008  0.00  0.00    -0.030 C 
ATOM      6  N   UNL     1       3.810  -1.501  -2.281  0.00  0.00    +0.392 N 
ATOM      7  H   UNL     1       4.136  -2.090  -3.034  0.00  0.00    -0.084 HD
ATOM      8  H   UNL     1       4.344  -0.645  -2.277  0.00  0.00    -0.084 HD
ENDROOT
BRANCH   5   9
ATOM      9  C   UNL     1       5.476  -2.179  -0.657  0.00  0.00    -0.060 A 
ATOM     10  C   UNL     1       6.425  -2.374  -1.644  0.00  0.00    +0.009 A 
ATOM     11  C   UNL     1       7.768  -2.362  -1.324  0.00  0.00    -0.000 A 
ATOM     12  C   UNL     1       8.166  -2.153  -0.011  0.00  0.00    +0.124 A 
ATOM     13  C   UNL     1       7.213  -1.957   0.977  0.00  0.00    -0.000 A 
ATOM     14  C   UNL     1       5.870  -1.966   0.651  0.00  0.00    +0.009 A 
BRANCH  13  15
ATOM     15  C   UNL     1       7.641  -1.730   2.404  0.00  0.00    -0.009 C 
ATOM     16  C   UNL     1       6.404  -1.544   3.284  0.00  0.00    +0.015 C 
ATOM     17  C   UNL     1       8.439  -2.940   2.895  0.00  0.00    +0.015 C 
ATOM     18  C   UNL     1       8.515  -0.477   2.481  0.00  0.00    +0.015 C 
ENDBRANCH  13  15
BRANCH  11  19
ATOM     19  C   UNL     1       8.802  -2.576  -2.400  0.00  0.00    -0.009 C 
ATOM     20  C   UNL     1       8.102  -2.781  -3.745  0.00  0.00    +0.015 C 
ATOM     21  C   UNL     1       9.714  -1.350  -2.482  0.00  0.00    +0.015 C 
ATOM     22  C   UNL     1       9.638  -3.813  -2.066  0.00  0.00    +0.015 C 
ENDBRANCH  11  19
BRANCH  12  23
ATOM     23  O   UNL     1       9.488  -2.141   0.306  0.00  0.00    -0.506 OA
ATOM     24  H   UNL     1       9.897  -1.267   0.251  0.00  0.00    +0.292 HD
ENDBRANCH  12  23
ENDBRANCH   5   9
BRANCH   1  26
ATOM     25  N   UNL     1       2.575   0.166  -0.432  0.00  0.00    -0.310 N 
ATOM     26  C   UNL     1       1.814  -0.607  -1.233  0.00  0.00    +0.200 C 
ATOM     27  O   UNL     1       0.661  -0.838  -0.936  0.00  0.00    -0.278 OA
ATOM     28  H   UNL     1       3.497   0.350  -0.670  0.00  0.00    +0.149 HD
BRANCH  25  30
ATOM     29  C   UNL     1       2.220  -0.255   1.951  0.00  0.00    +0.033 C 
ATOM     30  C   UNL     1       2.008   0.727   0.796  0.00  0.00    +0.101 C 
BRANCH  30  31
ATOM     31  C   UNL     1       2.692   2.031   1.115  0.00  0.00    -0.020 A 
ATOM     32  C   UNL     1       3.968   2.255   0.695  0.00  0.00    +0.006 A 
ATOM     33  C   UNL     1       4.616   3.455   0.980  0.00  0.00    +0.001 A 
ATOM     34  C   UNL     1       3.994   4.438   1.686  0.00  0.00    +0.008 A 
ATOM     35  C   UNL     1       2.677   4.243   2.136  0.00  0.00    -0.018 A 
ATOM     36  C   UNL     1       2.015   3.025   1.841  0.00  0.00    -0.013 A 
ATOM     37  C   UNL     1       0.696   2.833   2.287  0.00  0.00    +0.009 A 
ATOM     38  C   UNL     1       0.071   3.818   2.988  0.00  0.00    +0.001 A 
ATOM     39  C   UNL     1       0.720   5.018   3.272  0.00  0.00    +0.001 A 
ATOM     40  C   UNL     1       2.002   5.235   2.869  0.00  0.00    +0.008 A 
ENDBRANCH  30  31
ENDBRANCH  25  30
ENDBRANCH   1  26
TORSDOF 7
