REMARK  Name = ZINC14478625
REMARK  4 active torsions:
REMARK  status: ('A' for Active; 'I' for Inactive)
REMARK    1  A    between atoms: C_1  and  C_2
REMARK    2  A    between atoms: C_7  and  C_8
REMARK    3  A    between atoms: C_19  and  N_25
REMARK    4  A    between atoms: C_21  and  O_24
REMARK                            x       y       z     vdW  Elec       q    Type
REMARK                         _______ _______ _______ _____ _____    ______ ____
ROOT
ATOM      1  C   UNL     1       1.688  -0.481  -2.287  0.00  0.00    +0.105 C 
ATOM      2  C   UNL     1       2.018  -0.682  -0.807  0.00  0.00    +0.029 C 
ATOM      3  C   UNL     1       0.769  -0.268   0.021  0.00  0.00    +0.033 C 
ATOM      4  C   UNL     1       0.890   1.240   0.118  0.00  0.00    -0.030 C 
ATOM      5  C   UNL     1       2.128   1.616  -0.088  0.00  0.00    -0.023 C 
ATOM      6  C   UNL     1       3.006   0.416  -0.360  0.00  0.00    +0.049 C 
ATOM      7  C   UNL     1       4.008   0.727  -1.433  0.00  0.00    -0.014 A 
ATOM      8  C   UNL     1       5.054   1.587  -1.120  0.00  0.00    +0.039 A 
ATOM      9  C   UNL     1       6.003   1.917  -2.064  0.00  0.00    +0.130 A 
ATOM     10  C   UNL     1       5.922   1.391  -3.341  0.00  0.00    +0.080 A 
ATOM     11  C   UNL     1       4.886   0.534  -3.665  0.00  0.00    +0.140 A 
ATOM     12  C   UNL     1       3.924   0.198  -2.708  0.00  0.00    +0.074 A 
ATOM     13  N   UNL     1       2.899  -0.673  -3.086  0.00  0.00    -0.334 N 
ATOM     14  H   UNL     1       2.699  -0.590  -4.072  0.00  0.00    +0.147 HD
ENDROOT
BRANCH   1  21
ATOM     15  C   UNL     1       0.203  -0.075  -4.732  0.00  0.00    +0.044 C 
ATOM     16  C   UNL     1      -0.067  -1.287  -3.879  0.00  0.00    -0.045 A 
ATOM     17  C   UNL     1      -1.026  -2.205  -4.266  0.00  0.00    +0.004 A 
ATOM     18  C   UNL     1      -1.274  -3.317  -3.484  0.00  0.00    +0.000 A 
ATOM     19  C   UNL     1      -0.563  -3.512  -2.314  0.00  0.00    +0.000 A 
ATOM     20  C   UNL     1       0.399  -2.597  -1.929  0.00  0.00    +0.006 A 
ATOM     21  C   UNL     1       0.643  -1.482  -2.709  0.00  0.00    -0.024 A 
ENDBRANCH   1  21
BRANCH   9  22
ATOM     22  N   UNL     1       7.109   2.835  -1.711  0.00  0.00    +0.057 N 
ATOM     23  O   UNL     1       7.947   3.127  -2.545  0.00  0.00    -0.126 OA
ATOM     24  O   UNL     1       7.181   3.298  -0.587  0.00  0.00    -0.126 OA
ENDBRANCH   9  22
BRANCH  11  25
ATOM     25  O   UNL     1       4.804   0.016  -4.919  0.00  0.00    -0.505 OA
ATOM     26  H   UNL     1       4.288   0.555  -5.535  0.00  0.00    +0.292 HD
ENDBRANCH  11  25
TORSDOF 3
