REMARK  Name = ZINC31778757
REMARK  8 active torsions:
REMARK  status: ('A' for Active; 'I' for Inactive)
REMARK    1  A    between atoms: C_6  and  N_7
REMARK    2  A    between atoms: C_8  and  N_28
REMARK    3  A    between atoms: C_9  and  C_26
REMARK    4  A    between atoms: C_10  and  C_12
REMARK    5  A    between atoms: C_12  and  C_13
REMARK    6  A    between atoms: C_13  and  C_14
REMARK    7  A    between atoms: C_14  and  N_15
REMARK    8  A    between atoms: C_16  and  C_18
REMARK                            x       y       z     vdW  Elec       q    Type
REMARK                         _______ _______ _______ _____ _____    ______ ____
ROOT
ATOM      1  N   UNL     1      -8.948  -0.481  -0.614  0.00  0.00    -0.217 N 
ATOM      2  C   UNL     1      -8.973  -0.516   0.738  0.00  0.00    +0.138 A 
ATOM      3  C   UNL     1      -7.979   0.348   1.188  0.00  0.00    +0.114 A 
ATOM      4  C   UNL     1      -7.360   0.899   0.042  0.00  0.00    +0.083 A 
ATOM      5  N   UNL     1      -7.944   0.406  -1.015  0.00  0.00    -0.168 NA
ENDROOT
BRANCH   1  11
ATOM      6  C   UNL     1     -10.196  -2.489  -1.120  0.00  0.00    +0.030 A 
ATOM      7  C   UNL     1     -11.027  -3.202  -1.961  0.00  0.00    +0.040 A 
ATOM      8  C   UNL     1     -11.448  -2.643  -3.156  0.00  0.00    +0.124 A 
ATOM      9  C   UNL     1     -11.040  -1.367  -3.508  0.00  0.00    +0.040 A 
ATOM     10  C   UNL     1     -10.212  -0.650  -2.667  0.00  0.00    +0.030 A 
ATOM     11  C   UNL     1      -9.789  -1.208  -1.468  0.00  0.00    +0.068 A 
ATOM     12  F   UNL     1     -12.258  -3.344  -3.980  0.00  0.00    -0.205 F 
ENDBRANCH   1  11
BRANCH   2  13
ATOM     13  N   UNL     1      -9.826  -1.268   1.524  0.00  0.00    -0.342 N 
ATOM     14  H   UNL     1      -9.753  -1.215   2.620  0.00  0.00    +0.144 HD
ATOM     15  H   UNL     1     -10.577  -1.919   1.053  0.00  0.00    +0.144 HD
ENDBRANCH   2  13
BRANCH   3  16
ATOM     16  C   UNL     1      -7.645   0.625   2.553  0.00  0.00    +0.104 C 
ATOM     17  N   UNL     1      -7.381   0.845   3.635  0.00  0.00    -0.191 NA
ENDBRANCH   3  16
BRANCH   4  18
ATOM     18  C   UNL     1      -6.226   1.891   0.042  0.00  0.00    +0.060 C 
BRANCH  18  19
ATOM     19  C   UNL     1      -4.892   1.141   0.031  0.00  0.00    +0.025 C 
BRANCH  19  20
ATOM     20  C   UNL     1      -3.740   2.148   0.031  0.00  0.00    +0.105 C 
BRANCH  20  21
ATOM     21  N   UNL     1      -2.464   1.430   0.021  0.00  0.00    -0.311 N 
ATOM     22  C   UNL     1      -1.304   2.117   0.020  0.00  0.00    +0.245 C 
ATOM     23  O   UNL     1      -1.318   3.332   0.026  0.00  0.00    -0.270 OA
ATOM     24  H   UNL     1      -2.452   0.330   0.015  0.00  0.00    +0.149 HD
BRANCH  22  25
ATOM     25  C   UNL     1      -0.017   1.392   0.010  0.00  0.00    +0.055 A 
ATOM     26  C   UNL     1       0.002  -0.004   0.002  0.00  0.00    +0.016 A 
ATOM     27  C   UNL     1       1.206  -0.674  -0.013  0.00  0.00    +0.021 A 
ATOM     28  C   UNL     1       2.397   0.034  -0.021  0.00  0.00    +0.042 A 
ATOM     29  C   UNL     1       2.387   1.418  -0.013  0.00  0.00    +0.040 A 
ATOM     30  C   UNL     1       1.187   2.102   0.002  0.00  0.00    +0.054 A 
ATOM     31 CL   UNL     1       1.175   3.837   0.011  0.00  0.00    -0.083 Cl
ATOM     32 CL   UNL     1       3.910  -0.819  -0.039  0.00  0.00    -0.083 Cl
ENDBRANCH  22  25
ENDBRANCH  20  21
ENDBRANCH  19  20
ENDBRANCH  18  19
ENDBRANCH   4  18
TORSDOF 8
