REMARK  Name = ZINC09595374
REMARK  17 active torsions:
REMARK  status: ('A' for Active; 'I' for Inactive)
REMARK    1  A    between atoms: C_1  and  C_2
REMARK    2  A    between atoms: C_4  and  O_35
REMARK    3  A    between atoms: C_5  and  C_9
REMARK    4  A    between atoms: C_9  and  C_11
REMARK    5  A    between atoms: C_9  and  C_20
REMARK    6  A    between atoms: C_14  and  N_17
REMARK    7  A    between atoms: N_17  and  C_18
REMARK    8  A    between atoms: N_17  and  C_19
REMARK    9  A    between atoms: C_22  and  C_31
REMARK   10  A    between atoms: C_23  and  O_30
REMARK   11  A    between atoms: C_24  and  C_26
REMARK   12  A    between atoms: C_26  and  C_27
REMARK   13  A    between atoms: C_26  and  C_28
REMARK   14  A    between atoms: C_26  and  C_29
REMARK   15  A    between atoms: C_31  and  C_32
REMARK   16  A    between atoms: C_31  and  C_33
REMARK   17  A    between atoms: C_31  and  C_34
REMARK                            x       y       z     vdW  Elec       q    Type
REMARK                         _______ _______ _______ _____ _____    ______ ____
ROOT
ATOM      1  C   UNL     1      -4.368  -1.088  -0.874  0.00  0.00    +0.089 C 
ENDROOT
BRANCH   1   6
ATOM      2  C   UNL     1      -3.020   2.293  -5.338  0.00  0.00    +0.086 C 
ATOM      3  C   UNL     1      -3.370   1.395  -4.180  0.00  0.00    +0.110 A 
ATOM      4  C   UNL     1      -3.327   0.059  -4.343  0.00  0.00    +0.087 A 
ATOM      5  C   UNL     1      -3.653  -0.791  -3.263  0.00  0.00    +0.131 A 
ATOM      6  C   UNL     1      -4.012  -0.221  -2.055  0.00  0.00    +0.090 A 
ATOM      7  C   UNL     1      -4.044   1.175  -1.949  0.00  0.00    +0.345 A 
ATOM      8  O   UNL     1      -4.363   1.698  -0.894  0.00  0.00    -0.245 OA
ATOM      9  O   UNL     1      -3.719   1.939  -3.006  0.00  0.00    -0.427 OA
BRANCH   5  10
ATOM     10  O   UNL     1      -3.616  -2.136  -3.407  0.00  0.00    -0.506 OA
ATOM     11  H   UNL     1      -4.451  -2.524  -3.702  0.00  0.00    +0.292 HD
ENDBRANCH   5  10
ENDBRANCH   1   6
BRANCH   1  12
ATOM     12  C   UNL     1      -3.574  -2.367  -0.932  0.00  0.00    -0.035 A 
ATOM     13  C   UNL     1      -4.222  -3.586  -0.851  0.00  0.00    +0.006 A 
ATOM     14  C   UNL     1      -3.498  -4.760  -0.909  0.00  0.00    +0.023 A 
ATOM     15  C   UNL     1      -2.116  -4.716  -1.039  0.00  0.00    +0.029 A 
ATOM     16  C   UNL     1      -1.467  -3.490  -1.115  0.00  0.00    +0.023 A 
ATOM     17  C   UNL     1      -2.198  -2.320  -1.062  0.00  0.00    +0.006 A 
BRANCH  15  18
ATOM     18  N   UNL     1      -1.379  -5.902  -1.093  0.00  0.00    -0.336 N 
ATOM     19  C   UNL     1       0.059  -5.859  -1.364  0.00  0.00    +0.129 C 
ATOM     20  C   UNL     1      -2.046  -7.189  -0.877  0.00  0.00    +0.129 C 
ENDBRANCH  15  18
ENDBRANCH   1  12
BRANCH   1  21
ATOM     21  C   UNL     1      -4.047  -0.354   0.403  0.00  0.00    -0.035 A 
ATOM     22  C   UNL     1      -5.025  -0.181   1.364  0.00  0.00    +0.012 A 
ATOM     23  C   UNL     1      -4.733   0.490   2.535  0.00  0.00    -0.000 A 
ATOM     24  C   UNL     1      -3.456   0.991   2.746  0.00  0.00    +0.124 A 
ATOM     25  C   UNL     1      -2.477   0.817   1.780  0.00  0.00    -0.000 A 
ATOM     26  C   UNL     1      -2.776   0.149   0.608  0.00  0.00    +0.012 A 
BRANCH  25  27
ATOM     27  C   UNL     1      -1.089   1.360   2.006  0.00  0.00    -0.009 C 
ATOM     28  C   UNL     1      -0.210   1.033   0.796  0.00  0.00    +0.015 C 
ATOM     29  C   UNL     1      -0.489   0.720   3.259  0.00  0.00    +0.015 C 
ATOM     30  C   UNL     1      -1.159   2.877   2.191  0.00  0.00    +0.015 C 
ENDBRANCH  25  27
BRANCH  23  31
ATOM     31  C   UNL     1      -5.799   0.679   3.583  0.00  0.00    -0.009 C 
ATOM     32  C   UNL     1      -7.103   0.036   3.105  0.00  0.00    +0.015 C 
ATOM     33  C   UNL     1      -5.354   0.017   4.889  0.00  0.00    +0.015 C 
ATOM     34  C   UNL     1      -6.024   2.174   3.819  0.00  0.00    +0.015 C 
ENDBRANCH  23  31
BRANCH  24  35
ATOM     35  O   UNL     1      -3.166   1.653   3.898  0.00  0.00    -0.506 OA
ATOM     36  H   UNL     1      -3.320   2.606   3.853  0.00  0.00    +0.292 HD
ENDBRANCH  24  35
ENDBRANCH   1  21
TORSDOF 8
