REMARK  Name = ZINC38742261
REMARK  4 active torsions:
REMARK  status: ('A' for Active; 'I' for Inactive)
REMARK    1  A    between atoms: C_1  and  C_2
REMARK    2  A    between atoms: C_4  and  C_8
REMARK    3  A    between atoms: C_16  and  C_18
REMARK    4  A    between atoms: C_18  and  C_19
REMARK                            x       y       z     vdW  Elec       q    Type
REMARK                         _______ _______ _______ _____ _____    ______ ____
ROOT
ATOM      1  C   UNL     1      -0.964  -2.951   1.248  0.00  0.00    +0.206 C 
ATOM      2  N   UNL     1      -0.415  -2.296   2.459  0.00  0.00    -0.231 NA
ATOM      3  N   UNL     1       0.538  -3.248   3.055  0.00  0.00    -0.224 NA
ATOM      4  C   UNL     1       0.934  -4.082   1.903  0.00  0.00    +0.240 C 
ATOM      5  N   UNL     1      -0.393  -4.317   1.241  0.00  0.00    -0.206 N 
ATOM      6  N   UNL     1      -0.646  -5.642   0.959  0.00  0.00    -0.178 NA
ATOM      7  C   UNL     1       0.041  -6.616   1.455  0.00  0.00    +0.099 C 
ATOM      8  S   UNL     1       1.350  -5.790   2.416  0.00  0.00    -0.068 S 
ATOM      9  H   UNL     1      -1.150  -2.065   3.111  0.00  0.00    +0.143 HD
ATOM     10  H   UNL     1       0.094  -3.805   3.769  0.00  0.00    +0.144 HD
ENDROOT
BRANCH   1  14
ATOM     11  C   UNL     1      -0.018   1.503   0.010  0.00  0.00    +0.067 C 
ATOM     12  C   UNL     1       0.002  -0.004   0.002  0.00  0.00    +0.058 C 
ATOM     13  C   UNL     1      -1.086  -0.777   0.003  0.00  0.00    +0.029 C 
ATOM     14  C   UNL     1      -0.531  -2.190  -0.007  0.00  0.00    +0.190 C 
ATOM     15  N   UNL     1       0.926  -1.973  -0.013  0.00  0.00    -0.177 NA
ATOM     16  N   UNL     1       1.125  -0.756  -0.013  0.00  0.00    -0.159 NA
ENDBRANCH   1  14
BRANCH   7  17
ATOM     17  C   UNL     1      -0.179  -8.096   1.272  0.00  0.00    +0.112 C 
BRANCH  17  18
ATOM     18  C   UNL     1      -1.394  -8.323   0.369  0.00  0.00    +0.217 C 
ATOM     19  C   UNL     1      -1.690  -9.825   0.268  0.00  0.00    +0.274 C 
ATOM     20  O   UNL     1      -2.820 -10.002  -0.592  0.00  0.00    -0.485 OA
ATOM     21  C   UNL     1      -2.814  -9.305  -1.761  0.00  0.00    +0.162 A 
ATOM     22  C   UNL     1      -3.666  -9.687  -2.787  0.00  0.00    +0.049 A 
ATOM     23  C   UNL     1      -3.673  -8.987  -3.978  0.00  0.00    +0.004 A 
ATOM     24  C   UNL     1      -2.833  -7.903  -4.151  0.00  0.00    +0.004 A 
ATOM     25  C   UNL     1      -1.981  -7.518  -3.134  0.00  0.00    +0.049 A 
ATOM     26  C   UNL     1      -1.967  -8.217  -1.936  0.00  0.00    +0.162 A 
ATOM     27  O   UNL     1      -1.116  -7.830  -0.946  0.00  0.00    -0.481 OA
ENDBRANCH  17  18
ENDBRANCH   7  17
TORSDOF 3
