REMARK  Name = ZINC34683894
REMARK  10 active torsions:
REMARK  status: ('A' for Active; 'I' for Inactive)
REMARK    1  A    between atoms: C_1  and  C_2
REMARK    2  A    between atoms: C_5  and  S_8
REMARK    3  A    between atoms: S_8  and  N_11
REMARK    4  A    between atoms: N_11  and  C_12
REMARK    5  A    between atoms: N_11  and  C_18
REMARK    6  A    between atoms: N_21  and  C_24
REMARK    7  A    between atoms: C_24  and  C_25
REMARK    8  A    between atoms: C_28  and  O_33
REMARK    9  A    between atoms: C_29  and  O_31
REMARK   10  A    between atoms: O_31  and  C_32
REMARK                            x       y       z     vdW  Elec       q    Type
REMARK                         _______ _______ _______ _____ _____    ______ ____
ROOT
ATOM      1  C   UNL     1       2.003  -5.892  -1.141  0.00  0.00    +0.095 C 
ATOM      2  C   UNL     1       1.709  -7.341  -0.744  0.00  0.00    +0.006 C 
ATOM      3  C   UNL     1       2.153  -8.274  -1.873  0.00  0.00    -0.077 C 
ATOM      4  N   UNL     1       3.593  -8.112  -2.109  0.00  0.00    +0.382 N 
ATOM      5  C   UNL     1       3.873  -6.743  -2.559  0.00  0.00    -0.077 C 
ATOM      6  C   UNL     1       3.495  -5.752  -1.457  0.00  0.00    +0.006 C 
ATOM      7  H   UNL     1       4.095  -8.293  -1.253  0.00  0.00    -0.081 HD
ENDROOT
BRANCH   1   8
ATOM      8  N   UNL     1       1.651  -4.999  -0.034  0.00  0.00    -0.200 N 
BRANCH   8   9
ATOM      9  C   UNL     1       2.313  -5.111   1.191  0.00  0.00    +0.052 A 
ATOM     10  C   UNL     1       3.459  -4.364   1.433  0.00  0.00    +0.025 A 
ATOM     11  C   UNL     1       4.110  -4.477   2.646  0.00  0.00    +0.002 A 
ATOM     12  C   UNL     1       3.624  -5.332   3.617  0.00  0.00    +0.000 A 
ATOM     13  C   UNL     1       2.483  -6.077   3.379  0.00  0.00    +0.002 A 
ATOM     14  C   UNL     1       1.823  -5.965   2.171  0.00  0.00    +0.025 A 
ENDBRANCH   8   9
BRANCH   8  15
ATOM     15  S   UNL     1       0.468  -3.858  -0.235  0.00  0.00    +0.075 S 
ATOM     16  O   UNL     1      -0.099  -3.631   1.048  0.00  0.00    -0.150 OA
ATOM     17  O   UNL     1      -0.311  -4.272  -1.349  0.00  0.00    -0.150 OA
BRANCH  15  22
ATOM     18  C   UNL     1       3.193   1.277  -1.850  0.00  0.00    +0.044 C 
ATOM     19  C   UNL     1       2.513  -0.006  -1.446  0.00  0.00    -0.050 A 
ATOM     20  C   UNL     1       2.099  -0.903  -2.414  0.00  0.00    +0.005 A 
ATOM     21  C   UNL     1       1.475  -2.079  -2.044  0.00  0.00    +0.029 A 
ATOM     22  C   UNL     1       1.264  -2.359  -0.707  0.00  0.00    +0.109 A 
ATOM     23  C   UNL     1       1.678  -1.462   0.261  0.00  0.00    +0.029 A 
ATOM     24  C   UNL     1       2.307  -0.288  -0.109  0.00  0.00    +0.005 A 
ENDBRANCH  15  22
ENDBRANCH   8  15
ENDBRANCH   1   8
BRANCH   4  25
ATOM     25  C   UNL     1       4.029  -9.064  -3.139  0.00  0.00    -0.043 C 
BRANCH  25  26
ATOM     26  C   UNL     1       5.526  -8.985  -3.295  0.00  0.00    -0.060 A 
ATOM     27  C   UNL     1       6.079  -8.098  -4.200  0.00  0.00    +0.005 A 
ATOM     28  C   UNL     1       7.452  -8.022  -4.346  0.00  0.00    +0.049 A 
ATOM     29  C   UNL     1       8.276  -8.835  -3.584  0.00  0.00    +0.158 A 
ATOM     30  C   UNL     1       7.719  -9.727  -2.673  0.00  0.00    +0.161 A 
ATOM     31  C   UNL     1       6.343  -9.795  -2.528  0.00  0.00    +0.051 A 
BRANCH  30  32
ATOM     32  O   UNL     1       8.524 -10.527  -1.924  0.00  0.00    -0.491 OA
ATOM     33  C   UNL     1       7.882 -11.418  -1.009  0.00  0.00    +0.277 C 
ENDBRANCH  30  32
BRANCH  29  34
ATOM     34  O   UNL     1       9.627  -8.762  -3.728  0.00  0.00    -0.503 OA
ATOM     35  H   UNL     1      10.050  -8.120  -3.141  0.00  0.00    +0.292 HD
ENDBRANCH  29  34
ENDBRANCH  25  26
ENDBRANCH   4  25
TORSDOF 8
