REMARK  Name = ZINC59461657
REMARK  8 active torsions:
REMARK  status: ('A' for Active; 'I' for Inactive)
REMARK    1  A    between atoms: C_1  and  C_2
REMARK    2  A    between atoms: C_5  and  N_9
REMARK    3  A    between atoms: C_6  and  C_8
REMARK    4  A    between atoms: N_9  and  N_10
REMARK    5  A    between atoms: C_12  and  C_30
REMARK    6  A    between atoms: C_19  and  C_22
REMARK    7  A    between atoms: C_25  and  O_28
REMARK    8  A    between atoms: O_28  and  C_29
REMARK                            x       y       z     vdW  Elec       q    Type
REMARK                         _______ _______ _______ _____ _____    ______ ____
ROOT
ATOM      1  N   UNL     1      -0.021  -4.678  -1.428  0.00  0.00    -0.175 NA
ATOM      2  C   UNL     1      -0.115  -5.989  -1.545  0.00  0.00    +0.173 C 
ATOM      3  C   UNL     1      -0.046  -6.998  -0.467  0.00  0.00    +0.122 C 
ATOM      4  N   UNL     1      -0.184  -8.172  -1.024  0.00  0.00    -0.168 NA
ATOM      5  N   UNL     1      -0.342  -8.062  -2.405  0.00  0.00    -0.130 N 
ATOM      6  C   UNL     1      -0.315  -6.768  -2.778  0.00  0.00    +0.294 C 
ATOM      7  O   UNL     1      -0.431  -6.330  -3.910  0.00  0.00    -0.266 OA
ATOM      8  C   UNL     1      -0.510  -9.136  -3.272  0.00  0.00    +0.189 A 
ATOM      9  N   UNL     1      -0.562 -10.428  -3.003  0.00  0.00    -0.223 NA
ATOM     10  C   UNL     1      -0.731 -11.324  -3.963  0.00  0.00    +0.080 A 
ATOM     11  C   UNL     1      -0.853 -10.905  -5.258  0.00  0.00    +0.077 A 
ATOM     12  S   UNL     1      -0.722  -9.134  -5.047  0.00  0.00    -0.058 S 
ENDROOT
BRANCH  10  13
ATOM     13  C   UNL     1      -0.785 -12.770  -3.635  0.00  0.00    +0.001 A 
ATOM     14  C   UNL     1      -0.956 -13.710  -4.651  0.00  0.00    +0.013 A 
ATOM     15  C   UNL     1      -1.006 -15.053  -4.343  0.00  0.00    +0.046 A 
ATOM     16  C   UNL     1      -0.886 -15.470  -3.025  0.00  0.00    +0.120 A 
ATOM     17  C   UNL     1      -0.716 -14.537  -2.011  0.00  0.00    +0.046 A 
ATOM     18  C   UNL     1      -0.659 -13.192  -2.313  0.00  0.00    +0.013 A 
BRANCH  16  19
ATOM     19  O   UNL     1      -0.936 -16.795  -2.725  0.00  0.00    -0.495 OA
ATOM     20  C   UNL     1      -0.806 -17.154  -1.348  0.00  0.00    +0.277 C 
ENDBRANCH  16  19
ENDBRANCH  10  13
BRANCH   3  21
ATOM     21  C   UNL     1       0.143  -6.728   0.977  0.00  0.00    +0.004 A 
ATOM     22  C   UNL     1      -0.962  -6.640   1.824  0.00  0.00    +0.010 A 
ATOM     23  C   UNL     1      -0.780  -6.388   3.168  0.00  0.00    +0.001 A 
ATOM     24  C   UNL     1       0.496  -6.222   3.676  0.00  0.00    +0.000 A 
ATOM     25  C   UNL     1       1.596  -6.308   2.842  0.00  0.00    +0.001 A 
ATOM     26  C   UNL     1       1.427  -6.566   1.497  0.00  0.00    +0.010 A 
ENDBRANCH   3  21
BRANCH   1  27
ATOM     27  N   UNL     1       0.037  -4.138  -0.258  0.00  0.00    -0.237 N 
ATOM     28  H   UNL     1       0.082  -4.698   0.533  0.00  0.00    +0.174 HD
BRANCH  27  33
ATOM     29  C   UNL     1       0.032   1.507   0.261  0.00  0.00    +0.044 C 
ATOM     30  C   UNL     1       0.033   0.006   0.123  0.00  0.00    -0.050 A 
ATOM     31  C   UNL     1       0.083  -0.571  -1.133  0.00  0.00    +0.005 A 
ATOM     32  C   UNL     1       0.085  -1.945  -1.263  0.00  0.00    +0.025 A 
ATOM     33  C   UNL     1       0.036  -2.749  -0.130  0.00  0.00    +0.051 A 
ATOM     34  C   UNL     1      -0.014  -2.166   1.130  0.00  0.00    -0.028 A 
ATOM     35  C   UNL     1      -0.010  -0.790   1.253  0.00  0.00    +0.008 A 
ATOM     36  C   UNL     1      -0.067  -3.033   2.362  0.00  0.00    +0.046 C 
ENDBRANCH  27  33
ENDBRANCH   1  27
TORSDOF 5
