REMARK  Name = ZINC39686721
REMARK  12 active torsions:
REMARK  status: ('A' for Active; 'I' for Inactive)
REMARK    1  A    between atoms: C_1  and  C_2
REMARK    2  A    between atoms: C_2  and  C_3
REMARK    3  A    between atoms: C_3  and  C_5
REMARK    4  A    between atoms: C_3  and  C_6
REMARK    5  A    between atoms: C_6  and  C_7
REMARK    6  A    between atoms: C_11  and  C_20
REMARK    7  A    between atoms: N_22  and  C_23
REMARK    8  A    between atoms: C_23  and  C_25
REMARK    9  A    between atoms: C_23  and  C_26
REMARK   10  A    between atoms: C_26  and  C_27
REMARK   11  A    between atoms: C_32  and  O_33
REMARK   12  A    between atoms: O_33  and  C_34
REMARK                            x       y       z     vdW  Elec       q    Type
REMARK                         _______ _______ _______ _____ _____    ______ ____
ROOT
ATOM      1  C   UNL     1      -2.582  -1.905   0.336  0.00  0.00    +0.216 C 
ATOM      2  O   UNL     1      -3.509  -1.123   0.336  0.00  0.00    -0.276 OA
ATOM      3  N   UNL     1      -2.782  -3.186  -0.032  0.00  0.00    -0.300 N 
ATOM      4  C   UNL     1      -1.767  -4.255  -0.187  0.00  0.00    +0.121 C 
ATOM      5  C   UNL     1      -2.448  -5.524   0.375  0.00  0.00    +0.100 C 
ATOM      6  C   UNL     1      -3.956  -5.249   0.249  0.00  0.00    -0.004 C 
ATOM      7  C   UNL     1      -4.067  -3.846  -0.366  0.00  0.00    +0.115 C 
ATOM      8  C   UNL     1      -4.613  -5.269   1.625  0.00  0.00    -0.010 C 
ATOM      9  C   UNL     1      -6.121  -5.049   1.469  0.00  0.00    -0.082 C 
ATOM     10  N   UNL     1      -6.685  -6.106   0.620  0.00  0.00    +0.379 N 
ATOM     11  C   UNL     1      -6.114  -6.021  -0.730  0.00  0.00    -0.082 C 
ATOM     12  C   UNL     1      -4.607  -6.281  -0.667  0.00  0.00    -0.010 C 
ATOM     13  H   UNL     1      -6.469  -7.007   1.018  0.00  0.00    -0.086 HD
ATOM     14  H   UNL     1      -7.686  -5.995   0.568  0.00  0.00    -0.086 HD
ENDROOT
BRANCH   5  15
ATOM     15  C   UNL     1      -2.068  -5.727   1.819  0.00  0.00    +0.218 C 
ATOM     16  O   UNL     1      -1.881  -4.768   2.538  0.00  0.00    -0.275 OA
ATOM     17  N   UNL     1      -1.937  -6.975   2.312  0.00  0.00    -0.312 N 
ATOM     18  H   UNL     1      -2.016  -7.740   1.722  0.00  0.00    +0.149 HD
BRANCH  17  19
ATOM     19  C   UNL     1      -1.674  -7.175   3.739  0.00  0.00    +0.074 C 
ATOM     20  C   UNL     1      -3.002  -7.253   4.496  0.00  0.00    +0.028 C 
BRANCH  19  21
ATOM     21  C   UNL     1      -0.896  -8.477   3.938  0.00  0.00    +0.060 C 
BRANCH  21  22
ATOM     22  C   UNL     1       0.458  -8.357   3.287  0.00  0.00    -0.004 A 
ATOM     23  C   UNL     1       0.654  -8.835   2.006  0.00  0.00    +0.007 A 
ATOM     24  C   UNL     1       1.896  -8.726   1.409  0.00  0.00    +0.000 A 
ATOM     25  C   UNL     1       2.945  -8.138   2.092  0.00  0.00    +0.004 A 
ATOM     26  C   UNL     1       2.754  -7.659   3.373  0.00  0.00    +0.046 A 
ATOM     27  C   UNL     1       1.506  -7.762   3.973  0.00  0.00    +0.123 A 
BRANCH  27  28
ATOM     28  O   UNL     1       1.314  -7.286   5.231  0.00  0.00    -0.495 OA
ATOM     29  C   UNL     1       2.439  -6.685   5.876  0.00  0.00    +0.277 C 
ENDBRANCH  27  28
ENDBRANCH  21  22
ENDBRANCH  19  21
ENDBRANCH  17  19
ENDBRANCH   5  15
BRANCH   1  30
ATOM     30  C   UNL     1      -1.208  -1.445   0.748  0.00  0.00    +0.099 C 
BRANCH  30  31
ATOM     31  C   UNL     1      -1.284  -0.006   1.261  0.00  0.00    -0.006 C 
ATOM     32  C   UNL     1      -2.103   0.032   2.554  0.00  0.00    +0.008 C 
BRANCH  31  34
ATOM     33  C   UNL     1       0.063   1.995   1.914  0.00  0.00    +0.004 C 
ATOM     34  C   UNL     1       0.128   0.513   1.537  0.00  0.00    +0.000 C 
ENDBRANCH  31  34
ENDBRANCH  30  31
ENDBRANCH   1  30
TORSDOF 8
