REMARK  Name = ZINC39687075
REMARK  9 active torsions:
REMARK  status: ('A' for Active; 'I' for Inactive)
REMARK    1  A    between atoms: C_1  and  C_2
REMARK    2  A    between atoms: C_2  and  C_4
REMARK    3  A    between atoms: C_2  and  N_12
REMARK    4  A    between atoms: C_4  and  C_5
REMARK    5  A    between atoms: C_13  and  C_15
REMARK    6  A    between atoms: C_26  and  C_28
REMARK    7  A    between atoms: C_31  and  O_38
REMARK    8  A    between atoms: C_32  and  C_34
REMARK    9  A    between atoms: O_38  and  C_39
REMARK                            x       y       z     vdW  Elec       q    Type
REMARK                         _______ _______ _______ _____ _____    ______ ____
ROOT
ATOM      1  C   UNL     1       0.559  -0.452  -3.536  0.00  0.00    +0.100 C 
ATOM      2  C   UNL     1       1.780   0.317  -4.089  0.00  0.00    +0.121 C 
ATOM      3  N   UNL     1       1.671   0.184  -5.561  0.00  0.00    -0.296 N 
ATOM      4  C   UNL     1       0.220   0.316  -5.836  0.00  0.00    +0.115 C 
ATOM      5  C   UNL     1      -0.463  -0.449  -4.686  0.00  0.00    -0.004 C 
ATOM      6  C   UNL     1      -1.738   0.271  -4.258  0.00  0.00    -0.010 C 
ATOM      7  C   UNL     1      -2.760   0.209  -5.396  0.00  0.00    -0.082 C 
ATOM      8  N   UNL     1      -3.051  -1.192  -5.720  0.00  0.00    +0.379 N 
ATOM      9  C   UNL     1      -1.839  -1.853  -6.220  0.00  0.00    -0.082 C 
ATOM     10  C   UNL     1      -0.778  -1.879  -5.116  0.00  0.00    -0.010 C 
ATOM     11  C   UNL     1       2.666  -0.012  -6.449  0.00  0.00    +0.247 C 
ATOM     12  O   UNL     1       3.799  -0.216  -6.057  0.00  0.00    -0.270 OA
ATOM     13  H   UNL     1      -3.374  -1.668  -4.891  0.00  0.00    -0.086 HD
ATOM     14  H   UNL     1      -3.769  -1.231  -6.428  0.00  0.00    -0.086 HD
ENDROOT
BRANCH  11  15
ATOM     15  C   UNL     1       2.380   0.020  -7.896  0.00  0.00    +0.038 A 
ATOM     16  C   UNL     1       1.238   0.671  -8.371  0.00  0.00    +0.016 A 
ATOM     17  C   UNL     1       0.976   0.699  -9.722  0.00  0.00    +0.047 A 
ATOM     18  C   UNL     1       1.844   0.081 -10.614  0.00  0.00    +0.132 A 
ATOM     19  C   UNL     1       2.980  -0.569 -10.146  0.00  0.00    +0.097 A 
ATOM     20  C   UNL     1       3.253  -0.597  -8.796  0.00  0.00    +0.029 A 
BRANCH  19  21
ATOM     21  C   UNL     1       3.918  -1.238 -11.117  0.00  0.00    +0.421 C 
ATOM     22  F   UNL     1       4.980  -1.819 -10.415  0.00  0.00    -0.166 F 
ATOM     23  F   UNL     1       3.228  -2.230 -11.823  0.00  0.00    -0.166 F 
ATOM     24  F   UNL     1       4.417  -0.288 -12.015  0.00  0.00    -0.166 F 
ENDBRANCH  19  21
BRANCH  18  25
ATOM     25  O   UNL     1       1.581   0.110 -11.945  0.00  0.00    -0.495 OA
ATOM     26  C   UNL     1       0.396   0.794 -12.358  0.00  0.00    +0.277 C 
ENDBRANCH  18  25
ENDBRANCH  11  15
BRANCH   1  28
ATOM     27  N   UNL     1      -0.535  -0.457  -1.318  0.00  0.00    -0.312 N 
ATOM     28  C   UNL     1      -0.005   0.256  -2.331  0.00  0.00    +0.218 C 
ATOM     29  O   UNL     1       0.019   1.467  -2.273  0.00  0.00    -0.275 OA
ATOM     30  H   UNL     1      -0.554  -1.426  -1.365  0.00  0.00    +0.149 HD
BRANCH  27  32
ATOM     31  C   UNL     1       0.043   0.526   0.845  0.00  0.00    +0.028 C 
ATOM     32  C   UNL     1      -1.084   0.231  -0.146  0.00  0.00    +0.074 C 
BRANCH  32  33
ATOM     33  C   UNL     1      -2.132  -0.659   0.523  0.00  0.00    +0.060 C 
BRANCH  33  34
ATOM     34  C   UNL     1      -3.300  -0.849  -0.410  0.00  0.00    -0.010 A 
ATOM     35  C   UNL     1      -4.406  -0.026  -0.310  0.00  0.00    +0.006 A 
ATOM     36  C   UNL     1      -5.477  -0.200  -1.167  0.00  0.00    +0.000 A 
ATOM     37  C   UNL     1      -5.444  -1.197  -2.124  0.00  0.00    +0.003 A 
ATOM     38  C   UNL     1      -4.339  -2.021  -2.226  0.00  0.00    +0.038 A 
ATOM     39  C   UNL     1      -3.263  -1.844  -1.372  0.00  0.00    +0.127 A 
ATOM     40  F   UNL     1      -2.180  -2.646  -1.475  0.00  0.00    -0.205 F 
ENDBRANCH  33  34
ENDBRANCH  32  33
ENDBRANCH  27  32
ENDBRANCH   1  28
TORSDOF 7
