REMARK  Name = ZINC15566763
REMARK  7 active torsions:
REMARK  status: ('A' for Active; 'I' for Inactive)
REMARK    1  A    between atoms: C_4  and  C_7
REMARK    2  A    between atoms: C_8  and  C_18
REMARK    3  A    between atoms: N_10  and  C_12
REMARK    4  A    between atoms: N_20  and  N_21
REMARK    5  A    between atoms: C_22  and  C_24
REMARK    6  A    between atoms: C_24  and  C_25
REMARK    7  A    between atoms: C_25  and  N_26
REMARK                            x       y       z     vdW  Elec       q    Type
REMARK                         _______ _______ _______ _____ _____    ______ ____
ROOT
ATOM      1  C   UNL     1       3.138  -2.655   1.612  0.00  0.00    +0.264 C 
ATOM      2  O   UNL     1       1.974  -2.322   1.734  0.00  0.00    -0.269 OA
ATOM      3  N   UNL     1       3.614  -3.708   2.306  0.00  0.00    -0.230 N 
ATOM      4  H   UNL     1       4.542  -3.974   2.209  0.00  0.00    +0.173 HD
ENDROOT
BRANCH   1   6
ATOM      5  C   UNL     1       3.703  -0.679  -0.025  0.00  0.00    +0.105 A 
ATOM      6  C   UNL     1       4.026  -1.908   0.706  0.00  0.00    +0.084 A 
ATOM      7  C   UNL     1       5.328  -2.226   0.377  0.00  0.00    +0.128 A 
ATOM      8  N   UNL     1       5.778  -1.290  -0.476  0.00  0.00    -0.239 N 
ATOM      9  N   UNL     1       4.771  -0.352  -0.718  0.00  0.00    -0.166 NA
BRANCH   5  13
ATOM     10  C   UNL     1       0.007   1.419   0.066  0.00  0.00    +0.000 A 
ATOM     11  C   UNL     1       0.559   0.944   1.242  0.00  0.00    +0.001 A 
ATOM     12  C   UNL     1       1.758   0.263   1.218  0.00  0.00    +0.010 A 
ATOM     13  C   UNL     1       2.414   0.052   0.006  0.00  0.00    +0.003 A 
ATOM     14  C   UNL     1       1.853   0.533  -1.176  0.00  0.00    +0.010 A 
ATOM     15  C   UNL     1       0.653   1.213  -1.140  0.00  0.00    +0.001 A 
ENDBRANCH   5  13
BRANCH   8  16
ATOM     16  C   UNL     1       7.060  -1.262  -1.042  0.00  0.00    +0.065 A 
ATOM     17  C   UNL     1       7.977  -2.258  -0.735  0.00  0.00    +0.028 A 
ATOM     18  C   UNL     1       9.240  -2.228  -1.294  0.00  0.00    +0.002 A 
ATOM     19  C   UNL     1       9.591  -1.206  -2.157  0.00  0.00    +0.000 A 
ATOM     20  C   UNL     1       8.680  -0.212  -2.464  0.00  0.00    +0.002 A 
ATOM     21  C   UNL     1       7.413  -0.241  -1.914  0.00  0.00    +0.028 A 
ENDBRANCH   8  16
ENDBRANCH   1   6
BRANCH   3  22
ATOM     22  N   UNL     1       2.768  -4.419   3.168  0.00  0.00    -0.234 N 
ATOM     23  C   UNL     1       3.244  -5.472   3.862  0.00  0.00    +0.231 C 
ATOM     24  O   UNL     1       4.404  -5.804   3.740  0.00  0.00    -0.274 OA
ATOM     25  H   UNL     1       1.841  -4.153   3.265  0.00  0.00    +0.173 HD
BRANCH  23  26
ATOM     26  C   UNL     1       2.335  -6.236   4.789  0.00  0.00    +0.117 C 
BRANCH  26  27
ATOM     27  C   UNL     1       3.118  -7.374   5.448  0.00  0.00    +0.125 C 
BRANCH  27  28
ATOM     28  N   UNL     1       2.234  -8.117   6.349  0.00  0.00    -0.241 N 
ATOM     29  C   UNL     1       2.067  -7.799   7.662  0.00  0.00    +0.226 C 
ATOM     30  O   UNL     1       2.422  -6.781   8.216  0.00  0.00    -0.275 OA
ATOM     31  C   UNL     1       1.357  -8.961   8.281  0.00  0.00    +0.087 C 
ATOM     32  C   UNL     1       0.378  -8.718   9.409  0.00  0.00    +0.013 C 
ATOM     33  C   UNL     1      -0.199 -10.099   9.782  0.00  0.00    +0.001 C 
ATOM     34  C   UNL     1      -0.860 -10.780   8.588  0.00  0.00    +0.001 C 
ATOM     35  C   UNL     1       0.079 -10.853   7.370  0.00  0.00    +0.013 C 
ATOM     36  C   UNL     1       0.523  -9.450   7.059  0.00  0.00    +0.087 C 
ATOM     37  C   UNL     1       1.495  -9.189   5.955  0.00  0.00    +0.226 C 
ATOM     38  O   UNL     1       1.605  -9.809   4.918  0.00  0.00    -0.275 OA
ENDBRANCH  27  28
ENDBRANCH  26  27
ENDBRANCH  23  26
ENDBRANCH   3  22
TORSDOF 7
