REMARK  Name = ZINC15923880
REMARK  3 active torsions:
REMARK  status: ('A' for Active; 'I' for Inactive)
REMARK    1  A    between atoms: C_4  and  C_7
REMARK    2  A    between atoms: C_9  and  C_16
REMARK    3  A    between atoms: C_10  and  C_14
REMARK                            x       y       z     vdW  Elec       q    Type
REMARK                         _______ _______ _______ _____ _____    ______ ____
ROOT
ATOM      1  C   UNL     1       3.698  -0.688  -0.037  0.00  0.00    +0.164 A 
ATOM      2  N   UNL     1       3.694  -2.013  -0.050  0.00  0.00    -0.226 NA
ATOM      3  C   UNL     1       4.832  -2.699  -0.065  0.00  0.00    +0.096 A 
ATOM      4  C   UNL     1       6.053  -1.993  -0.068  0.00  0.00    +0.144 A 
ATOM      5  C   UNL     1       6.005  -0.586  -0.054  0.00  0.00    +0.292 A 
ATOM      6  O   UNL     1       7.146   0.142  -0.057  0.00  0.00    -0.264 OA
ATOM      7  N   UNL     1       4.823   0.015  -0.045  0.00  0.00    -0.188 NA
ENDROOT
BRANCH   3   8
ATOM      8  C   UNL     1       4.819  -4.180  -0.079  0.00  0.00    +0.002 A 
ATOM      9  C   UNL     1       5.799  -4.882  -0.780  0.00  0.00    +0.013 A 
ATOM     10  C   UNL     1       5.782  -6.261  -0.789  0.00  0.00    +0.039 A 
ATOM     11  C   UNL     1       4.794  -6.949  -0.103  0.00  0.00    +0.123 A 
ATOM     12  C   UNL     1       3.818  -6.256   0.595  0.00  0.00    +0.039 A 
ATOM     13  C   UNL     1       3.829  -4.877   0.615  0.00  0.00    +0.013 A 
ATOM     14  F   UNL     1       4.782  -8.300  -0.115  0.00  0.00    -0.205 F 
ENDBRANCH   3   8
BRANCH   1  18
ATOM     15  C   UNL     1      -0.017   1.379   0.010  0.00  0.00    +0.000 A 
ATOM     16  C   UNL     1       1.169   2.092   0.002  0.00  0.00    +0.001 A 
ATOM     17  C   UNL     1       2.377   1.427  -0.013  0.00  0.00    +0.011 A 
ATOM     18  C   UNL     1       2.403   0.033  -0.021  0.00  0.00    +0.019 A 
ATOM     19  C   UNL     1       1.205  -0.680  -0.013  0.00  0.00    +0.011 A 
ATOM     20  C   UNL     1       0.002  -0.004   0.002  0.00  0.00    +0.001 A 
ENDBRANCH   1  18
BRANCH   4  21
ATOM     21  C   UNL     1       7.306  -2.687  -0.084  0.00  0.00    +0.107 C 
ATOM     22  N   UNL     1       8.300  -3.237  -0.096  0.00  0.00    -0.191 NA
ENDBRANCH   4  21
TORSDOF 3
