REMARK  Name = ZINC21579730
REMARK  6 active torsions:
REMARK  status: ('A' for Active; 'I' for Inactive)
REMARK    1  A    between atoms: C_6  and  C_7
REMARK    2  A    between atoms: C_7  and  C_8
REMARK    3  A    between atoms: C_7  and  N_15
REMARK    4  A    between atoms: N_18  and  C_21
REMARK    5  A    between atoms: C_21  and  C_22
REMARK    6  A    between atoms: N_27  and  C_28
REMARK                            x       y       z     vdW  Elec       q    Type
REMARK                         _______ _______ _______ _____ _____    ______ ____
ROOT
ATOM      1  N   UNL     1      -1.209   1.116   1.003  0.00  0.00    -0.295 NA
ATOM      2  C   UNL     1      -0.564   0.649  -0.232  0.00  0.00    +0.067 C 
ATOM      3  C   UNL     1      -1.156   1.397  -1.429  0.00  0.00    -0.063 C 
ATOM      4  N   UNL     1      -0.956   2.842  -1.248  0.00  0.00    +0.387 N 
ATOM      5  C   UNL     1      -1.602   3.309  -0.013  0.00  0.00    -0.063 C 
ATOM      6  C   UNL     1      -1.010   2.561   1.184  0.00  0.00    +0.067 C 
ATOM      7  H   UNL     1       0.124   3.027  -1.157  0.00  0.00    -0.081 HD
ENDROOT
BRANCH   1   8
ATOM      8  C   UNL     1      -0.721   0.367   2.168  0.00  0.00    +0.117 C 
BRANCH   8  14
ATOM      9  C   UNL     1      -2.627   1.369   3.442  0.00  0.00    +0.008 A 
ATOM     10  C   UNL     1      -3.170   1.903   4.596  0.00  0.00    +0.038 A 
ATOM     11  C   UNL     1      -2.389   2.029   5.732  0.00  0.00    +0.123 A 
ATOM     12  C   UNL     1      -1.068   1.616   5.713  0.00  0.00    +0.038 A 
ATOM     13  C   UNL     1      -0.529   1.079   4.560  0.00  0.00    +0.008 A 
ATOM     14  C   UNL     1      -1.309   0.953   3.425  0.00  0.00    -0.026 A 
ATOM     15  F   UNL     1      -2.917   2.555   6.859  0.00  0.00    -0.205 F 
ENDBRANCH   8  14
BRANCH   8  16
ATOM     16  C   UNL     1      -1.133  -1.077   2.046  0.00  0.00    -0.026 A 
ATOM     17  C   UNL     1      -2.392  -1.398   1.571  0.00  0.00    +0.008 A 
ATOM     18  C   UNL     1      -2.770  -2.722   1.454  0.00  0.00    +0.038 A 
ATOM     19  C   UNL     1      -1.892  -3.728   1.822  0.00  0.00    +0.123 A 
ATOM     20  C   UNL     1      -0.633  -3.405   2.302  0.00  0.00    +0.038 A 
ATOM     21  C   UNL     1      -0.256  -2.080   2.413  0.00  0.00    +0.008 A 
ATOM     22  F   UNL     1      -2.262  -5.022   1.713  0.00  0.00    -0.205 F 
ENDBRANCH   8  16
ENDBRANCH   1   8
BRANCH   4  23
ATOM     23  C   UNL     1      -1.445   3.591  -2.413  0.00  0.00    +0.019 C 
BRANCH  23  24
ATOM     24  C   UNL     1      -0.592   3.266  -3.612  0.00  0.00    +0.204 C 
ATOM     25  O   UNL     1       0.397   2.576  -3.484  0.00  0.00    -0.277 OA
ATOM     26  N   UNL     1      -0.930   3.741  -4.828  0.00  0.00    -0.242 N 
ATOM     27  C   UNL     1      -0.167   3.450  -5.900  0.00  0.00    +0.306 C 
ATOM     28  O   UNL     1       0.824   2.759  -5.772  0.00  0.00    -0.252 OA
ATOM     29  N   UNL     1      -0.505   3.926  -7.116  0.00  0.00    -0.296 N 
ATOM     30  H   UNL     1      -1.827   4.367  -4.944  0.00  0.00    +0.159 HD
ATOM     31  H   UNL     1      -1.402   4.551  -7.232  0.00  0.00    +0.151 HD
BRANCH  29  32
ATOM     32  C   UNL     1       0.324   3.609  -8.282  0.00  0.00    +0.075 C 
ATOM     33  C   UNL     1       0.635   4.747  -9.257  0.00  0.00    +0.024 C 
ATOM     34  C   UNL     1      -0.348   3.644  -9.656  0.00  0.00    +0.024 C 
ENDBRANCH  29  32
ENDBRANCH  23  24
ENDBRANCH   4  23
TORSDOF 6
