REMARK  Name = ZINC12265846
REMARK  8 active torsions:
REMARK  status: ('A' for Active; 'I' for Inactive)
REMARK    1  A    between atoms: C_1  and  N_2
REMARK    2  A    between atoms: C_6  and  S_7
REMARK    3  A    between atoms: S_7  and  C_8
REMARK    4  A    between atoms: C_11  and  C_17
REMARK    5  A    between atoms: C_13  and  N_14
REMARK    6  A    between atoms: N_19  and  C_20
REMARK    7  A    between atoms: C_20  and  C_22
REMARK    8  A    between atoms: C_20  and  C_28
REMARK                            x       y       z     vdW  Elec       q    Type
REMARK                         _______ _______ _______ _____ _____    ______ ____
ROOT
ATOM      1  C   UNL     1       1.177   2.084   0.001  0.00  0.00    +0.046 A 
ATOM      2  C   UNL     1       2.384   1.402   0.134  0.00  0.00    +0.018 A 
ATOM      3  C   UNL     1       2.406   0.036   0.127  0.00  0.00    +0.014 A 
ATOM      4  C   UNL     1       1.215  -0.683  -0.016  0.00  0.00    +0.039 A 
ATOM      5  C   UNL     1       0.002  -0.001  -0.151  0.00  0.00    +0.047 A 
ATOM      6  C   UNL     1      -0.014   1.376  -0.142  0.00  0.00    +0.141 A 
ENDROOT
BRANCH   4   7
ATOM      7  C   UNL     1       1.238  -2.157  -0.025  0.00  0.00    +0.245 C 
ATOM      8  O   UNL     1       0.202  -2.781  -0.150  0.00  0.00    -0.270 OA
ATOM      9  N   UNL     1       2.408  -2.813   0.105  0.00  0.00    -0.300 N 
ATOM     10  H   UNL     1       3.235  -2.316   0.204  0.00  0.00    +0.150 HD
BRANCH   9  11
ATOM     11  C   UNL     1       2.432  -4.278   0.096  0.00  0.00    +0.140 C 
BRANCH  11  12
ATOM     12  C   UNL     1       3.650  -4.766   0.837  0.00  0.00    -0.022 A 
ATOM     13  C   UNL     1       4.859  -4.115   0.683  0.00  0.00    +0.006 A 
ATOM     14  C   UNL     1       5.976  -4.559   1.367  0.00  0.00    +0.000 A 
ATOM     15  C   UNL     1       5.885  -5.660   2.197  0.00  0.00    +0.000 A 
ATOM     16  C   UNL     1       4.676  -6.315   2.348  0.00  0.00    +0.000 A 
ATOM     17  C   UNL     1       3.559  -5.867   1.667  0.00  0.00    +0.006 A 
ENDBRANCH  11  12
BRANCH  11  18
ATOM     18  C   UNL     1       2.479  -4.771  -1.327  0.00  0.00    +0.014 A 
ATOM     19  C   UNL     1       1.834  -5.823  -1.888  0.00  0.00    +0.013 A 
ATOM     20  C   UNL     1       2.030  -6.091  -3.230  0.00  0.00    +0.008 A 
ATOM     21  C   UNL     1       2.861  -5.295  -3.945  0.00  0.00    +0.045 A 
ATOM     22  S   UNL     1       3.393  -4.117  -2.714  0.00  0.00    -0.099 S 
ENDBRANCH  11  18
ENDBRANCH   9  11
ENDBRANCH   4   7
BRANCH   6  23
ATOM     23  N   UNL     1      -1.295   2.103  -0.291  0.00  0.00    +0.058 N 
ATOM     24  O   UNL     1      -2.336   1.483  -0.420  0.00  0.00    -0.126 OA
ATOM     25  O   UNL     1      -1.308   3.321  -0.283  0.00  0.00    -0.126 OA
ENDBRANCH   6  23
BRANCH   1  26
ATOM     26  S   UNL     1       1.157   3.845   0.011  0.00  0.00    -0.048 S 
BRANCH  26  32
ATOM     27  C   UNL     1       0.349   6.658   1.552  0.00  0.00    +0.152 C 
ATOM     28  N   UNL     1       0.266   5.346   2.198  0.00  0.00    -0.311 N 
ATOM     29  C   UNL     1      -0.138   5.081   3.477  0.00  0.00    +0.225 A 
ATOM     30  N   UNL     1      -0.063   3.791   3.648  0.00  0.00    -0.137 NA
ATOM     31  N   UNL     1       0.353   3.227   2.570  0.00  0.00    -0.122 NA
ATOM     32  C   UNL     1       0.575   4.135   1.649  0.00  0.00    +0.196 A 
ENDBRANCH  26  32
ENDBRANCH   1  26
TORSDOF 7
