REMARK  Name = ZINC36888561
REMARK  8 active torsions:
REMARK  status: ('A' for Active; 'I' for Inactive)
REMARK    1  A    between atoms: C_1  and  C_2
REMARK    2  A    between atoms: C_2  and  C_3
REMARK    3  A    between atoms: C_3  and  N_4
REMARK    4  A    between atoms: C_5  and  C_7
REMARK    5  A    between atoms: C_7  and  N_8
REMARK    6  A    between atoms: C_13  and  C_20
REMARK    7  A    between atoms: C_16  and  C_18
REMARK    8  A    between atoms: C_16  and  C_19
REMARK                            x       y       z     vdW  Elec       q    Type
REMARK                         _______ _______ _______ _____ _____    ______ ____
ROOT
ATOM      1  N   UNL     1      -3.940  -4.538   0.015  0.00  0.00    -0.215 N 
ATOM      2  C   UNL     1      -4.633  -4.827   1.136  0.00  0.00    +0.247 C 
ATOM      3  O   UNL     1      -4.267  -4.681   2.282  0.00  0.00    -0.273 OA
ATOM      4  C   UNL     1      -5.961  -5.370   0.661  0.00  0.00    +0.113 C 
ATOM      5  C   UNL     1      -6.150  -6.806   1.139  0.00  0.00    +0.038 C 
ATOM      6  C   UNL     1      -7.486  -7.346   0.623  0.00  0.00    -0.011 C 
ATOM      7  C   UNL     1      -8.625  -6.465   1.139  0.00  0.00    +0.009 C 
ATOM      8  C   UNL     1      -8.434  -5.034   0.632  0.00  0.00    -0.032 C 
ATOM      9  C   UNL     1      -7.103  -4.484   1.148  0.00  0.00    +0.041 C 
ATOM     10  C   UNL     1      -9.580  -4.156   1.139  0.00  0.00    +0.011 C 
ATOM     11  C   UNL     1      -8.429  -5.032  -0.898  0.00  0.00    +0.011 C 
ATOM     12  C   UNL     1      -7.683  -8.779   1.122  0.00  0.00    +0.007 C 
ATOM     13  N   UNL     1      -5.863  -5.324  -0.803  0.00  0.00    -0.285 N 
ATOM     14  C   UNL     1      -4.647  -4.818  -1.087  0.00  0.00    +0.310 C 
ATOM     15  O   UNL     1      -4.237  -4.639  -2.217  0.00  0.00    -0.252 OA
ATOM     16  H   UNL     1      -6.540  -5.600  -1.440  0.00  0.00    +0.151 HD
ENDROOT
BRANCH   1  17
ATOM     17  C   UNL     1      -2.585  -3.981   0.004  0.00  0.00    +0.213 C 
BRANCH  17  19
ATOM     18  N   UNL     1      -1.529  -1.744   0.005  0.00  0.00    -0.314 N 
ATOM     19  C   UNL     1      -2.661  -2.476   0.012  0.00  0.00    +0.231 C 
ATOM     20  O   UNL     1      -3.740  -1.923   0.025  0.00  0.00    -0.274 OA
ATOM     21  H   UNL     1      -0.666  -2.187  -0.006  0.00  0.00    +0.149 HD
BRANCH  18  22
ATOM     22  C   UNL     1      -1.602  -0.281   0.013  0.00  0.00    +0.104 C 
BRANCH  22  24
ATOM     23  C   UNL     1      -0.264   1.828   0.010  0.00  0.00    +0.005 C 
ATOM     24  C   UNL     1      -0.187   0.300   0.002  0.00  0.00    +0.015 C 
ENDBRANCH  22  24
ENDBRANCH  18  22
ENDBRANCH  17  19
ENDBRANCH   1  17
TORSDOF 4
