REMARK  Name = ZINC64626175
REMARK  9 active torsions:
REMARK  status: ('A' for Active; 'I' for Inactive)
REMARK    1  A    between atoms: C_1  and  C_2
REMARK    2  A    between atoms: C_2  and  O_3
REMARK    3  A    between atoms: O_3  and  C_4
REMARK    4  A    between atoms: C_12  and  C_14
REMARK    5  A    between atoms: N_20  and  C_23
REMARK    6  A    between atoms: C_23  and  C_25
REMARK    7  A    between atoms: C_23  and  C_26
REMARK    8  A    between atoms: C_26  and  C_27
REMARK    9  A    between atoms: C_27  and  C_28
REMARK                            x       y       z     vdW  Elec       q    Type
REMARK                         _______ _______ _______ _____ _____    ______ ____
ROOT
ATOM      1  C   UNL     1       2.789  -3.936   6.983  0.00  0.00    +0.082 C 
ATOM      2  C   UNL     1       1.908  -4.665   8.000  0.00  0.00    +0.020 C 
ATOM      3  C   UNL     1       3.428  -4.809   8.061  0.00  0.00    -0.021 C 
ATOM      4  C   UNL     1       4.168  -4.108   9.205  0.00  0.00    -0.011 C 
ATOM      5  C   UNL     1       4.362  -5.111  10.347  0.00  0.00    -0.078 C 
ATOM      6  N   UNL     1       5.075  -6.292   9.847  0.00  0.00    +0.381 N 
ATOM      7  C   UNL     1       4.241  -7.014   8.878  0.00  0.00    -0.078 C 
ATOM      8  C   UNL     1       4.037  -6.147   7.631  0.00  0.00    -0.011 C 
ATOM      9  H   UNL     1       5.931  -6.001   9.399  0.00  0.00    -0.081 HD
ENDROOT
BRANCH   1  18
ATOM     10  C   UNL     1       1.849   0.652   2.971  0.00  0.00    +0.403 C 
ATOM     11  O   UNL     1       1.242   0.185   2.028  0.00  0.00    -0.226 OA
ATOM     12  N   UNL     1       2.396  -0.166   3.892  0.00  0.00    -0.264 N 
ATOM     13  C   UNL     1       3.128   0.386   5.041  0.00  0.00    +0.130 C 
ATOM     14  C   UNL     1       2.505  -0.166   6.330  0.00  0.00    +0.127 C 
ATOM     15  N   UNL     1       2.379  -1.625   6.204  0.00  0.00    -0.298 N 
ATOM     16  C   UNL     1       1.647  -2.176   5.055  0.00  0.00    +0.127 C 
ATOM     17  C   UNL     1       2.265  -1.624   3.769  0.00  0.00    +0.130 C 
ATOM     18  C   UNL     1       2.926  -2.442   7.125  0.00  0.00    +0.219 C 
ATOM     19  O   UNL     1       3.528  -1.976   8.069  0.00  0.00    -0.275 OA
BRANCH  10  20
ATOM     20  O   UNL     1       1.976   1.986   3.095  0.00  0.00    -0.451 OA
BRANCH  20  22
ATOM     21  C   UNL     1       1.619   4.271   2.391  0.00  0.00    +0.048 C 
ATOM     22  C   UNL     1       1.371   2.793   2.082  0.00  0.00    +0.230 C 
ENDBRANCH  20  22
ENDBRANCH  10  20
ENDBRANCH   1  18
BRANCH   6  23
ATOM     23  C   UNL     1       5.394  -7.181  10.972  0.00  0.00    -0.071 C 
ATOM     24  C   UNL     1       4.099  -7.733  11.570  0.00  0.00    -0.013 C 
BRANCH  23  25
ATOM     25  C   UNL     1       6.262  -8.340  10.476  0.00  0.00    -0.011 C 
BRANCH  25  26
ATOM     26  C   UNL     1       7.590  -7.793   9.949  0.00  0.00    +0.031 C 
BRANCH  26  27
ATOM     27  C   UNL     1       8.494  -8.941   9.580  0.00  0.00    -0.042 C 
ATOM     28  C   UNL     1       8.654  -9.489   8.354  0.00  0.00    -0.001 A 
ATOM     29  C   UNL     1       8.056  -9.192   7.047  0.00  0.00    +0.010 A 
ATOM     30  C   UNL     1       8.421  -9.931   5.975  0.00  0.00    +0.001 A 
ATOM     31  C   UNL     1       9.354 -10.972   6.080  0.00  0.00    +0.002 A 
ATOM     32  C   UNL     1       9.947 -11.304   7.247  0.00  0.00    +0.026 A 
ATOM     33  C   UNL     1       9.637 -10.592   8.439  0.00  0.00    +0.043 A 
ATOM     34  N   UNL     1      10.069 -10.722   9.670  0.00  0.00    -0.380 N 
ATOM     35  C   UNL     1       9.412  -9.710  10.505  0.00  0.00    +0.144 C 
ATOM     36  H   UNL     1      10.717 -11.374   9.977  0.00  0.00    +0.160 HD
ENDBRANCH  26  27
ENDBRANCH  25  26
ENDBRANCH  23  25
ENDBRANCH   6  23
TORSDOF 7
