REMARK  Name = ZINC08569389
REMARK  10 active torsions:
REMARK  status: ('A' for Active; 'I' for Inactive)
REMARK    1  A    between atoms: C_1  and  C_2
REMARK    2  A    between atoms: C_2  and  O_3
REMARK    3  A    between atoms: O_3  and  C_4
REMARK    4  A    between atoms: C_9  and  C_10
REMARK    5  A    between atoms: C_13  and  C_24
REMARK    6  A    between atoms: C_19  and  N_23
REMARK    7  A    between atoms: C_20  and  C_21
REMARK    8  A    between atoms: C_27  and  O_30
REMARK    9  A    between atoms: O_30  and  C_31
REMARK   10  A    between atoms: C_31  and  C_32
REMARK                            x       y       z     vdW  Elec       q    Type
REMARK                         _______ _______ _______ _____ _____    ______ ____
ROOT
ATOM      1  C   UNL     1       1.990  -1.397  -3.491  0.00  0.00    +0.105 C 
ATOM      2  C   UNL     1       3.471  -1.641  -3.627  0.00  0.00    +0.054 A 
ATOM      3  C   UNL     1       4.479  -1.330  -2.776  0.00  0.00    +0.074 A 
ATOM      4  N   UNL     1       5.641  -1.760  -3.350  0.00  0.00    -0.273 N 
ATOM      5  H   UNL     1       6.530  -1.675  -2.973  0.00  0.00    +0.189 HD
ATOM      6  N   UNL     1       5.321  -2.347  -4.584  0.00  0.00    -0.135 NA
ATOM      7  C   UNL     1       4.031  -2.277  -4.752  0.00  0.00    +0.245 A 
ATOM      8  O   UNL     1       3.264  -2.709  -5.790  0.00  0.00    -0.421 OA
ATOM      9  C   UNL     1       1.990  -2.274  -5.845  0.00  0.00    +0.201 C 
ATOM     10  C   UNL     1       1.345  -1.663  -4.828  0.00  0.00    +0.098 C 
ENDROOT
BRANCH   1  16
ATOM     11  C   UNL     1       0.777  -1.810  -1.336  0.00  0.00    +0.125 A 
ATOM     12  C   UNL     1       0.243  -2.669  -0.386  0.00  0.00    +0.046 A 
ATOM     13  C   UNL     1       0.351  -4.036  -0.554  0.00  0.00    +0.004 A 
ATOM     14  C   UNL     1       0.991  -4.548  -1.667  0.00  0.00    +0.001 A 
ATOM     15  C   UNL     1       1.525  -3.695  -2.615  0.00  0.00    +0.008 A 
ATOM     16  C   UNL     1       1.414  -2.327  -2.455  0.00  0.00    +0.007 A 
BRANCH  11  17
ATOM     17  O   UNL     1       0.671  -0.465  -1.174  0.00  0.00    -0.492 OA
BRANCH  17  19
ATOM     18  C   UNL     1      -0.019   1.526   0.010  0.00  0.00    +0.048 C 
ATOM     19  C   UNL     1       0.002  -0.004   0.002  0.00  0.00    +0.225 C 
ENDBRANCH  17  19
ENDBRANCH  11  17
ENDBRANCH   1  16
BRANCH   3  20
ATOM     20  C   UNL     1       4.345  -0.650  -1.468  0.00  0.00    +0.000 A 
ATOM     21  C   UNL     1       3.522   0.470  -1.343  0.00  0.00    +0.013 A 
ATOM     22  C   UNL     1       3.400   1.100  -0.123  0.00  0.00    +0.046 A 
ATOM     23  C   UNL     1       4.094   0.622   0.980  0.00  0.00    +0.121 A 
ATOM     24  C   UNL     1       4.913  -0.493   0.860  0.00  0.00    +0.046 A 
ATOM     25  C   UNL     1       5.037  -1.132  -0.356  0.00  0.00    +0.013 A 
BRANCH  23  26
ATOM     26  O   UNL     1       3.971   1.246   2.181  0.00  0.00    -0.487 OA
BRANCH  26  27
ATOM     27  C   UNL     1       4.713   0.701   3.274  0.00  0.00    +0.264 C 
BRANCH  27  28
ATOM     28  C   UNL     1       4.454   1.518   4.514  0.00  0.00    -0.010 A 
ATOM     29  C   UNL     1       5.256   2.605   4.806  0.00  0.00    +0.007 A 
ATOM     30  C   UNL     1       5.019   3.354   5.943  0.00  0.00    +0.000 A 
ATOM     31  C   UNL     1       3.978   3.016   6.788  0.00  0.00    +0.000 A 
ATOM     32  C   UNL     1       3.175   1.930   6.496  0.00  0.00    +0.000 A 
ATOM     33  C   UNL     1       3.410   1.183   5.356  0.00  0.00    +0.007 A 
ENDBRANCH  27  28
ENDBRANCH  26  27
ENDBRANCH  23  26
ENDBRANCH   3  20
BRANCH   9  34
ATOM     34  N   UNL     1       1.299  -2.466  -7.015  0.00  0.00    -0.328 N 
ATOM     35  H   UNL     1       1.730  -2.902  -7.767  0.00  0.00    +0.145 HD
ATOM     36  H   UNL     1       0.380  -2.166  -7.091  0.00  0.00    +0.145 HD
ENDBRANCH   9  34
BRANCH  10  37
ATOM     37  C   UNL     1      -0.011  -1.248  -5.028  0.00  0.00    +0.101 C 
ATOM     38  N   UNL     1      -1.086  -0.919  -5.186  0.00  0.00    -0.191 NA
ENDBRANCH  10  37
TORSDOF 9
