REMARK  Name = ZINC39634725
REMARK  11 active torsions:
REMARK  status: ('A' for Active; 'I' for Inactive)
REMARK    1  A    between atoms: C_1  and  C_2
REMARK    2  A    between atoms: C_2  and  C_3
REMARK    3  A    between atoms: C_2  and  N_4
REMARK    4  A    between atoms: N_4  and  C_5
REMARK    5  A    between atoms: N_4  and  C_31
REMARK    6  A    between atoms: C_5  and  C_6
REMARK    7  A    between atoms: C_6  and  N_7
REMARK    8  A    between atoms: C_8  and  C_10
REMARK    9  A    between atoms: C_21  and  C_23
REMARK   10  A    between atoms: C_31  and  C_32
REMARK   11  A    between atoms: C_31  and  C_33
REMARK                            x       y       z     vdW  Elec       q    Type
REMARK                         _______ _______ _______ _____ _____    ______ ____
ROOT
ATOM      1  C   UNL     1      -4.387   1.015  -2.949  0.00  0.00    +0.100 C 
ATOM      2  C   UNL     1      -3.606   1.907  -3.940  0.00  0.00    +0.121 C 
ATOM      3  N   UNL     1      -4.635   2.786  -4.543  0.00  0.00    -0.296 N 
ATOM      4  C   UNL     1      -5.537   3.125  -3.417  0.00  0.00    +0.115 C 
ATOM      5  C   UNL     1      -5.653   1.819  -2.607  0.00  0.00    -0.004 C 
ATOM      6  C   UNL     1      -5.697   2.126  -1.114  0.00  0.00    -0.010 C 
ATOM      7  C   UNL     1      -6.994   2.874  -0.789  0.00  0.00    -0.082 C 
ATOM      8  N   UNL     1      -8.146   2.050  -1.174  0.00  0.00    +0.379 N 
ATOM      9  C   UNL     1      -8.146   1.837  -2.627  0.00  0.00    -0.082 C 
ATOM     10  C   UNL     1      -6.899   1.045  -3.029  0.00  0.00    -0.010 C 
ATOM     11  C   UNL     1      -4.730   3.186  -5.827  0.00  0.00    +0.247 C 
ATOM     12  O   UNL     1      -3.975   2.730  -6.663  0.00  0.00    -0.270 OA
ATOM     13  H   UNL     1      -8.092   1.158  -0.705  0.00  0.00    -0.086 HD
ATOM     14  H   UNL     1      -8.998   2.518  -0.904  0.00  0.00    -0.086 HD
ENDROOT
BRANCH  11  15
ATOM     15  C   UNL     1      -5.753   4.179  -6.218  0.00  0.00    +0.040 A 
ATOM     16  C   UNL     1      -6.339   4.999  -5.253  0.00  0.00    +0.033 A 
ATOM     17  C   UNL     1      -7.294   5.924  -5.624  0.00  0.00    +0.043 A 
ATOM     18  C   UNL     1      -7.671   6.040  -6.952  0.00  0.00    +0.040 A 
ATOM     19  C   UNL     1      -7.094   5.228  -7.914  0.00  0.00    +0.043 A 
ATOM     20  C   UNL     1      -6.133   4.303  -7.555  0.00  0.00    +0.033 A 
ATOM     21 CL   UNL     1      -7.574   5.379  -9.575  0.00  0.00    -0.083 Cl
ATOM     22 CL   UNL     1      -8.024   6.945  -4.425  0.00  0.00    -0.083 Cl
ENDBRANCH  11  15
BRANCH   1  24
ATOM     23  N   UNL     1      -3.727  -0.372  -1.010  0.00  0.00    -0.317 N 
ATOM     24  C   UNL     1      -3.570   0.771  -1.706  0.00  0.00    +0.218 C 
ATOM     25  O   UNL     1      -2.770   1.603  -1.333  0.00  0.00    -0.275 OA
ATOM     26  H   UNL     1      -4.367  -1.038  -1.308  0.00  0.00    +0.149 HD
BRANCH  23  27
ATOM     27  C   UNL     1      -2.933  -0.610   0.198  0.00  0.00    +0.085 C 
BRANCH  27  28
ATOM     28  C   UNL     1      -3.303  -1.970   0.792  0.00  0.00    -0.059 C 
BRANCH  28  29
ATOM     29  N   UNL     1      -2.558  -2.177   2.042  0.00  0.00    +0.384 N 
ATOM     30  H   UNL     1      -1.569  -2.091   1.862  0.00  0.00    -0.081 HD
BRANCH  29  32
ATOM     31  C   UNL     1      -2.423  -4.570   1.537  0.00  0.00    -0.014 C 
ATOM     32  C   UNL     1      -2.845  -3.519   2.566  0.00  0.00    -0.074 C 
ATOM     33  C   UNL     1      -2.067  -3.736   3.865  0.00  0.00    -0.014 C 
ENDBRANCH  29  32
BRANCH  29  34
ATOM     34  C   UNL     1      -2.966  -1.168   3.028  0.00  0.00    -0.074 C 
ATOM     35  C   UNL     1      -4.251  -1.625   3.723  0.00  0.00    -0.014 C 
ATOM     36  C   UNL     1      -1.858  -0.994   4.068  0.00  0.00    -0.014 C 
ENDBRANCH  29  34
ENDBRANCH  28  29
ENDBRANCH  27  28
ENDBRANCH  23  27
ENDBRANCH   1  24
TORSDOF 7
