REMARK  Name = ZINC13147074
REMARK  8 active torsions:
REMARK  status: ('A' for Active; 'I' for Inactive)
REMARK    1  A    between atoms: C_1  and  C_2
REMARK    2  A    between atoms: N_6  and  N_7
REMARK    3  A    between atoms: C_8  and  C_10
REMARK    4  A    between atoms: C_13  and  C_16
REMARK    5  A    between atoms: C_16  and  S_17
REMARK    6  A    between atoms: S_17  and  C_18
REMARK    7  A    between atoms: C_29  and  C_31
REMARK    8  A    between atoms: C_29  and  C_32
REMARK                            x       y       z     vdW  Elec       q    Type
REMARK                         _______ _______ _______ _____ _____    ______ ____
ROOT
ATOM      1  C   UNL     1       9.453   5.200  -0.043  0.00  0.00    +0.038 A 
ATOM      2  C   UNL     1       8.799   4.848  -1.225  0.00  0.00    +0.013 A 
ATOM      3  C   UNL     1       7.443   4.592  -1.210  0.00  0.00    +0.005 A 
ATOM      4  C   UNL     1       6.732   4.685  -0.027  0.00  0.00    -0.037 A 
ATOM      5  C   UNL     1       7.372   5.040   1.147  0.00  0.00    +0.005 A 
ATOM      6  C   UNL     1       8.729   5.293   1.147  0.00  0.00    +0.013 A 
ENDROOT
BRANCH   1   8
ATOM      7  N   UNL     1      11.533   5.816   1.091  0.00  0.00    -0.203 N 
ATOM      8  C   UNL     1      10.905   5.475  -0.052  0.00  0.00    +0.263 C 
ATOM      9  O   UNL     1      11.533   5.394  -1.090  0.00  0.00    -0.268 OA
ATOM     10  H   UNL     1      11.032   5.880   1.919  0.00  0.00    +0.178 HD
BRANCH   7  15
ATOM     11  C   UNL     1      13.050   5.178   5.808  0.00  0.00    +0.008 C 
ATOM     12  C   UNL     1      13.675   5.242   4.413  0.00  0.00    -0.008 C 
ATOM     13  C   UNL     1      12.819   6.146   3.511  0.00  0.00    +0.055 C 
ATOM     14  C   UNL     1      13.526   6.298   2.183  0.00  0.00    +0.038 C 
ATOM     15  N   UNL     1      12.910   6.076   1.083  0.00  0.00    -0.189 NA
ATOM     16  C   UNL     1      14.977   6.724   2.186  0.00  0.00    +0.059 C 
ATOM     17  C   UNL     1      15.753   5.805   3.135  0.00  0.00    -0.029 C 
ATOM     18  C   UNL     1      15.088   5.819   4.513  0.00  0.00    +0.010 C 
ATOM     19  C   UNL     1      15.748   4.379   2.581  0.00  0.00    +0.011 C 
ATOM     20  C   UNL     1      17.195   6.300   3.260  0.00  0.00    +0.011 C 
ENDBRANCH   7  15
ENDBRANCH   1   8
BRANCH   4  21
ATOM     21  C   UNL     1       5.251   4.405  -0.018  0.00  0.00    +0.112 C 
BRANCH  21  22
ATOM     22  S   UNL     1       4.972   2.646   0.304  0.00  0.00    -0.083 S 
BRANCH  22  23
ATOM     23  C   UNL     1       3.211   2.602   0.260  0.00  0.00    +0.168 A 
ATOM     24  N   UNL     1       2.448   1.484   0.448  0.00  0.00    -0.333 N 
ATOM     25  H   UNL     1       2.785   0.561   0.631  0.00  0.00    +0.168 HD
ATOM     26  C   UNL     1       1.122   1.869   0.336  0.00  0.00    +0.067 A 
ATOM     27  C   UNL     1      -0.086   1.194   0.428  0.00  0.00    +0.028 A 
ATOM     28  C   UNL     1      -1.271   1.879   0.259  0.00  0.00    +0.002 A 
ATOM     29  C   UNL     1      -1.263   3.244   0.008  0.00  0.00    +0.002 A 
ATOM     30  C   UNL     1      -0.073   3.930  -0.086  0.00  0.00    +0.030 A 
ATOM     31  C   UNL     1       1.135   3.249   0.078  0.00  0.00    +0.090 A 
ATOM     32  N   UNL     1       2.437   3.638   0.043  0.00  0.00    -0.222 NA
ENDBRANCH  22  23
ENDBRANCH  21  22
ENDBRANCH   4  21
TORSDOF 5
