REMARK  Name = ZINC39689307
REMARK  9 active torsions:
REMARK  status: ('A' for Active; 'I' for Inactive)
REMARK    1  A    between atoms: C_1  and  C_2
REMARK    2  A    between atoms: C_6  and  C_8
REMARK    3  A    between atoms: C_8  and  C_9
REMARK    4  A    between atoms: C_9  and  N_10
REMARK    5  A    between atoms: C_11  and  C_13
REMARK    6  A    between atoms: C_24  and  C_26
REMARK    7  A    between atoms: C_31  and  O_32
REMARK    8  A    between atoms: O_32  and  C_33
REMARK    9  A    between atoms: C_33  and  C_35
REMARK                            x       y       z     vdW  Elec       q    Type
REMARK                         _______ _______ _______ _____ _____    ______ ____
ROOT
ATOM      1  C   UNL     1       3.041  -4.817   5.677  0.00  0.00    +0.100 C 
ATOM      2  C   UNL     1       2.150  -6.080   5.661  0.00  0.00    +0.121 C 
ATOM      3  N   UNL     1       3.100  -7.207   5.508  0.00  0.00    -0.296 N 
ATOM      4  C   UNL     1       4.257  -6.832   6.356  0.00  0.00    +0.115 C 
ATOM      5  C   UNL     1       4.422  -5.314   6.137  0.00  0.00    -0.004 C 
ATOM      6  C   UNL     1       4.821  -4.633   7.443  0.00  0.00    -0.010 C 
ATOM      7  C   UNL     1       6.221  -5.099   7.849  0.00  0.00    -0.082 C 
ATOM      8  N   UNL     1       7.178  -4.764   6.787  0.00  0.00    +0.379 N 
ATOM      9  C   UNL     1       6.840  -5.497   5.561  0.00  0.00    -0.082 C 
ATOM     10  C   UNL     1       5.466  -5.048   5.057  0.00  0.00    -0.010 C 
ATOM     11  C   UNL     1       2.947  -8.321   4.766  0.00  0.00    +0.250 C 
ATOM     12  O   UNL     1       3.781  -9.204   4.816  0.00  0.00    -0.270 OA
ATOM     13  H   UNL     1       7.143  -3.772   6.605  0.00  0.00    -0.086 HD
ATOM     14  H   UNL     1       8.109  -5.017   7.083  0.00  0.00    -0.086 HD
ENDROOT
BRANCH  11  15
ATOM     15  C   UNL     1       1.768  -8.469   3.891  0.00  0.00    +0.079 A 
ATOM     16  C   UNL     1       0.531  -7.952   4.286  0.00  0.00    +0.017 A 
ATOM     17  C   UNL     1      -0.566  -8.093   3.465  0.00  0.00    +0.001 A 
ATOM     18  C   UNL     1      -0.450  -8.746   2.249  0.00  0.00    +0.004 A 
ATOM     19  C   UNL     1       0.766  -9.262   1.847  0.00  0.00    +0.047 A 
ATOM     20  C   UNL     1       1.882  -9.124   2.658  0.00  0.00    +0.144 A 
BRANCH  20  21
ATOM     21  O   UNL     1       3.079  -9.626   2.262  0.00  0.00    -0.425 OA
BRANCH  21  22
ATOM     22  C   UNL     1       3.923  -8.807   1.614  0.00  0.00    +0.309 C 
ATOM     23  O   UNL     1       3.647  -7.638   1.480  0.00  0.00    -0.251 OA
ATOM     24  C   UNL     1       5.216  -9.344   1.055  0.00  0.00    +0.136 C 
ENDBRANCH  21  22
ENDBRANCH  20  21
ENDBRANCH  11  15
BRANCH   1  26
ATOM     25  N   UNL     1       3.312  -2.894   4.145  0.00  0.00    -0.315 N 
ATOM     26  C   UNL     1       3.131  -4.221   4.296  0.00  0.00    +0.218 C 
ATOM     27  O   UNL     1       3.041  -4.936   3.320  0.00  0.00    -0.275 OA
ATOM     28  H   UNL     1       3.384  -2.323   4.926  0.00  0.00    +0.149 HD
BRANCH  25  29
ATOM     29  C   UNL     1       3.400  -2.315   2.803  0.00  0.00    +0.109 C 
BRANCH  29  30
ATOM     30  C   UNL     1       3.604  -0.802   2.912  0.00  0.00    +0.054 C 
BRANCH  30  36
ATOM     31  C   UNL     1       6.343   0.579  -1.042  0.00  0.00    +0.044 C 
ATOM     32  C   UNL     1       5.005   0.455  -0.360  0.00  0.00    -0.050 A 
ATOM     33  C   UNL     1       3.860   0.888  -1.002  0.00  0.00    +0.003 A 
ATOM     34  C   UNL     1       2.632   0.775  -0.377  0.00  0.00    +0.001 A 
ATOM     35  C   UNL     1       2.549   0.228   0.890  0.00  0.00    +0.004 A 
ATOM     36  C   UNL     1       3.694  -0.206   1.531  0.00  0.00    -0.046 A 
ATOM     37  C   UNL     1       4.922  -0.097   0.904  0.00  0.00    +0.007 A 
ENDBRANCH  30  36
ENDBRANCH  29  30
ENDBRANCH  25  29
ENDBRANCH   1  26
TORSDOF 7
