REMARK  Name = ZINC49048880
REMARK  7 active torsions:
REMARK  status: ('A' for Active; 'I' for Inactive)
REMARK    1  A    between atoms: C_1  and  C_2
REMARK    2  A    between atoms: C_5  and  N_11
REMARK    3  A    between atoms: C_6  and  N_8
REMARK    4  A    between atoms: N_11  and  S_12
REMARK    5  A    between atoms: S_12  and  C_15
REMARK    6  A    between atoms: C_15  and  C_17
REMARK    7  A    between atoms: C_15  and  C_18
REMARK                            x       y       z     vdW  Elec       q    Type
REMARK                         _______ _______ _______ _____ _____    ______ ____
ROOT
ATOM      1  C   UNL     1      -0.018   1.503   0.010  0.00  0.00    +0.044 C 
ATOM      2  C   UNL     1       0.002  -0.004   0.002  0.00  0.00    -0.048 A 
ATOM      3  C   UNL     1       0.006  -0.687  -1.200  0.00  0.00    +0.005 A 
ATOM      4  C   UNL     1       0.025  -2.068  -1.212  0.00  0.00    +0.029 A 
ATOM      5  C   UNL     1       0.041  -2.771  -0.013  0.00  0.00    +0.104 A 
ATOM      6  C   UNL     1       0.037  -2.081   1.192  0.00  0.00    +0.151 A 
ATOM      7  C   UNL     1       0.023  -0.700   1.196  0.00  0.00    +0.038 A 
ENDROOT
BRANCH   6   8
ATOM      8  N   UNL     1       0.053  -2.826   2.472  0.00  0.00    +0.058 N 
ATOM      9  O   UNL     1       0.050  -2.225   3.521  0.00  0.00    -0.126 OA
ATOM     10  O   UNL     1       0.069  -4.035   2.467  0.00  0.00    -0.126 OA
ENDBRANCH   6   8
BRANCH   5  11
ATOM     11  N   UNL     1       0.059  -4.167  -0.021  0.00  0.00    -0.100 NA
BRANCH  11  12
ATOM     12  S   UNL     1       0.063  -4.987  -1.460  0.00  0.00    +0.076 S 
ATOM     13  O   UNL     1      -1.179  -4.660  -2.067  0.00  0.00    -0.153 OA
ATOM     14  O   UNL     1       1.290  -4.627  -2.079  0.00  0.00    -0.153 OA
BRANCH  12  15
ATOM     15  C   UNL     1       0.089  -6.741  -0.996  0.00  0.00    +0.262 C 
ATOM     16  C   UNL     1      -1.151  -7.067  -0.163  0.00  0.00    +0.046 C 
BRANCH  15  17
ATOM     17  C   UNL     1       0.095  -7.590  -2.242  0.00  0.00    +0.381 C 
ATOM     18  O   UNL     1       1.153  -7.918  -2.751  0.00  0.00    -0.244 OA
ATOM     19  O   UNL     1      -0.959  -7.947  -2.740  0.00  0.00    -0.244 OA
ENDBRANCH  15  17
ENDBRANCH  12  15
ENDBRANCH  11  12
ENDBRANCH   5  11
TORSDOF 5
