REMARK  Name = ZINC47534635
REMARK  4 active torsions:
REMARK  status: ('A' for Active; 'I' for Inactive)
REMARK    1  A    between atoms: C_1  and  C_2
REMARK    2  A    between atoms: C_2  and  C_4
REMARK    3  A    between atoms: C_2  and  N_16
REMARK    4  A    between atoms: C_17  and  C_19
REMARK                            x       y       z     vdW  Elec       q    Type
REMARK                         _______ _______ _______ _____ _____    ______ ____
ROOT
ATOM      1  C   UNL     1      -0.019   1.526   0.010  0.00  0.00    +0.033 C 
ATOM      2  C   UNL     1       0.002  -0.004   0.002  0.00  0.00    +0.100 C 
ENDROOT
BRANCH   2   3
ATOM      3  C   UNL     1       0.707  -0.490  -1.238  0.00  0.00    -0.025 A 
ATOM      4  C   UNL     1       2.091  -0.510  -1.281  0.00  0.00    +0.007 A 
ATOM      5  C   UNL     1       2.747  -0.953  -2.413  0.00  0.00    +0.028 A 
ATOM      6  C   UNL     1       2.015  -1.381  -3.510  0.00  0.00    +0.067 A 
ATOM      7  C   UNL     1       0.620  -1.361  -3.467  0.00  0.00    +0.067 A 
ATOM      8  C   UNL     1      -0.029  -0.919  -2.324  0.00  0.00    +0.033 A 
ATOM      9  N   UNL     1       0.172  -1.841  -4.696  0.00  0.00    -0.306 N 
ATOM     10  H   UNL     1      -0.755  -1.943  -4.962  0.00  0.00    +0.170 HD
ATOM     11  C   UNL     1       1.246  -2.139  -5.451  0.00  0.00    +0.325 A 
ATOM     12  O   UNL     1       1.205  -2.582  -6.584  0.00  0.00    -0.247 OA
ATOM     13  N   UNL     1       2.373  -1.872  -4.764  0.00  0.00    -0.306 N 
ATOM     14  H   UNL     1       3.278  -2.000  -5.087  0.00  0.00    +0.170 HD
ENDBRANCH   2   3
BRANCH   2  15
ATOM     15  N   UNL     1       0.711  -0.489   1.189  0.00  0.00    -0.304 N 
ATOM     16  C   UNL     1       0.051  -0.633   2.355  0.00  0.00    +0.253 C 
ATOM     17  O   UNL     1      -1.133  -0.360   2.423  0.00  0.00    -0.270 OA
ATOM     18  H   UNL     1       1.654  -0.707   1.135  0.00  0.00    +0.150 HD
BRANCH  16  19
ATOM     19  C   UNL     1       0.761  -1.120   3.545  0.00  0.00    +0.093 A 
ATOM     20  C   UNL     1       0.272  -1.334   4.796  0.00  0.00    +0.068 A 
ATOM     21  C   UNL     1       1.124  -1.808   5.811  0.00  0.00    +0.008 A 
ATOM     22  C   UNL     1       0.806  -2.090   7.165  0.00  0.00    +0.010 A 
ATOM     23  C   UNL     1       1.756  -2.545   8.022  0.00  0.00    +0.001 A 
ATOM     24  C   UNL     1       3.068  -2.752   7.612  0.00  0.00    +0.001 A 
ATOM     25  C   UNL     1       3.421  -2.490   6.303  0.00  0.00    +0.016 A 
ATOM     26  C   UNL     1       2.466  -2.028   5.422  0.00  0.00    +0.021 A 
ATOM     27  S   UNL     1       2.477  -1.583   3.704  0.00  0.00    -0.082 S 
ATOM     28 CL   UNL     1      -1.401  -1.022   5.141  0.00  0.00    -0.082 Cl
ENDBRANCH  16  19
ENDBRANCH   2  15
TORSDOF 3
