REMARK  Name = ZINC39370634
REMARK  12 active torsions:
REMARK  status: ('A' for Active; 'I' for Inactive)
REMARK    1  A    between atoms: C_1  and  C_2
REMARK    2  A    between atoms: C_2  and  O_3
REMARK    3  A    between atoms: O_3  and  C_4
REMARK    4  A    between atoms: C_4  and  C_6
REMARK    5  A    between atoms: C_8  and  N_18
REMARK    6  A    between atoms: C_11  and  O_16
REMARK    7  A    between atoms: O_16  and  C_17
REMARK    8  A    between atoms: N_18  and  C_19
REMARK    9  A    between atoms: C_19  and  N_21
REMARK   10  A    between atoms: N_24  and  C_29
REMARK   11  A    between atoms: C_25  and  C_28
REMARK   12  A    between atoms: C_33  and  C_35
REMARK                            x       y       z     vdW  Elec       q    Type
REMARK                         _______ _______ _______ _____ _____    ______ ____
ROOT
ATOM      1  N   UNL     1      -0.074  -1.312  -4.321  0.00  0.00    -0.297 N 
ATOM      2  H   UNL     1       0.886  -1.338  -4.455  0.00  0.00    +0.154 HD
ENDROOT
BRANCH   1   4
ATOM      3  C   UNL     1       0.191  -0.828  -1.807  0.00  0.00    +0.234 C 
ATOM      4  C   UNL     1      -0.583  -1.031  -3.090  0.00  0.00    +0.052 C 
ATOM      5  C   UNL     1      -1.917  -0.870  -2.754  0.00  0.00    +0.021 A 
ATOM      6  C   UNL     1      -3.108  -0.938  -3.517  0.00  0.00    +0.057 A 
ATOM      7  C   UNL     1      -4.308  -0.732  -2.911  0.00  0.00    +0.121 A 
ATOM      8  C   UNL     1      -4.397  -0.452  -1.541  0.00  0.00    +0.047 A 
ATOM      9  C   UNL     1      -3.297  -0.372  -0.754  0.00  0.00    +0.029 A 
ATOM     10  C   UNL     1      -2.010  -0.575  -1.315  0.00  0.00    +0.045 A 
ATOM     11  N   UNL     1      -0.808  -0.551  -0.770  0.00  0.00    -0.367 N 
ATOM     12  H   UNL     1      -0.615  -0.378   0.165  0.00  0.00    +0.161 HD
BRANCH   3  13
ATOM     13  C   UNL     1       1.132   0.341  -1.947  0.00  0.00    +0.336 C 
ATOM     14  O   UNL     1       0.822   1.422  -1.504  0.00  0.00    -0.248 OA
BRANCH  13  15
ATOM     15  O   UNL     1       2.313   0.182  -2.564  0.00  0.00    -0.463 OA
BRANCH  15  17
ATOM     16  C   UNL     1       4.447   0.960  -3.390  0.00  0.00    +0.048 C 
ATOM     17  C   UNL     1       3.155   1.333  -2.661  0.00  0.00    +0.229 C 
ENDBRANCH  15  17
ENDBRANCH  13  15
ENDBRANCH   3  13
BRANCH   7  18
ATOM     18  O   UNL     1      -5.447  -0.799  -3.651  0.00  0.00    -0.495 OA
ATOM     19  C   UNL     1      -6.680  -0.575  -2.966  0.00  0.00    +0.277 C 
ENDBRANCH   7  18
ENDBRANCH   1   4
BRANCH   1  20
ATOM     20  C   UNL     1      -0.905  -1.555  -5.354  0.00  0.00    +0.137 C 
ATOM     21  S   UNL     1      -1.205  -3.166  -5.851  0.00  0.00    -0.018 S 
BRANCH  20  22
ATOM     22  N   UNL     1      -1.500  -0.530  -5.996  0.00  0.00    -0.309 N 
ATOM     23  C   UNL     1      -1.162   0.860  -5.660  0.00  0.00    +0.125 C 
ATOM     24  C   UNL     1      -0.721   1.580  -6.940  0.00  0.00    +0.124 C 
ATOM     25  N   UNL     1      -1.718   1.328  -7.989  0.00  0.00    -0.324 N 
ATOM     26  C   UNL     1      -2.056  -0.063  -8.325  0.00  0.00    +0.088 C 
ATOM     27  C   UNL     1      -2.494  -0.783  -7.049  0.00  0.00    +0.129 C 
ATOM     28  C   UNL     1      -3.194  -0.082  -9.348  0.00  0.00    +0.029 C 
BRANCH  25  29
ATOM     29  C   UNL     1      -2.335   2.390  -8.654  0.00  0.00    +0.030 A 
ATOM     30  C   UNL     1      -3.170   3.255  -7.960  0.00  0.00    +0.023 A 
ATOM     31  C   UNL     1      -3.778   4.305  -8.620  0.00  0.00    +0.002 A 
ATOM     32  C   UNL     1      -3.555   4.494  -9.972  0.00  0.00    +0.003 A 
ATOM     33  C   UNL     1      -2.725   3.635 -10.667  0.00  0.00    -0.049 A 
ATOM     34  C   UNL     1      -2.109   2.587 -10.011  0.00  0.00    +0.026 A 
ATOM     35  C   UNL     1      -2.486   3.845 -12.140  0.00  0.00    +0.044 C 
ENDBRANCH  25  29
ENDBRANCH  20  22
ENDBRANCH   1  20
TORSDOF 8
