REMARK  Name = ZINC39898210
REMARK  13 active torsions:
REMARK  status: ('A' for Active; 'I' for Inactive)
REMARK    1  A    between atoms: C_1  and  C_2
REMARK    2  A    between atoms: C_2  and  C_3
REMARK    3  A    between atoms: C_3  and  C_4
REMARK    4  A    between atoms: C_4  and  C_5
REMARK    5  A    between atoms: C_5  and  C_6
REMARK    6  A    between atoms: C_6  and  O_7
REMARK    7  A    between atoms: O_7  and  C_8
REMARK    8  A    between atoms: C_11  and  C_14
REMARK    9  A    between atoms: C_17  and  C_29
REMARK   10  A    between atoms: N_24  and  C_25
REMARK   11  A    between atoms: C_25  and  C_26
REMARK   12  A    between atoms: C_26  and  O_27
REMARK   13  A    between atoms: O_27  and  C_28
REMARK                            x       y       z     vdW  Elec       q    Type
REMARK                         _______ _______ _______ _____ _____    ______ ____
ROOT
ATOM      1  C   UNL     1      -4.830 -10.211  -0.006  0.00  0.00    +0.141 C 
ATOM      2  C   UNL     1      -5.147 -10.699   1.381  0.00  0.00    +0.035 A 
ATOM      3  C   UNL     1      -4.753 -10.813   2.676  0.00  0.00    +0.075 A 
ATOM      4  N   UNL     1      -5.755 -11.467   3.334  0.00  0.00    -0.276 N 
ATOM      5  N   UNL     1      -6.708 -11.745   2.517  0.00  0.00    -0.168 NA
ATOM      6  H   UNL     1      -5.748 -11.690   4.278  0.00  0.00    +0.189 HD
ATOM      7  C   UNL     1      -6.419 -11.312   1.306  0.00  0.00    +0.153 A 
ATOM      8  C   UNL     1      -6.888 -11.212  -0.088  0.00  0.00    +0.268 C 
ATOM      9  O   UNL     1      -7.949 -11.642  -0.495  0.00  0.00    -0.268 OA
ATOM     10  N   UNL     1      -5.975 -10.579  -0.847  0.00  0.00    -0.283 N 
ENDROOT
BRANCH   3  11
ATOM     11  C   UNL     1      -3.485 -10.324   3.260  0.00  0.00    +0.048 A 
ATOM     12  C   UNL     1      -2.548 -11.229   3.758  0.00  0.00    +0.033 A 
ATOM     13  C   UNL     1      -1.366 -10.766   4.301  0.00  0.00    +0.042 A 
ATOM     14  C   UNL     1      -1.107  -9.406   4.353  0.00  0.00    +0.024 A 
ATOM     15  C   UNL     1      -2.029  -8.502   3.862  0.00  0.00    +0.053 A 
ATOM     16  C   UNL     1      -3.217  -8.951   3.309  0.00  0.00    +0.188 A 
ATOM     17  O   UNL     1      -4.121  -8.062   2.821  0.00  0.00    -0.287 OA
ATOM     18 CL   UNL     1      -0.200 -11.893   4.922  0.00  0.00    -0.084 Cl
ENDBRANCH   3  11
BRANCH   1  22
ATOM     19  C   UNL     1      -4.328  -5.967   0.011  0.00  0.00    +0.121 A 
ATOM     20  C   UNL     1      -3.217  -6.798   0.002  0.00  0.00    +0.046 A 
ATOM     21  C   UNL     1      -3.382  -8.170  -0.003  0.00  0.00    +0.009 A 
ATOM     22  C   UNL     1      -4.653  -8.714   0.000  0.00  0.00    -0.022 A 
ATOM     23  C   UNL     1      -5.761  -7.888   0.009  0.00  0.00    +0.009 A 
ATOM     24  C   UNL     1      -5.602  -6.516   0.021  0.00  0.00    +0.046 A 
BRANCH  19  25
ATOM     25  O   UNL     1      -4.168  -4.617   0.017  0.00  0.00    -0.492 OA
BRANCH  25  26
ATOM     26  C   UNL     1      -2.827  -4.123   0.007  0.00  0.00    +0.229 C 
BRANCH  26  27
ATOM     27  C   UNL     1      -2.848  -2.593   0.015  0.00  0.00    +0.041 C 
BRANCH  27  28
ATOM     28  C   UNL     1      -1.413  -2.063   0.004  0.00  0.00    +0.003 C 
BRANCH  28  29
ATOM     29  C   UNL     1      -1.433  -0.534   0.013  0.00  0.00    -0.000 C 
BRANCH  29  31
ATOM     30  C   UNL     1      -0.019   1.526   0.010  0.00  0.00    +0.004 C 
ATOM     31  C   UNL     1       0.002  -0.004   0.002  0.00  0.00    -0.003 C 
ENDBRANCH  29  31
ENDBRANCH  28  29
ENDBRANCH  27  28
ENDBRANCH  26  27
ENDBRANCH  25  26
ENDBRANCH  19  25
ENDBRANCH   1  22
BRANCH  10  32
ATOM     32  C   UNL     1      -6.103 -10.301  -2.280  0.00  0.00    +0.137 C 
BRANCH  32  33
ATOM     33  C   UNL     1      -5.520 -11.467  -3.080  0.00  0.00    +0.178 C 
BRANCH  33  34
ATOM     34  O   UNL     1      -6.303 -12.641  -2.851  0.00  0.00    -0.381 OA
ATOM     35  C   UNL     1      -5.841 -13.795  -3.556  0.00  0.00    +0.194 C 
ENDBRANCH  33  34
ENDBRANCH  32  33
ENDBRANCH  10  32
TORSDOF 11
