REMARK  Name = ZINC08751616
REMARK  7 active torsions:
REMARK  status: ('A' for Active; 'I' for Inactive)
REMARK    1  A    between atoms: C_1  and  O_2
REMARK    2  A    between atoms: O_2  and  C_3
REMARK    3  A    between atoms: C_6  and  C_9
REMARK    4  A    between atoms: C_9  and  C_11
REMARK    5  A    between atoms: C_9  and  N_67
REMARK    6  A    between atoms: C_11  and  N_12
REMARK    7  A    between atoms: C_13  and  C_15
REMARK                            x       y       z     vdW  Elec       q    Type
REMARK                         _______ _______ _______ _____ _____    ______ ____
ROOT
ATOM      1  N   UNL     1      -0.564   7.982   1.511  0.00  0.00    -0.315 N 
ATOM      2  C   UNL     1      -0.780   8.797   2.563  0.00  0.00    +0.233 C 
ATOM      3  O   UNL     1      -0.980   8.326   3.663  0.00  0.00    -0.274 OA
ATOM      4  H   UNL     1      -0.404   8.358   0.631  0.00  0.00    +0.149 HD
ENDROOT
BRANCH   2   5
ATOM      5  C   UNL     1      -0.773  10.291   2.373  0.00  0.00    +0.161 C 
ATOM      6  C   UNL     1      -1.892  10.701   1.393  0.00  0.00    +0.033 C 
ATOM      7  C   UNL     1      -2.423  12.024   2.005  0.00  0.00    +0.021 C 
ATOM      8  C   UNL     1      -2.292  11.740   3.522  0.00  0.00    +0.107 C 
ATOM      9  N   UNL     1      -1.048  10.960   3.653  0.00  0.00    -0.302 N 
ATOM     10  C   UNL     1      -0.271  10.871   4.788  0.00  0.00    +0.153 C 
ATOM     11  N   UNL     1       0.868  10.256   4.756  0.00  0.00    -0.113 NA
ATOM     12  S   UNL     1       1.492  10.367   6.304  0.00  0.00    +0.101 S 
ATOM     13  O   UNL     1       1.499   9.061   6.863  0.00  0.00    -0.146 OA
ATOM     14  O   UNL     1       2.640  11.203   6.250  0.00  0.00    -0.146 OA
ATOM     15  C   UNL     1       0.194  11.283   7.090  0.00  0.00    +0.123 A 
ATOM     16  C   UNL     1      -0.724  11.480   6.048  0.00  0.00    +0.043 A 
ATOM     17  C   UNL     1      -1.899  12.185   6.348  0.00  0.00    +0.013 A 
ATOM     18  C   UNL     1      -2.116  12.665   7.621  0.00  0.00    +0.001 A 
ATOM     19  C   UNL     1      -1.190  12.459   8.627  0.00  0.00    +0.002 A 
ATOM     20  C   UNL     1      -0.023  11.759   8.349  0.00  0.00    +0.030 A 
ENDBRANCH   2   5
BRANCH   1  21
ATOM     21  C   UNL     1      -0.571   6.529   1.696  0.00  0.00    +0.093 C 
BRANCH  21  22
ATOM     22  C   UNL     1      -0.303   5.843   0.355  0.00  0.00    -0.020 C 
BRANCH  22  28
ATOM     23  C   UNL     1      -2.644   5.933  -0.254  0.00  0.00    -0.078 C 
ATOM     24  C   UNL     1      -3.642   6.560  -1.231  0.00  0.00    -0.019 C 
ATOM     25  C   UNL     1      -3.337   6.071  -2.649  0.00  0.00    -0.004 C 
ATOM     26  C   UNL     1      -1.893   6.434  -3.006  0.00  0.00    -0.019 C 
ATOM     27  C   UNL     1      -0.946   5.811  -1.978  0.00  0.00    -0.078 C 
ATOM     28  N   UNL     1      -1.276   6.341  -0.638  0.00  0.00    +0.385 N 
ATOM     29  H   UNL     1      -1.230   7.367  -0.665  0.00  0.00    -0.081 HD
ENDBRANCH  22  28
BRANCH  22  33
ATOM     30  C   UNL     1      -0.668   1.611   0.822  0.00  0.00    +0.120 A 
ATOM     31  C   UNL     1       0.431   2.145   0.165  0.00  0.00    +0.046 A 
ATOM     32  C   UNL     1       0.544   3.513   0.011  0.00  0.00    +0.005 A 
ATOM     33  C   UNL     1      -0.432   4.350   0.520  0.00  0.00    -0.059 A 
ATOM     34  C   UNL     1      -1.525   3.821   1.179  0.00  0.00    +0.005 A 
ATOM     35  C   UNL     1      -1.646   2.453   1.332  0.00  0.00    +0.046 A 
BRANCH  30  37
ATOM     36  C   UNL     1       0.260  -0.541   0.421  0.00  0.00    +0.277 C 
ATOM     37  O   UNL     1      -0.784   0.265   0.971  0.00  0.00    -0.495 OA
ENDBRANCH  30  37
ENDBRANCH  22  33
ENDBRANCH  21  22
ENDBRANCH   1  21
TORSDOF 6
