REMARK  Name = ZINC05725203
REMARK  8 active torsions:
REMARK  status: ('A' for Active; 'I' for Inactive)
REMARK    1  A    between atoms: C_1  and  C_2
REMARK    2  A    between atoms: C_2  and  C_25
REMARK    3  A    between atoms: N_3  and  N_4
REMARK    4  A    between atoms: C_5  and  C_16
REMARK    5  A    between atoms: C_19  and  N_22
REMARK    6  A    between atoms: N_22  and  C_23
REMARK    7  A    between atoms: N_22  and  C_24
REMARK    8  A    between atoms: C_30  and  O_31
REMARK                            x       y       z     vdW  Elec       q    Type
REMARK                         _______ _______ _______ _____ _____    ______ ____
ROOT
ATOM      1  N   UNL     1      -1.130   2.069   0.026  0.00  0.00    -0.163 N 
ATOM      2  C   UNL     1      -1.246   3.523  -0.079  0.00  0.00    +0.215 C 
ATOM      3  N   UNL     1      -0.053   4.172   0.479  0.00  0.00    -0.320 N 
ATOM      4  C   UNL     1       1.197   3.654   0.156  0.00  0.00    +0.041 A 
ATOM      5  C   UNL     1       2.326   4.452   0.089  0.00  0.00    +0.024 A 
ATOM      6  C   UNL     1       3.542   3.887  -0.245  0.00  0.00    +0.002 A 
ATOM      7  C   UNL     1       3.641   2.531  -0.511  0.00  0.00    +0.001 A 
ATOM      8  C   UNL     1       2.525   1.721  -0.446  0.00  0.00    +0.015 A 
ATOM      9  C   UNL     1       1.293   2.276  -0.110  0.00  0.00    +0.059 A 
ATOM     10  C   UNL     1       0.071   1.458  -0.021  0.00  0.00    +0.270 C 
ATOM     11  O   UNL     1       0.145   0.244   0.005  0.00  0.00    -0.268 OA
ATOM     12  H   UNL     1      -0.134   4.945   1.059  0.00  0.00    +0.148 HD
ENDROOT
BRANCH   2  13
ATOM     13  C   UNL     1      -1.386   3.901  -1.531  0.00  0.00    -0.007 A 
ATOM     14  C   UNL     1      -1.974   3.019  -2.419  0.00  0.00    +0.009 A 
ATOM     15  C   UNL     1      -2.110   3.364  -3.750  0.00  0.00    +0.023 A 
ATOM     16  C   UNL     1      -1.644   4.594  -4.197  0.00  0.00    +0.029 A 
ATOM     17  C   UNL     1      -1.049   5.475  -3.304  0.00  0.00    +0.023 A 
ATOM     18  C   UNL     1      -0.921   5.126  -1.974  0.00  0.00    +0.009 A 
BRANCH  16  19
ATOM     19  N   UNL     1      -1.774   4.944  -5.543  0.00  0.00    -0.336 N 
ATOM     20  C   UNL     1      -1.392   6.285  -5.992  0.00  0.00    +0.129 C 
ATOM     21  C   UNL     1      -2.292   3.969  -6.507  0.00  0.00    +0.129 C 
ENDBRANCH  16  19
ENDBRANCH   2  13
BRANCH   1  24
ATOM     22  C   UNL     1      -2.566   2.341   2.361  0.00  0.00    +0.068 C 
ATOM     23  C   UNL     1      -2.977   1.374   1.280  0.00  0.00    +0.067 C 
ATOM     24  N   UNL     1      -2.289   1.298   0.182  0.00  0.00    -0.179 NA
BRANCH  23  25
ATOM     25  C   UNL     1      -4.160   0.516   1.471  0.00  0.00    +0.039 A 
ATOM     26  C   UNL     1      -4.902   0.596   2.651  0.00  0.00    +0.013 A 
ATOM     27  C   UNL     1      -6.008  -0.210   2.823  0.00  0.00    +0.001 A 
ATOM     28  C   UNL     1      -6.386  -1.098   1.830  0.00  0.00    +0.004 A 
ATOM     29  C   UNL     1      -5.659  -1.186   0.658  0.00  0.00    +0.046 A 
ATOM     30  C   UNL     1      -4.549  -0.380   0.466  0.00  0.00    +0.126 A 
BRANCH  30  31
ATOM     31  O   UNL     1      -3.838  -0.462  -0.688  0.00  0.00    -0.506 OA
ATOM     32  H   UNL     1      -3.121  -1.110  -0.663  0.00  0.00    +0.292 HD
ENDBRANCH  30  31
ENDBRANCH  23  25
ENDBRANCH   1  24
TORSDOF 5
