REMARK  Name = ZINC27100060
REMARK  14 active torsions:
REMARK  status: ('A' for Active; 'I' for Inactive)
REMARK    1  A    between atoms: C_1  and  C_2
REMARK    2  A    between atoms: C_2  and  O_3
REMARK    3  A    between atoms: O_3  and  C_4
REMARK    4  A    between atoms: C_4  and  C_6
REMARK    5  A    between atoms: C_9  and  O_12
REMARK    6  A    between atoms: O_12  and  C_13
REMARK    7  A    between atoms: C_19  and  O_36
REMARK    8  A    between atoms: C_20  and  C_28
REMARK    9  A    between atoms: C_23  and  C_24
REMARK   10  A    between atoms: C_28  and  N_29
REMARK   11  A    between atoms: N_29  and  C_30
REMARK   12  A    between atoms: N_29  and  C_33
REMARK   13  A    between atoms: C_30  and  C_31
REMARK   14  A    between atoms: C_33  and  C_34
REMARK                            x       y       z     vdW  Elec       q    Type
REMARK                         _______ _______ _______ _____ _____    ______ ____
ROOT
ATOM      1  C   UNL     1       2.480   1.481   0.386  0.00  0.00    +0.222 A 
ATOM      2  C   UNL     1       3.533   0.580   0.061  0.00  0.00    +0.235 A 
ATOM      3  O   UNL     1       4.687   0.961  -0.043  0.00  0.00    -0.283 OA
ATOM      4  C   UNL     1       3.171  -0.833  -0.146  0.00  0.00    +0.068 A 
ATOM      5  C   UNL     1       4.133  -1.791  -0.468  0.00  0.00    +0.019 A 
ATOM      6  C   UNL     1       3.760  -3.091  -0.652  0.00  0.00    +0.046 A 
ATOM      7  C   UNL     1       2.424  -3.466  -0.520  0.00  0.00    +0.122 A 
ATOM      8  C   UNL     1       1.457  -2.528  -0.201  0.00  0.00    +0.020 A 
ATOM      9  C   UNL     1       1.821  -1.202  -0.010  0.00  0.00    +0.144 A 
ATOM     10  O   UNL     1       0.900  -0.268   0.301  0.00  0.00    -0.447 OA
ATOM     11  C   UNL     1       1.218   1.019   0.491  0.00  0.00    +0.254 A 
ENDROOT
BRANCH  11  12
ATOM     12  C   UNL     1       0.119   1.993   0.829  0.00  0.00    +0.454 C 
ATOM     13  F   UNL     1      -0.409   2.529  -0.350  0.00  0.00    -0.163 F 
ATOM     14  F   UNL     1      -0.892   1.328   1.532  0.00  0.00    -0.163 F 
ATOM     15  F   UNL     1       0.636   3.024   1.621  0.00  0.00    -0.163 F 
ENDBRANCH  11  12
BRANCH   7  16
ATOM     16  O   UNL     1       2.067  -4.763  -0.707  0.00  0.00    -0.506 OA
ATOM     17  H   UNL     1       1.014  -5.064  -0.604  0.00  0.00    +0.292 HD
ENDBRANCH   7  16
BRANCH   1  18
ATOM     18  O   UNL     1       2.746   2.801   0.589  0.00  0.00    -0.448 OA
BRANCH  18  22
ATOM     19  C   UNL     1       3.658   4.026   4.423  0.00  0.00    +0.059 A 
ATOM     20  C   UNL     1       3.628   4.955   3.379  0.00  0.00    +0.018 A 
ATOM     21  C   UNL     1       3.324   4.542   2.102  0.00  0.00    +0.047 A 
ATOM     22  C   UNL     1       3.046   3.203   1.849  0.00  0.00    +0.129 A 
ATOM     23  C   UNL     1       3.068   2.277   2.886  0.00  0.00    +0.047 A 
ATOM     24  C   UNL     1       3.377   2.680   4.165  0.00  0.00    +0.018 A 
BRANCH  19  25
ATOM     25  C   UNL     1       3.984   4.463   5.793  0.00  0.00    +0.339 C 
ATOM     26  O   UNL     1       4.228   5.633   6.015  0.00  0.00    -0.245 OA
BRANCH  25  27
ATOM     27  O   UNL     1       4.012   3.566   6.798  0.00  0.00    -0.461 OA
BRANCH  27  29
ATOM     28  C   UNL     1       4.323   2.912   9.123  0.00  0.00    +0.048 C 
ATOM     29  C   UNL     1       4.341   4.068   8.121  0.00  0.00    +0.229 C 
ENDBRANCH  27  29
ENDBRANCH  25  27
ENDBRANCH  19  25
ENDBRANCH  18  22
ENDBRANCH   1  18
BRANCH   8  30
ATOM     30  C   UNL     1       0.015  -2.944  -0.061  0.00  0.00    -0.035 C 
BRANCH  30  31
ATOM     31  N   UNL     1      -0.605  -3.017  -1.391  0.00  0.00    +0.387 N 
ATOM     32  H   UNL     1       0.043  -3.631  -2.033  0.00  0.00    -0.080 HD
BRANCH  31  33
ATOM     33  C   UNL     1      -1.920  -3.666  -1.323  0.00  0.00    -0.051 C 
BRANCH  33  34
ATOM     34  C   UNL     1      -2.333  -4.109  -2.703  0.00  0.00    -0.053 C 
ATOM     35  C   UNL     1      -2.635  -5.365  -2.925  0.00  0.00    +0.002 C 
ENDBRANCH  33  34
ENDBRANCH  31  33
BRANCH  31  36
ATOM     36  C   UNL     1      -0.706  -1.683  -1.997  0.00  0.00    -0.051 C 
BRANCH  36  37
ATOM     37  C   UNL     1      -0.950  -1.821  -3.478  0.00  0.00    -0.053 C 
ATOM     38  C   UNL     1      -1.975  -1.222  -4.032  0.00  0.00    +0.002 C 
ENDBRANCH  36  37
ENDBRANCH  31  36
ENDBRANCH  30  31
ENDBRANCH   8  30
TORSDOF 13
