REMARK  Name = ZINC16953315
REMARK  8 active torsions:
REMARK  status: ('A' for Active; 'I' for Inactive)
REMARK    1  A    between atoms: N_9  and  N_19
REMARK    2  A    between atoms: C_10  and  C_12
REMARK    3  A    between atoms: N_19  and  C_20
REMARK    4  A    between atoms: C_20  and  C_21
REMARK    5  A    between atoms: C_21  and  O_33
REMARK    6  A    between atoms: C_22  and  O_32
REMARK    7  A    between atoms: C_24  and  O_31
REMARK    8  A    between atoms: C_26  and  O_30
REMARK                            x       y       z     vdW  Elec       q    Type
REMARK                         _______ _______ _______ _____ _____    ______ ____
ROOT
ATOM      1  C   UNL     1       3.089  11.587  -1.584  0.00  0.00    +0.001 A 
ATOM      2  C   UNL     1       3.241  12.134  -0.316  0.00  0.00    +0.002 A 
ATOM      3  C   UNL     1       3.455  11.337   0.773  0.00  0.00    +0.028 A 
ATOM      4  C   UNL     1       3.522   9.950   0.616  0.00  0.00    +0.079 A 
ATOM      5  C   UNL     1       3.368   9.391  -0.674  0.00  0.00    +0.066 A 
ATOM      6  C   UNL     1       3.151  10.223  -1.771  0.00  0.00    +0.015 A 
ATOM      7  C   UNL     1       3.450   7.930  -0.813  0.00  0.00    +0.279 A 
ATOM      8  O   UNL     1       3.330   7.391  -1.897  0.00  0.00    -0.265 OA
ATOM      9  N   UNL     1       3.659   7.207   0.312  0.00  0.00    -0.211 N 
ATOM     10  C   UNL     1       3.797   7.832   1.521  0.00  0.00    +0.163 A 
ATOM     11  N   UNL     1       3.732   9.130   1.665  0.00  0.00    -0.227 NA
ENDROOT
BRANCH  10  12
ATOM     12  C   UNL     1       4.029   7.001   2.721  0.00  0.00    +0.037 A 
ATOM     13  C   UNL     1       3.124   7.034   3.783  0.00  0.00    +0.013 A 
ATOM     14  C   UNL     1       3.348   6.256   4.900  0.00  0.00    +0.001 A 
ATOM     15  C   UNL     1       4.466   5.443   4.970  0.00  0.00    +0.001 A 
ATOM     16  C   UNL     1       5.367   5.405   3.922  0.00  0.00    +0.021 A 
ATOM     17  C   UNL     1       5.153   6.174   2.795  0.00  0.00    +0.052 A 
ATOM     18 CL   UNL     1       6.281   6.120   1.476  0.00  0.00    -0.083 Cl
ENDBRANCH  10  12
BRANCH   9  19
ATOM     19  N   UNL     1       3.738   5.845   0.239  0.00  0.00    -0.275 N 
ATOM     20  H   UNL     1       4.182   5.464   1.061  0.00  0.00    +0.167 HD
BRANCH  19  21
ATOM     21  C   UNL     1       2.410   5.251   0.033  0.00  0.00    +0.188 C 
BRANCH  21  22
ATOM     22  C   UNL     1       2.540   3.728  -0.043  0.00  0.00    +0.214 C 
ATOM     23  C   UNL     1       1.156   3.108  -0.256  0.00  0.00    +0.206 C 
ATOM     24  C   UNL     1       1.286   1.582  -0.272  0.00  0.00    +0.179 C 
ATOM     25  C   UNL     1       1.934   1.122   1.038  0.00  0.00    +0.171 C 
ATOM     26  C   UNL     1       3.288   1.819   1.200  0.00  0.00    +0.197 C 
ATOM     27  O   UNL     1       3.099   3.235   1.176  0.00  0.00    -0.343 OA
BRANCH  25  28
ATOM     28  O   UNL     1       2.127  -0.293   1.004  0.00  0.00    -0.387 OA
ATOM     29  H   UNL     1       2.534  -0.654   1.803  0.00  0.00    +0.210 HD
ENDBRANCH  25  28
BRANCH  24  30
ATOM     30  O   UNL     1      -0.010   0.993  -0.397  0.00  0.00    -0.386 OA
ATOM     31  H   UNL     1      -0.003   0.026  -0.406  0.00  0.00    +0.210 HD
ENDBRANCH  24  30
BRANCH  23  32
ATOM     32  O   UNL     1       0.619   3.555  -1.503  0.00  0.00    -0.384 OA
ATOM     33  H   UNL     1      -0.256   3.196  -1.705  0.00  0.00    +0.210 HD
ENDBRANCH  23  32
BRANCH  22  34
ATOM     34  O   UNL     1       3.392   3.377  -1.135  0.00  0.00    -0.361 OA
ATOM     35  H   UNL     1       4.288   3.736  -1.066  0.00  0.00    +0.213 HD
ENDBRANCH  22  34
ENDBRANCH  21  22
ENDBRANCH  19  21
ENDBRANCH   9  19
TORSDOF 8
