REMARK  Name = ZINC28204420
REMARK  4 active torsions:
REMARK  status: ('A' for Active; 'I' for Inactive)
REMARK    1  A    between atoms: C_1  and  C_2
REMARK    2  A    between atoms: C_7  and  C_8
REMARK    3  A    between atoms: N_10  and  N_11
REMARK    4  A    between atoms: C_18  and  C_21
REMARK                            x       y       z     vdW  Elec       q    Type
REMARK                         _______ _______ _______ _____ _____    ______ ____
ROOT
ATOM      1  C   UNL     1       1.750   3.199   0.002  0.00  0.00    +0.279 C 
ATOM      2  O   UNL     1       0.941   4.108   0.015  0.00  0.00    -0.267 OA
ATOM      3  N   UNL     1       3.070   3.471  -0.009  0.00  0.00    -0.214 N 
ATOM      4  H   UNL     1       3.801   2.649  -0.020  0.00  0.00    +0.176 HD
ENDROOT
BRANCH   1  11
ATOM      5  C   UNL     1      -1.238   2.280   0.021  0.00  0.00    +0.047 C 
ATOM      6  C   UNL     1      -0.017   1.396   0.010  0.00  0.00    -0.010 A 
ATOM      7  C   UNL     1       0.002  -0.004   0.002  0.00  0.00    +0.042 A 
ATOM      8  C   UNL     1       1.337  -0.409  -0.011  0.00  0.00    +0.027 A 
ATOM      9  N   UNL     1       2.098   0.685  -0.014  0.00  0.00    -0.354 N 
ATOM     10  H   UNL     1       3.194   0.593  -0.026  0.00  0.00    +0.166 HD
ATOM     11  C   UNL     1       1.288   1.805  -0.001  0.00  0.00    +0.107 A 
ATOM     12  C   UNL     1       1.752  -1.859  -0.018  0.00  0.00    +0.054 C 
ATOM     13  C   UNL     1       0.593  -2.718   0.495  0.00  0.00    +0.014 C 
ATOM     14  C   UNL     1      -0.692  -2.416  -0.283  0.00  0.00    +0.080 C 
ATOM     15  C   UNL     1      -1.100  -0.978   0.003  0.00  0.00    +0.165 C 
ATOM     16  O   UNL     1      -2.251  -0.659   0.216  0.00  0.00    -0.292 OA
ENDBRANCH   1  11
BRANCH   3  17
ATOM     17  N   UNL     1       3.511   4.801  -0.006  0.00  0.00    -0.212 N 
ATOM     18  C   UNL     1       3.424   5.533  -1.146  0.00  0.00    +0.223 A 
ATOM     19  N   UNL     1       3.821   6.777  -1.181  0.00  0.00    -0.228 NA
ATOM     20  C   UNL     1       4.332   7.364  -0.103  0.00  0.00    +0.116 A 
ATOM     21  C   UNL     1       4.466   6.684   1.119  0.00  0.00    +0.081 A 
ATOM     22  C   UNL     1       4.018   5.325   1.125  0.00  0.00    +0.280 A 
ATOM     23  O   UNL     1       4.093   4.653   2.139  0.00  0.00    -0.265 OA
ATOM     24  C   UNL     1       5.045   7.470   2.203  0.00  0.00    +0.004 A 
ATOM     25  C   UNL     1       5.399   8.755   1.959  0.00  0.00    +0.056 A 
ATOM     26  S   UNL     1       4.970   8.983   0.244  0.00  0.00    -0.076 S 
BRANCH  24  27
ATOM     27  C   UNL     1       5.243   6.874   3.545  0.00  0.00    -0.017 A 
ATOM     28  C   UNL     1       4.194   6.207   4.176  0.00  0.00    +0.008 A 
ATOM     29  C   UNL     1       4.385   5.649   5.424  0.00  0.00    +0.001 A 
ATOM     30  C   UNL     1       5.612   5.760   6.053  0.00  0.00    +0.000 A 
ATOM     31  C   UNL     1       6.655   6.426   5.434  0.00  0.00    +0.001 A 
ATOM     32  C   UNL     1       6.477   6.982   4.184  0.00  0.00    +0.008 A 
ENDBRANCH  24  27
ENDBRANCH   3  17
TORSDOF 3
