REMARK  Name = ZINC42814241
REMARK  6 active torsions:
REMARK  status: ('A' for Active; 'I' for Inactive)
REMARK    1  A    between atoms: C_4  and  C_7
REMARK    2  A    between atoms: C_7  and  C_9
REMARK    3  A    between atoms: C_7  and  N_24
REMARK    4  A    between atoms: C_9  and  N_10
REMARK    5  A    between atoms: N_13  and  N_14
REMARK    6  A    between atoms: C_15  and  C_17
REMARK                            x       y       z     vdW  Elec       q    Type
REMARK                         _______ _______ _______ _____ _____    ______ ____
ROOT
ATOM      1  N   UNL     1       4.190   0.014   2.241  0.00  0.00    -0.299 N 
ATOM      2  C   UNL     1       4.465  -0.155   3.550  0.00  0.00    +0.316 C 
ATOM      3  O   UNL     1       4.438  -1.268   4.038  0.00  0.00    -0.251 OA
ATOM      4  N   UNL     1       4.770   0.911   4.317  0.00  0.00    -0.218 N 
ATOM      5  H   UNL     1       4.211   0.902   1.851  0.00  0.00    +0.150 HD
ATOM      6  H   UNL     1       4.969   0.789   5.258  0.00  0.00    +0.174 HD
ENDROOT
BRANCH   4   7
ATOM      7  N   UNL     1       4.802   2.193   3.754  0.00  0.00    -0.229 N 
ATOM      8  C   UNL     1       5.107   3.259   4.521  0.00  0.00    +0.263 C 
ATOM      9  O   UNL     1       5.355   3.107   5.701  0.00  0.00    -0.269 OA
ATOM     10  H   UNL     1       4.603   2.315   2.812  0.00  0.00    +0.173 HD
BRANCH   8  11
ATOM     11  C   UNL     1       5.140   4.611   3.928  0.00  0.00    +0.073 A 
ATOM     12  C   UNL     1       4.849   4.790   2.573  0.00  0.00    +0.016 A 
ATOM     13  C   UNL     1       4.881   6.055   2.026  0.00  0.00    +0.001 A 
ATOM     14  C   UNL     1       5.200   7.147   2.814  0.00  0.00    +0.003 A 
ATOM     15  C   UNL     1       5.490   6.980   4.155  0.00  0.00    +0.039 A 
ATOM     16  C   UNL     1       5.456   5.718   4.720  0.00  0.00    +0.136 A 
ATOM     17  F   UNL     1       5.733   5.556   6.032  0.00  0.00    -0.205 F 
ENDBRANCH   8  11
ENDBRANCH   4   7
BRANCH   1  18
ATOM     18  C   UNL     1       3.858  -1.144   1.407  0.00  0.00    +0.095 C 
BRANCH  18  19
ATOM     19  C   UNL     1       3.463  -0.668   0.008  0.00  0.00    -0.020 C 
BRANCH  19  23
ATOM     20  C   UNL     1      -0.151   1.597   0.237  0.00  0.00    +0.000 A 
ATOM     21  C   UNL     1       1.067   2.246   0.153  0.00  0.00    +0.000 A 
ATOM     22  C   UNL     1       2.237   1.512   0.079  0.00  0.00    +0.002 A 
ATOM     23  C   UNL     1       2.188   0.131   0.089  0.00  0.00    -0.059 A 
ATOM     24  C   UNL     1       0.971  -0.517   0.174  0.00  0.00    +0.002 A 
ATOM     25  C   UNL     1      -0.199   0.216   0.247  0.00  0.00    +0.000 A 
ENDBRANCH  19  23
BRANCH  19  26
ATOM     26  N   UNL     1       3.257  -1.832  -0.865  0.00  0.00    +0.385 N 
ATOM     27  C   UNL     1       2.886  -1.387  -2.233  0.00  0.00    -0.078 C 
ATOM     28  C   UNL     1       3.256  -2.607  -3.114  0.00  0.00    -0.020 C 
ATOM     29  C   UNL     1       4.554  -3.128  -2.456  0.00  0.00    -0.020 C 
ATOM     30  C   UNL     1       4.519  -2.588  -1.015  0.00  0.00    -0.078 C 
ATOM     31  H   UNL     1       2.537  -2.429  -0.485  0.00  0.00    -0.081 HD
ENDBRANCH  19  26
ENDBRANCH  18  19
ENDBRANCH   1  18
TORSDOF 6
