REMARK  Name = ZINC43090656
REMARK  6 active torsions:
REMARK  status: ('A' for Active; 'I' for Inactive)
REMARK    1  A    between atoms: C_1  and  C_2
REMARK    2  A    between atoms: C_2  and  C_4
REMARK    3  A    between atoms: C_2  and  N_23
REMARK    4  A    between atoms: C_4  and  C_6
REMARK    5  A    between atoms: C_4  and  N_13
REMARK    6  A    between atoms: C_17  and  C_20
REMARK                            x       y       z     vdW  Elec       q    Type
REMARK                         _______ _______ _______ _____ _____    ______ ____
ROOT
ATOM      1  C   UNL     1       0.736  -0.394   1.266  0.00  0.00    -0.052 C 
ENDROOT
BRANCH   1   2
ATOM      2  C   UNL     1       0.856  -1.895   1.223  0.00  0.00    -0.049 A 
ATOM      3  C   UNL     1       1.977  -2.483   0.667  0.00  0.00    +0.003 A 
ATOM      4  C   UNL     1       2.088  -3.860   0.628  0.00  0.00    +0.000 A 
ATOM      5  C   UNL     1       1.078  -4.651   1.145  0.00  0.00    +0.001 A 
ATOM      6  C   UNL     1      -0.043  -4.064   1.701  0.00  0.00    +0.015 A 
ATOM      7  C   UNL     1      -0.152  -2.685   1.745  0.00  0.00    +0.019 A 
ATOM      8 BR   UNL     1      -1.682  -1.881   2.513  0.00  0.00    -0.050 Br
ENDBRANCH   1   2
BRANCH   1   9
ATOM      9  N   UNL     1       2.063   0.198   1.481  0.00  0.00    +0.384 N 
ATOM     10  C   UNL     1       2.614  -0.288   2.752  0.00  0.00    -0.078 C 
ATOM     11  C   UNL     1       4.030   0.262   2.942  0.00  0.00    -0.018 C 
ATOM     12  C   UNL     1       3.980   1.792   2.957  0.00  0.00    +0.009 C 
ATOM     13  C   UNL     1       3.335   2.285   1.659  0.00  0.00    +0.058 C 
ATOM     14  C   UNL     1       1.945   1.661   1.516  0.00  0.00    -0.065 C 
ATOM     15  H   UNL     1       2.676  -0.071   0.726  0.00  0.00    -0.081 HD
BRANCH  13  16
ATOM     16  C   UNL     1       3.212   3.787   1.697  0.00  0.00    +0.212 C 
ATOM     17  O   UNL     1       2.120   4.308   1.614  0.00  0.00    -0.276 OA
ATOM     18  N   UNL     1       4.315   4.550   1.822  0.00  0.00    -0.329 N 
ATOM     19  H   UNL     1       5.189   4.134   1.888  0.00  0.00    +0.145 HD
ATOM     20  H   UNL     1       4.236   5.517   1.847  0.00  0.00    +0.145 HD
ENDBRANCH  13  16
ENDBRANCH   1   9
BRANCH   1  22
ATOM     21  C   UNL     1      -1.257  -0.435  -0.240  0.00  0.00    -0.016 C 
ATOM     22  C   UNL     1       0.161   0.110  -0.059  0.00  0.00    -0.088 C 
BRANCH  22  23
ATOM     23  N   UNL     1       1.009  -0.351  -1.167  0.00  0.00    +0.379 N 
ATOM     24  H   UNL     1       0.684   0.057  -2.031  0.00  0.00    -0.090 HD
ATOM     25  H   UNL     1       1.963  -0.070  -1.000  0.00  0.00    -0.090 HD
ATOM     26  H   UNL     1       0.961  -1.357  -1.231  0.00  0.00    -0.090 HD
ENDBRANCH  22  23
ENDBRANCH   1  22
TORSDOF 5
