REMARK  Name = ZINC63541048
REMARK  10 active torsions:
REMARK  status: ('A' for Active; 'I' for Inactive)
REMARK    1  A    between atoms: C_1  and  C_2
REMARK    2  A    between atoms: C_4  and  C_15
REMARK    3  A    between atoms: C_5  and  C_14
REMARK    4  A    between atoms: N_7  and  C_8
REMARK    5  A    between atoms: N_16  and  N_17
REMARK    6  A    between atoms: C_18  and  C_20
REMARK    7  A    between atoms: C_20  and  C_37
REMARK    8  A    between atoms: C_23  and  C_28
REMARK    9  A    between atoms: C_25  and  C_26
REMARK   10  A    between atoms: C_25  and  C_27
REMARK                            x       y       z     vdW  Elec       q    Type
REMARK                         _______ _______ _______ _____ _____    ______ ____
ROOT
ATOM      1  N   UNL     1       2.476  -0.941  -5.218  0.00  0.00    -0.207 N 
ATOM      2  C   UNL     1       1.423  -1.440  -5.896  0.00  0.00    +0.239 C 
ATOM      3  O   UNL     1       0.708  -2.273  -5.379  0.00  0.00    -0.273 OA
ATOM      4  H   UNL     1       3.088  -0.329  -5.655  0.00  0.00    +0.177 HD
ENDROOT
BRANCH   2   5
ATOM      5  C   UNL     1       1.134  -0.962  -7.296  0.00  0.00    +0.051 C 
ATOM      6  C   UNL     1      -0.187  -1.578  -7.802  0.00  0.00    +0.017 C 
ATOM      7  C   UNL     1       0.258  -2.823  -8.608  0.00  0.00    +0.009 C 
ATOM      8  C   UNL     1       1.549  -2.332  -9.310  0.00  0.00    +0.038 C 
ATOM      9  C   UNL     1       2.238  -1.442  -8.255  0.00  0.00    -0.015 C 
ATOM     10  C   UNL     1       2.901  -0.241  -8.933  0.00  0.00    +0.012 C 
ATOM     11  C   UNL     1       3.283  -2.253  -7.487  0.00  0.00    +0.012 C 
ATOM     12  C   UNL     1       1.046   0.565  -7.321  0.00  0.00    +0.021 C 
BRANCH   8  13
ATOM     13  C   UNL     1       2.442  -3.518  -9.679  0.00  0.00    +0.178 C 
ATOM     14  N   UNL     1       3.645  -3.046 -10.377  0.00  0.00    -0.363 N 
ATOM     15  C   UNL     1       3.645  -3.584 -11.562  0.00  0.00    +0.060 A 
ATOM     16  C   UNL     1       4.571  -3.493 -12.700  0.00  0.00    +0.027 A 
ATOM     17  C   UNL     1       4.305  -4.180 -13.829  0.00  0.00    +0.002 A 
ATOM     18  C   UNL     1       3.166  -4.992 -13.973  0.00  0.00    +0.002 A 
ATOM     19  C   UNL     1       2.254  -5.145 -12.992  0.00  0.00    +0.027 A 
ATOM     20  C   UNL     1       2.440  -4.444 -11.714  0.00  0.00    +0.060 A 
ATOM     21  N   UNL     1       1.741  -4.404 -10.617  0.00  0.00    -0.363 N 
ATOM     22  H   UNL     1       4.316  -2.443 -10.020  0.00  0.00    +0.162 HD
ATOM     23  H   UNL     1       0.909  -4.874 -10.449  0.00  0.00    +0.162 HD
ENDBRANCH   8  13
ENDBRANCH   2   5
BRANCH   1  25
ATOM     24  C   UNL     1       3.702  -0.825  -3.227  0.00  0.00    +0.137 C 
ATOM     25  N   UNL     1       2.685  -1.307  -3.882  0.00  0.00    -0.188 NA
BRANCH  24  28
ATOM     26  C   UNL     1       6.399  -1.163  -1.515  0.00  0.00    +0.035 C 
ATOM     27  C   UNL     1       5.047  -0.738  -0.938  0.00  0.00    +0.124 C 
ATOM     28  C   UNL     1       3.920  -1.207  -1.832  0.00  0.00    +0.012 C 
ATOM     29  C   UNL     1       3.159  -2.038  -1.105  0.00  0.00    +0.025 C 
ATOM     30  N   UNL     1       3.644  -2.181   0.169  0.00  0.00    -0.267 N 
ATOM     31  N   UNL     1       4.803  -1.410   0.349  0.00  0.00    -0.246 N 
ATOM     32  C   UNL     1       1.925  -2.729  -1.625  0.00  0.00    +0.062 C 
ATOM     33  H   UNL     1       3.240  -2.737   0.854  0.00  0.00    +0.170 HD
BRANCH  31  34
ATOM     34  C   UNL     1       5.572  -1.303   1.511  0.00  0.00    +0.048 A 
ATOM     35  C   UNL     1       6.697  -0.489   1.528  0.00  0.00    +0.025 A 
ATOM     36  C   UNL     1       7.454  -0.385   2.679  0.00  0.00    +0.002 A 
ATOM     37  C   UNL     1       7.093  -1.090   3.812  0.00  0.00    +0.000 A 
ATOM     38  C   UNL     1       5.974  -1.902   3.798  0.00  0.00    +0.002 A 
ATOM     39  C   UNL     1       5.208  -2.006   2.653  0.00  0.00    +0.025 A 
ENDBRANCH  31  34
ENDBRANCH  24  28
ENDBRANCH   1  25
TORSDOF 5
