REMARK  Name = ZINC20177310
REMARK  13 active torsions:
REMARK  status: ('A' for Active; 'I' for Inactive)
REMARK    1  A    between atoms: C_1  and  C_2
REMARK    2  A    between atoms: C_2  and  O_3
REMARK    3  A    between atoms: O_3  and  C_4
REMARK    4  A    between atoms: C_7  and  C_13
REMARK    5  A    between atoms: C_9  and  O_10
REMARK    6  A    between atoms: O_10  and  C_11
REMARK    7  A    between atoms: C_11  and  C_12
REMARK    8  A    between atoms: C_13  and  C_14
REMARK    9  A    between atoms: C_14  and  N_15
REMARK   10  A    between atoms: C_16  and  C_17
REMARK   11  A    between atoms: C_16  and  C_32
REMARK   12  A    between atoms: C_17  and  N_18
REMARK   13  A    between atoms: N_23  and  C_24
REMARK                            x       y       z     vdW  Elec       q    Type
REMARK                         _______ _______ _______ _____ _____    ______ ____
ROOT
ATOM      1  N   UNL     1      -2.228  -6.203   1.131  0.00  0.00    -0.390 N 
ATOM      2  C   UNL     1      -3.540  -6.643   1.016  0.00  0.00    +0.003 C 
ATOM      3  C   UNL     1      -4.389  -6.189  -0.144  0.00  0.00    +0.059 C 
ATOM      4  H   UNL     1      -1.609  -6.534   1.977  0.00  0.00    +0.159 HD
ENDROOT
BRANCH   1   5
ATOM      5  C   UNL     1      -1.669  -5.297   0.124  0.00  0.00    +0.117 C 
BRANCH   5   6
ATOM      6  C   UNL     1      -0.218  -4.969   0.483  0.00  0.00    +0.056 C 
BRANCH   6  10
ATOM      7  C   UNL     1       1.411  -2.330  -2.461  0.00  0.00    +0.162 A 
ATOM      8  C   UNL     1       1.521  -3.702  -2.619  0.00  0.00    +0.050 A 
ATOM      9  C   UNL     1       0.992  -4.552  -1.667  0.00  0.00    +0.007 A 
ATOM     10  C   UNL     1       0.357  -4.037  -0.552  0.00  0.00    -0.042 A 
ATOM     11  C   UNL     1       0.248  -2.669  -0.385  0.00  0.00    +0.053 A 
ATOM     12  C   UNL     1       0.777  -1.811  -1.336  0.00  0.00    +0.162 A 
BRANCH   7  13
ATOM     13  O   UNL     1       1.926  -1.492  -3.400  0.00  0.00    -0.489 OA
BRANCH  13  15
ATOM     14  C   UNL     1       3.076  -1.002  -5.469  0.00  0.00    +0.048 C 
ATOM     15  C   UNL     1       2.563  -2.095  -4.528  0.00  0.00    +0.226 C 
ENDBRANCH  13  15
ENDBRANCH   7  13
BRANCH  12  16
ATOM     16  O   UNL     1       0.671  -0.465  -1.174  0.00  0.00    -0.489 OA
BRANCH  16  17
ATOM     17  C   UNL     1       0.002  -0.004   0.002  0.00  0.00    +0.226 C 
ATOM     18  C   UNL     1      -0.019   1.526   0.010  0.00  0.00    +0.048 C 
ENDBRANCH  16  17
ENDBRANCH  12  16
ENDBRANCH   6  10
ENDBRANCH   5   6
ENDBRANCH   1   5
BRANCH   2  19
ATOM     19  C   UNL     1      -4.052  -7.471   1.936  0.00  0.00    +0.151 C 
BRANCH  19  20
ATOM     20  N   UNL     1      -5.337  -7.902   1.824  0.00  0.00    -0.318 N 
ATOM     21  C   UNL     1      -5.837  -8.712   2.725  0.00  0.00    +0.164 C 
ATOM     22  N   UNL     1      -7.032  -9.376   3.018  0.00  0.00    -0.200 NA
ATOM     23  C   UNL     1      -7.028 -10.146   4.140  0.00  0.00    +0.198 C 
ATOM     24  S   UNL     1      -5.357  -9.542   4.222  0.00  0.00    -0.015 S 
ATOM     25  N   UNL     1      -7.874 -10.959   4.845  0.00  0.00    -0.221 NA
ATOM     26  H   UNL     1      -5.956  -7.571   0.977  0.00  0.00    +0.148 HD
BRANCH  25  27
ATOM     27  C   UNL     1      -9.180 -11.168   4.394  0.00  0.00    +0.086 A 
ATOM     28  C   UNL     1      -9.622 -10.551   3.230  0.00  0.00    +0.049 A 
ATOM     29  C   UNL     1     -10.914 -10.760   2.787  0.00  0.00    +0.043 A 
ATOM     30  C   UNL     1     -11.768 -11.583   3.501  0.00  0.00    +0.021 A 
ATOM     31  C   UNL     1     -11.332 -12.199   4.659  0.00  0.00    +0.023 A 
ATOM     32  C   UNL     1     -10.039 -11.999   5.105  0.00  0.00    +0.066 A 
ATOM     33 CL   UNL     1      -9.489 -12.778   6.556  0.00  0.00    -0.081 Cl
ATOM     34 CL   UNL     1     -11.467  -9.989   1.333  0.00  0.00    -0.083 Cl
ENDBRANCH  25  27
ENDBRANCH  19  20
ENDBRANCH   2  19
TORSDOF 10
