REMARK  Name = ZINC36489912
REMARK  6 active torsions:
REMARK  status: ('A' for Active; 'I' for Inactive)
REMARK    1  A    between atoms: C_1  and  C_2
REMARK    2  A    between atoms: C_2  and  C_3
REMARK    3  A    between atoms: C_2  and  N_10
REMARK    4  A    between atoms: C_14  and  C_16
REMARK    5  A    between atoms: C_16  and  S_17
REMARK    6  A    between atoms: S_17  and  C_18
REMARK                            x       y       z     vdW  Elec       q    Type
REMARK                         _______ _______ _______ _____ _____    ______ ____
ROOT
ATOM      1  N   UNL     1       0.801  -0.454   1.144  0.00  0.00    -0.296 N 
ATOM      2  C   UNL     1       2.140  -0.564   1.029  0.00  0.00    +0.306 C 
ATOM      3  O   UNL     1       2.683  -0.289  -0.023  0.00  0.00    -0.252 OA
ATOM      4  N   UNL     1       2.875  -0.978   2.080  0.00  0.00    -0.239 N 
ATOM      5  C   UNL     1       4.213  -1.088   1.965  0.00  0.00    +0.231 C 
ATOM      6  O   UNL     1       4.756  -0.814   0.915  0.00  0.00    -0.274 OA
ATOM      7  H   UNL     1       0.367  -0.673   1.984  0.00  0.00    +0.151 HD
ATOM      8  H   UNL     1       2.441  -1.197   2.919  0.00  0.00    +0.159 HD
ENDROOT
BRANCH   1  10
ATOM      9  C   UNL     1      -0.023   1.525  -0.032  0.00  0.00    +0.028 C 
ATOM     10  C   UNL     1       0.002  -0.004   0.002  0.00  0.00    +0.075 C 
BRANCH  10  11
ATOM     11  C   UNL     1      -1.427  -0.534   0.139  0.00  0.00    +0.012 C 
ATOM     12  C   UNL     1      -2.234  -0.246  -1.148  0.00  0.00    +0.009 C 
ATOM     13  C   UNL     1      -2.639  -1.653  -1.683  0.00  0.00    -0.010 C 
ATOM     14  C   UNL     1      -3.697  -2.169  -0.661  0.00  0.00    +0.004 C 
ATOM     15  C   UNL     1      -2.890  -2.458   0.625  0.00  0.00    +0.004 C 
ATOM     16  C   UNL     1      -1.420  -2.089   0.259  0.00  0.00    -0.006 C 
ATOM     17  C   UNL     1      -1.387  -2.497  -1.256  0.00  0.00    +0.007 C 
ENDBRANCH  10  11
ENDBRANCH   1  10
BRANCH   5  18
ATOM     18  C   UNL     1       5.035  -1.551   3.140  0.00  0.00    +0.173 C 
BRANCH  18  19
ATOM     19  S   UNL     1       6.787  -1.594   2.672  0.00  0.00    -0.075 S 
BRANCH  19  20
ATOM     20  C   UNL     1       7.604  -2.147   4.132  0.00  0.00    +0.210 A 
ATOM     21  N   UNL     1       8.923  -2.333   4.262  0.00  0.00    -0.188 NA
ATOM     22  H   UNL     1       7.915  -3.117   7.081  0.00  0.00    +0.192 HD
ATOM     23  C   UNL     1       9.193  -2.749   5.481  0.00  0.00    +0.209 A 
ATOM     24  N   UNL     1       8.030  -2.837   6.159  0.00  0.00    -0.246 N 
ATOM     25  N   UNL     1       7.019  -2.438   5.269  0.00  0.00    -0.144 NA
ATOM     26  N   UNL     1      10.449  -3.045   5.979  0.00  0.00    -0.328 N 
ATOM     27  H   UNL     1      11.230  -2.951   5.412  0.00  0.00    +0.145 HD
ATOM     28  H   UNL     1      10.548  -3.347   6.896  0.00  0.00    +0.145 HD
ENDBRANCH  19  20
ENDBRANCH  18  19
ENDBRANCH   5  18
TORSDOF 5
