REMARK  Name = ZINC39775742
REMARK  7 active torsions:
REMARK  status: ('A' for Active; 'I' for Inactive)
REMARK    1  A    between atoms: C_1  and  C_2
REMARK    2  A    between atoms: C_2  and  O_3
REMARK    3  A    between atoms: O_3  and  C_4
REMARK    4  A    between atoms: C_9  and  C_16
REMARK    5  A    between atoms: C_17  and  C_18
REMARK    6  A    between atoms: C_18  and  C_20
REMARK    7  A    between atoms: C_22  and  C_34
REMARK                            x       y       z     vdW  Elec       q    Type
REMARK                         _______ _______ _______ _____ _____    ______ ____
ROOT
ATOM      1  C   UNL     1       0.182  -9.465  -4.717  0.00  0.00    +0.172 C 
ATOM      2  O   UNL     1      -0.866  -9.009  -5.125  0.00  0.00    -0.292 OA
ENDROOT
BRANCH   1   3
ATOM      3  C   UNL     1       0.520 -10.913  -4.962  0.00  0.00    +0.176 C 
ATOM      4  C   UNL     1      -0.754 -11.710  -5.171  0.00  0.00    -0.016 C 
ATOM      5  C   UNL     1      -1.362 -11.589  -6.383  0.00  0.00    -0.017 C 
ATOM      6  C   UNL     1      -2.543 -12.303  -6.655  0.00  0.00    +0.026 C 
ATOM      7  C   UNL     1      -3.054 -12.339  -7.908  0.00  0.00    +0.041 C 
ATOM      8  C   UNL     1      -2.374 -11.636  -8.994  0.00  0.00    +0.018 C 
ATOM      9  C   UNL     1      -1.311 -10.878  -8.764  0.00  0.00    +0.001 C 
ATOM     10  C   UNL     1      -0.731 -10.678  -7.401  0.00  0.00    +0.127 C 
ATOM     11  N   UNL     1       0.719 -10.921  -7.417  0.00  0.00    -0.304 N 
ATOM     12  C   UNL     1       1.355 -11.040  -6.220  0.00  0.00    +0.229 C 
ATOM     13  O   UNL     1       2.549 -11.241  -6.162  0.00  0.00    -0.275 OA
ATOM     14 CL   UNL     1      -4.515 -13.222  -8.225  0.00  0.00    -0.084 Cl
ATOM     15  H   UNL     1       1.206 -10.995  -8.252  0.00  0.00    +0.150 HD
BRANCH   4  16
ATOM     16  C   UNL     1      -1.306 -12.572  -4.114  0.00  0.00    -0.020 A 
ATOM     17  C   UNL     1      -1.777 -12.011  -2.923  0.00  0.00    +0.008 A 
ATOM     18  C   UNL     1      -2.293 -12.826  -1.938  0.00  0.00    +0.001 A 
ATOM     19  C   UNL     1      -2.343 -14.196  -2.124  0.00  0.00    +0.000 A 
ATOM     20  C   UNL     1      -1.878 -14.760  -3.300  0.00  0.00    +0.001 A 
ATOM     21  C   UNL     1      -1.366 -13.957  -4.298  0.00  0.00    +0.008 A 
ENDBRANCH   4  16
ENDBRANCH   1   3
BRANCH   1  23
ATOM     22  C   UNL     1       0.819  -7.326  -3.771  0.00  0.00    -0.007 C 
ATOM     23  C   UNL     1       1.118  -8.609  -3.988  0.00  0.00    +0.044 C 
BRANCH  22  29
ATOM     24  C   UNL     1       0.776  -1.806  -1.336  0.00  0.00    +0.122 A 
ATOM     25  C   UNL     1       0.228  -2.651  -0.360  0.00  0.00    +0.046 A 
ATOM     26  C   UNL     1       0.305  -3.998  -0.472  0.00  0.00    +0.013 A 
ATOM     27  C   UNL     1       0.976  -4.578  -1.638  0.00  0.00    -0.006 A 
ATOM     28  C   UNL     1       1.073  -5.927  -1.784  0.00  0.00    -0.001 C 
ATOM     29  C   UNL     1       1.783  -6.445  -3.020  0.00  0.00    +0.121 C 
ATOM     30  C   UNL     1       2.326  -5.421  -3.990  0.00  0.00    +0.228 C 
ATOM     31  O   UNL     1       2.905  -5.781  -4.998  0.00  0.00    -0.274 OA
ATOM     32  N   UNL     1       2.171  -4.133  -3.740  0.00  0.00    -0.284 N 
ATOM     33  C   UNL     1       1.546  -3.673  -2.653  0.00  0.00    +0.044 A 
ATOM     34  C   UNL     1       1.414  -2.292  -2.456  0.00  0.00    +0.069 A 
ATOM     35  H   UNL     1       2.527  -3.492  -4.374  0.00  0.00    +0.155 HD
BRANCH  24  36
ATOM     36  O   UNL     1       0.671  -0.465  -1.174  0.00  0.00    -0.492 OA
BRANCH  36  38
ATOM     37  C   UNL     1      -0.019   1.526   0.010  0.00  0.00    +0.048 C 
ATOM     38  C   UNL     1       0.002  -0.004   0.002  0.00  0.00    +0.225 C 
ENDBRANCH  36  38
ENDBRANCH  24  36
ENDBRANCH  22  29
ENDBRANCH   1  23
TORSDOF 6
