REMARK  Name = ZINC39630764
REMARK  11 active torsions:
REMARK  status: ('A' for Active; 'I' for Inactive)
REMARK    1  A    between atoms: C_1  and  C_2
REMARK    2  A    between atoms: C_2  and  C_8
REMARK    3  A    between atoms: C_12  and  C_21
REMARK    4  A    between atoms: N_23  and  C_24
REMARK    5  A    between atoms: C_24  and  C_25
REMARK    6  A    between atoms: C_25  and  C_26
REMARK    7  A    between atoms: C_25  and  C_27
REMARK    8  A    between atoms: C_25  and  C_28
REMARK    9  A    between atoms: C_28  and  N_29
REMARK   10  A    between atoms: N_29  and  C_30
REMARK   11  A    between atoms: N_29  and  C_31
REMARK                            x       y       z     vdW  Elec       q    Type
REMARK                         _______ _______ _______ _____ _____    ______ ____
ROOT
ATOM      1  C   UNL     1       2.677  -1.704  -2.940  0.00  0.00    +0.222 C 
ATOM      2  O   UNL     1       2.839  -2.748  -2.343  0.00  0.00    -0.275 OA
ATOM      3  N   UNL     1       1.472  -1.409  -3.465  0.00  0.00    -0.300 N 
ATOM      4  C   UNL     1       1.108  -0.244  -4.306  0.00  0.00    +0.121 C 
ATOM      5  C   UNL     1       0.141  -0.816  -5.367  0.00  0.00    +0.100 C 
ATOM      6  C   UNL     1      -0.447  -2.081  -4.721  0.00  0.00    -0.004 C 
ATOM      7  C   UNL     1       0.211  -2.179  -3.337  0.00  0.00    +0.115 C 
ATOM      8  C   UNL     1      -1.960  -1.949  -4.580  0.00  0.00    -0.010 C 
ATOM      9  C   UNL     1      -2.528  -3.242  -3.989  0.00  0.00    -0.082 C 
ATOM     10  N   UNL     1      -2.196  -4.371  -4.866  0.00  0.00    +0.379 N 
ATOM     11  C   UNL     1      -0.740  -4.549  -4.922  0.00  0.00    -0.082 C 
ATOM     12  C   UNL     1      -0.096  -3.311  -5.553  0.00  0.00    -0.010 C 
ATOM     13  H   UNL     1      -2.623  -5.211  -4.506  0.00  0.00    -0.086 HD
ATOM     14  H   UNL     1      -2.547  -4.189  -5.794  0.00  0.00    -0.086 HD
ENDROOT
BRANCH   1  16
ATOM     15  C   UNL     1       4.284  -0.722  -4.553  0.00  0.00    +0.021 C 
ATOM     16  C   UNL     1       3.823  -0.738  -3.094  0.00  0.00    +0.044 C 
ATOM     17  C   UNL     1       4.984  -1.176  -2.198  0.00  0.00    +0.016 C 
ATOM     18  C   UNL     1       4.523  -1.193  -0.739  0.00  0.00    +0.001 C 
ATOM     19  C   UNL     1       4.066   0.210  -0.332  0.00  0.00    +0.000 C 
ATOM     20  C   UNL     1       2.906   0.648  -1.228  0.00  0.00    +0.001 C 
ATOM     21  C   UNL     1       3.367   0.664  -2.687  0.00  0.00    +0.016 C 
ENDBRANCH   1  16
BRANCH   5  22
ATOM     22  C   UNL     1      -0.951   0.177  -5.670  0.00  0.00    +0.218 C 
ATOM     23  O   UNL     1      -1.380   0.894  -4.791  0.00  0.00    -0.275 OA
ATOM     24  N   UNL     1      -1.452   0.268  -6.919  0.00  0.00    -0.315 N 
ATOM     25  H   UNL     1      -1.108  -0.305  -7.622  0.00  0.00    +0.149 HD
BRANCH  24  26
ATOM     26  C   UNL     1      -2.513   1.234  -7.213  0.00  0.00    +0.108 C 
BRANCH  26  27
ATOM     27  C   UNL     1      -2.897   1.134  -8.691  0.00  0.00    -0.034 C 
ATOM     28  C   UNL     1      -1.675   1.440  -9.558  0.00  0.00    +0.010 C 
ATOM     29  C   UNL     1      -3.396  -0.281  -8.994  0.00  0.00    +0.010 C 
BRANCH  27  30
ATOM     30  C   UNL     1      -4.006   2.142  -8.999  0.00  0.00    -0.072 C 
BRANCH  30  31
ATOM     31  N   UNL     1      -4.471   1.952 -10.380  0.00  0.00    +0.376 N 
ATOM     32  C   UNL     1      -5.734   1.203 -10.373  0.00  0.00    -0.097 C 
ATOM     33  C   UNL     1      -4.682   3.263 -11.009  0.00  0.00    -0.097 C 
ATOM     34  H   UNL     1      -3.777   1.437 -10.900  0.00  0.00    -0.083 HD
ENDBRANCH  30  31
ENDBRANCH  27  30
ENDBRANCH  26  27
ENDBRANCH  24  26
ENDBRANCH   5  22
TORSDOF 6
