REMARK  Name = ZINC48896404
REMARK  1 active torsions:
REMARK  status: ('A' for Active; 'I' for Inactive)
REMARK    1  A    between atoms: C_10  and  C_22
REMARK                            x       y       z     vdW  Elec       q    Type
REMARK                         _______ _______ _______ _____ _____    ______ ____
ROOT
ATOM      1  C   UNL     1       0.196   1.186   1.161  0.00  0.00    +0.000 C 
ATOM      2  C   UNL     1       1.475   1.789   0.570  0.00  0.00    +0.002 C 
ATOM      3  C   UNL     1       2.643   1.446   1.495  0.00  0.00    +0.023 C 
ATOM      4  C   UNL     1       2.804  -0.050   1.643  0.00  0.00    +0.082 C 
ATOM      5  C   UNL     1       1.506  -0.753   2.081  0.00  0.00    +0.012 C 
ATOM      6  C   UNL     1       0.338  -0.334   1.186  0.00  0.00    +0.005 C 
ATOM      7  C   UNL     1       1.843  -2.230   1.710  0.00  0.00    +0.039 C 
ATOM      8  C   UNL     1       2.655  -2.074   0.405  0.00  0.00    +0.191 C 
ATOM      9  N   UNL     1       3.193  -0.710   0.394  0.00  0.00    -0.269 N 
ATOM     10  C   UNL     1       3.929  -0.165  -0.594  0.00  0.00    +0.306 C 
ATOM     11  O   UNL     1       4.160   1.029  -0.593  0.00  0.00    -0.252 OA
ATOM     12  N   UNL     1       4.410  -0.943  -1.585  0.00  0.00    -0.285 N 
ATOM     13  C   UNL     1       3.725  -2.209  -1.891  0.00  0.00    +0.110 C 
ATOM     14  C   UNL     1       3.522  -2.530  -3.393  0.00  0.00    +0.030 C 
ATOM     15  C   UNL     1       3.049  -1.360  -4.196  0.00  0.00    +0.071 C 
ATOM     16  S   UNL     1       4.482  -0.401  -4.813  0.00  0.00    -0.159 S 
ATOM     17  C   UNL     1       5.106   0.449  -3.418  0.00  0.00    +0.088 C 
ATOM     18  C   UNL     1       5.563  -0.508  -2.307  0.00  0.00    +0.120 C 
ENDROOT
BRANCH   8  19
ATOM     19  C   UNL     1       3.772  -3.085   0.371  0.00  0.00    +0.376 C 
ATOM     20  O   UNL     1       3.528  -4.255   0.130  0.00  0.00    -0.244 OA
ATOM     21  O   UNL     1       4.919  -2.733   0.586  0.00  0.00    -0.244 OA
ENDBRANCH   8  19
TORSDOF 1
