REMARK  Name = ZINC09289562
REMARK  7 active torsions:
REMARK  status: ('A' for Active; 'I' for Inactive)
REMARK    1  A    between atoms: C_1  and  N_2
REMARK    2  A    between atoms: C_9  and  C_17
REMARK    3  A    between atoms: C_10  and  C_11
REMARK    4  A    between atoms: N_27  and  C_28
REMARK    5  A    between atoms: C_28  and  C_29
REMARK    6  A    between atoms: N_31  and  C_32
REMARK    7  A    between atoms: C_32  and  C_33
REMARK                            x       y       z     vdW  Elec       q    Type
REMARK                         _______ _______ _______ _____ _____    ______ ____
ROOT
ATOM      1  C   UNL     1       0.002  -0.004   0.002  0.00  0.00    +0.141 C 
ATOM      2  C   UNL     1      -0.018   1.504   0.010  0.00  0.00    -0.010 A 
ATOM      3  C   UNL     1      -1.033   2.433   0.030  0.00  0.00    +0.006 A 
ATOM      4  C   UNL     1      -0.733   3.785   0.031  0.00  0.00    +0.000 A 
ATOM      5  C   UNL     1       0.585   4.205   0.020  0.00  0.00    +0.001 A 
ATOM      6  C   UNL     1       1.610   3.282   0.005  0.00  0.00    +0.013 A 
ATOM      7  C   UNL     1       1.316   1.917  -0.000  0.00  0.00    +0.042 A 
ATOM      8  C   UNL     1       2.172   0.716  -0.015  0.00  0.00    +0.248 C 
ATOM      9  O   UNL     1       3.388   0.729  -0.027  0.00  0.00    -0.270 OA
ATOM     10  N   UNL     1       1.416  -0.396  -0.014  0.00  0.00    -0.278 N 
ENDROOT
BRANCH   1  19
ATOM     11  C   UNL     1      -3.387  -2.135   3.068  0.00  0.00    +0.149 C 
ATOM     12  N   UNL     1      -2.160  -1.479   2.610  0.00  0.00    -0.343 N 
ATOM     13  C   UNL     1      -1.101  -1.127   3.418  0.00  0.00    +0.050 A 
ATOM     14  C   UNL     1      -0.859  -1.255   4.782  0.00  0.00    +0.026 A 
ATOM     15  C   UNL     1       0.326  -0.794   5.313  0.00  0.00    +0.002 A 
ATOM     16  C   UNL     1       1.284  -0.202   4.502  0.00  0.00    +0.001 A 
ATOM     17  C   UNL     1       1.067  -0.065   3.160  0.00  0.00    +0.010 A 
ATOM     18  C   UNL     1      -0.125  -0.530   2.598  0.00  0.00    +0.006 A 
ATOM     19  C   UNL     1      -0.669  -0.538   1.241  0.00  0.00    +0.011 A 
ATOM     20  C   UNL     1      -1.891  -1.122   1.309  0.00  0.00    +0.055 A 
BRANCH  20  21
ATOM     21  C   UNL     1      -2.796  -1.342   0.160  0.00  0.00    -0.001 A 
ATOM     22  C   UNL     1      -3.015  -0.321  -0.766  0.00  0.00    +0.010 A 
ATOM     23  C   UNL     1      -3.857  -0.534  -1.838  0.00  0.00    +0.001 A 
ATOM     24  C   UNL     1      -4.492  -1.754  -1.990  0.00  0.00    +0.000 A 
ATOM     25  C   UNL     1      -4.284  -2.768  -1.073  0.00  0.00    +0.001 A 
ATOM     26  C   UNL     1      -3.441  -2.570   0.001  0.00  0.00    +0.010 A 
ENDBRANCH  20  21
ENDBRANCH   1  19
BRANCH  10  27
ATOM     27  C   UNL     1       1.921  -1.771  -0.026  0.00  0.00    +0.204 C 
BRANCH  27  28
ATOM     28  C   UNL     1       2.080  -2.235  -1.451  0.00  0.00    +0.231 C 
ATOM     29  O   UNL     1       1.800  -1.490  -2.366  0.00  0.00    -0.274 OA
ATOM     30  N   UNL     1       2.534  -3.477  -1.708  0.00  0.00    -0.305 N 
ATOM     31  H   UNL     1       2.758  -4.073  -0.976  0.00  0.00    +0.149 HD
BRANCH  30  32
ATOM     32  C   UNL     1       2.689  -3.928  -3.093  0.00  0.00    +0.199 C 
BRANCH  32  33
ATOM     33  C   UNL     1       3.208  -5.343  -3.106  0.00  0.00    +0.228 C 
ATOM     34  O   UNL     1       3.427  -5.918  -2.061  0.00  0.00    -0.274 OA
ATOM     35  N   UNL     1       3.429  -5.970  -4.279  0.00  0.00    -0.328 N 
ATOM     36  H   UNL     1       3.254  -5.510  -5.114  0.00  0.00    +0.145 HD
ATOM     37  H   UNL     1       3.763  -6.880  -4.287  0.00  0.00    +0.145 HD
ENDBRANCH  32  33
ENDBRANCH  30  32
ENDBRANCH  27  28
ENDBRANCH  10  27
TORSDOF 6
