REMARK  Name = ZINC01326994
REMARK  10 active torsions:
REMARK  status: ('A' for Active; 'I' for Inactive)
REMARK    1  A    between atoms: C_1  and  C_2
REMARK    2  A    between atoms: C_2  and  C_3
REMARK    3  A    between atoms: C_2  and  C_4
REMARK    4  A    between atoms: C_2  and  C_5
REMARK    5  A    between atoms: C_17  and  S_21
REMARK    6  A    between atoms: S_21  and  C_22
REMARK    7  A    between atoms: C_22  and  C_23
REMARK    8  A    between atoms: N_25  and  C_26
REMARK    9  A    between atoms: C_29  and  O_32
REMARK   10  A    between atoms: O_32  and  C_33
REMARK                            x       y       z     vdW  Elec       q    Type
REMARK                         _______ _______ _______ _____ _____    ______ ____
ROOT
ATOM      1  C   UNL     1      -0.752   4.090  -0.393  0.00  0.00    -0.000 C 
ATOM      2  C   UNL     1       0.488   4.436   0.435  0.00  0.00    +0.009 C 
ATOM      3  C   UNL     1       1.680   3.603  -0.038  0.00  0.00    +0.037 C 
ATOM      4  C   UNL     1       1.283   2.128  -0.034  0.00  0.00    -0.024 A 
ATOM      5  C   UNL     1      -0.022   1.770  -0.025  0.00  0.00    -0.004 A 
ATOM      6  S   UNL     1       0.002  -0.003  -0.022  0.00  0.00    -0.073 S 
ATOM      7  C   UNL     1       1.764  -0.225  -0.034  0.00  0.00    +0.114 A 
ATOM      8  C   UNL     1       2.250   1.091  -0.040  0.00  0.00    +0.056 A 
ATOM      9  C   UNL     1       3.725   1.209  -0.051  0.00  0.00    +0.173 A 
ATOM     10  N   UNL     1       4.558   2.219  -0.060  0.00  0.00    -0.128 NA
ATOM     11  N   UNL     1       5.769   1.781  -0.066  0.00  0.00    -0.122 NA
ATOM     12  C   UNL     1       5.779   0.468  -0.062  0.00  0.00    +0.198 A 
ATOM     13  N   UNL     1       4.476   0.054  -0.052  0.00  0.00    -0.260 N 
ATOM     14  C   UNL     1       3.869  -1.169  -0.045  0.00  0.00    +0.208 A 
ATOM     15  N   UNL     1       2.571  -1.282  -0.036  0.00  0.00    -0.230 NA
ATOM     16  C   UNL     1      -1.215   2.674  -0.023  0.00  0.00    +0.046 C 
ENDROOT
BRANCH   1  18
ATOM     17  C   UNL     1      -1.396   6.503  -0.447  0.00  0.00    +0.011 C 
ATOM     18  C   UNL     1      -1.868   5.092  -0.091  0.00  0.00    -0.035 C 
ATOM     19  C   UNL     1      -3.105   4.743  -0.920  0.00  0.00    +0.011 C 
ATOM     20  C   UNL     1      -2.217   5.032   1.398  0.00  0.00    +0.011 C 
ENDBRANCH   1  18
BRANCH  12  21
ATOM     21  S   UNL     1       7.205  -0.568  -0.067  0.00  0.00    -0.076 S 
BRANCH  21  22
ATOM     22  C   UNL     1       8.594   0.599  -0.080  0.00  0.00    +0.173 C 
BRANCH  22  23
ATOM     23  C   UNL     1       9.892  -0.167  -0.086  0.00  0.00    +0.227 C 
ATOM     24  O   UNL     1       9.881  -1.379  -0.081  0.00  0.00    -0.275 OA
ATOM     25  N   UNL     1      11.065   0.497  -0.095  0.00  0.00    -0.285 N 
ATOM     26  H   UNL     1      11.075   1.464  -0.167  0.00  0.00    +0.155 HD
BRANCH  25  27
ATOM     27  C   UNL     1      12.271  -0.211  -0.003  0.00  0.00    +0.034 A 
ATOM     28  C   UNL     1      13.348   0.338   0.681  0.00  0.00    +0.027 A 
ATOM     29  C   UNL     1      14.534  -0.362   0.777  0.00  0.00    +0.047 A 
ATOM     30  C   UNL     1      14.654  -1.609   0.180  0.00  0.00    +0.120 A 
ATOM     31  C   UNL     1      13.581  -2.155  -0.508  0.00  0.00    +0.047 A 
ATOM     32  C   UNL     1      12.392  -1.458  -0.600  0.00  0.00    +0.027 A 
BRANCH  30  33
ATOM     33  O   UNL     1      15.824  -2.295   0.270  0.00  0.00    -0.495 OA
ATOM     34  C   UNL     1      16.888  -1.672   0.993  0.00  0.00    +0.277 C 
ENDBRANCH  30  33
ENDBRANCH  25  27
ENDBRANCH  22  23
ENDBRANCH  21  22
ENDBRANCH  12  21
TORSDOF 6
