REMARK  Name = ZINC20082523
REMARK  8 active torsions:
REMARK  status: ('A' for Active; 'I' for Inactive)
REMARK    1  A    between atoms: C_1  and  C_2
REMARK    2  A    between atoms: C_2  and  C_3
REMARK    3  A    between atoms: C_10  and  C_15
REMARK    4  A    between atoms: C_15  and  C_17
REMARK    5  A    between atoms: C_15  and  N_27
REMARK    6  A    between atoms: N_21  and  C_22
REMARK    7  A    between atoms: N_30  and  C_33
REMARK    8  A    between atoms: C_33  and  C_34
REMARK                            x       y       z     vdW  Elec       q    Type
REMARK                         _______ _______ _______ _____ _____    ______ ____
ROOT
ATOM      1  C   UNL     1      -1.332   7.432   0.057  0.00  0.00    +0.162 C 
ENDROOT
BRANCH   1   9
ATOM      2  C   UNL     1       1.613   2.001   0.412  0.00  0.00    -0.047 A 
ATOM      3  C   UNL     1       0.474   1.207   0.428  0.00  0.00    +0.005 A 
ATOM      4  C   UNL     1      -0.780   1.775   0.363  0.00  0.00    +0.026 A 
ATOM      5  C   UNL     1      -0.909   3.159   0.292  0.00  0.00    +0.049 A 
ATOM      6  C   UNL     1       0.248   3.960   0.276  0.00  0.00    -0.001 A 
ATOM      7  C   UNL     1       1.511   3.361   0.338  0.00  0.00    +0.013 A 
ATOM      8  C   UNL     1       0.103   5.415   0.197  0.00  0.00    +0.021 A 
ATOM      9  C   UNL     1      -1.147   5.939   0.140  0.00  0.00    +0.042 A 
ATOM     10  C   UNL     1      -2.275   5.090   0.159  0.00  0.00    +0.254 A 
ATOM     11  O   UNL     1      -3.389   5.582   0.107  0.00  0.00    -0.268 OA
ATOM     12  N   UNL     1      -2.151   3.753   0.232  0.00  0.00    -0.322 N 
ATOM     13  H   UNL     1      -3.059   3.133   0.244  0.00  0.00    +0.169 HD
BRANCH   2  15
ATOM     14  C   UNL     1       3.467   1.062  -0.940  0.00  0.00    +0.009 C 
ATOM     15  C   UNL     1       2.973   1.356   0.478  0.00  0.00    +0.032 C 
ENDBRANCH   2  15
ENDBRANCH   1   9
BRANCH   1  16
ATOM     16  N   UNL     1      -2.233   7.874   1.129  0.00  0.00    -0.286 NA
ATOM     17  C   UNL     1      -2.490   9.318   1.039  0.00  0.00    +0.101 C 
ATOM     18  C   UNL     1      -3.493   9.724   2.122  0.00  0.00    +0.100 C 
ATOM     19  N   UNL     1      -2.954   9.369   3.442  0.00  0.00    -0.296 NA
ATOM     20  C   UNL     1      -2.697   7.925   3.533  0.00  0.00    +0.100 C 
ATOM     21  C   UNL     1      -1.694   7.519   2.450  0.00  0.00    +0.101 C 
BRANCH  19  22
ATOM     22  C   UNL     1      -3.855   9.811   4.515  0.00  0.00    +0.119 C 
BRANCH  22  23
ATOM     23  C   UNL     1      -3.901  11.317   4.543  0.00  0.00    -0.033 A 
ATOM     24  C   UNL     1      -3.007  12.021   5.327  0.00  0.00    +0.006 A 
ATOM     25  C   UNL     1      -3.045  13.403   5.349  0.00  0.00    +0.020 A 
ATOM     26  C   UNL     1      -3.986  14.081   4.595  0.00  0.00    +0.041 A 
ATOM     27  C   UNL     1      -4.885  13.375   3.814  0.00  0.00    +0.020 A 
ATOM     28  C   UNL     1      -4.842  11.994   3.789  0.00  0.00    +0.006 A 
ATOM     29 CL   UNL     1      -4.039  15.816   4.627  0.00  0.00    -0.084 Cl
ENDBRANCH  22  23
ENDBRANCH  19  22
ENDBRANCH   1  16
BRANCH   1  30
ATOM     30  C   UNL     1      -1.927   7.790  -1.280  0.00  0.00    +0.173 A 
ATOM     31  N   UNL     1      -3.172   7.620  -1.653  0.00  0.00    -0.111 NA
ATOM     32  N   UNL     1      -3.288   8.051  -2.862  0.00  0.00    -0.023 NA
ATOM     33  N   UNL     1      -2.149   8.492  -3.269  0.00  0.00    -0.044 NA
ATOM     34  N   UNL     1      -1.286   8.353  -2.321  0.00  0.00    -0.224 N 
BRANCH  34  35
ATOM     35  C   UNL     1       0.128   8.733  -2.369  0.00  0.00    +0.111 C 
ATOM     36  C   UNL     1       0.260  10.239  -2.681  0.00  0.00    +0.027 C 
ATOM     37  C   UNL     1       1.506  10.328  -3.599  0.00  0.00    +0.002 C 
ATOM     38  C   UNL     1       1.376   9.058  -4.476  0.00  0.00    +0.002 C 
ATOM     39  C   UNL     1       0.837   7.983  -3.510  0.00  0.00    +0.027 C 
ENDBRANCH  34  35
ENDBRANCH   1  30
TORSDOF 7
