REMARK  Name = ZINC07674899
REMARK  7 active torsions:
REMARK  status: ('A' for Active; 'I' for Inactive)
REMARK    1  A    between atoms: C_4  and  C_7
REMARK    2  A    between atoms: N_9  and  N_13
REMARK    3  A    between atoms: C_14  and  C_15
REMARK    4  A    between atoms: C_18  and  O_25
REMARK    5  A    between atoms: C_20  and  O_21
REMARK    6  A    between atoms: O_21  and  C_22
REMARK    7  A    between atoms: O_25  and  C_26
REMARK                            x       y       z     vdW  Elec       q    Type
REMARK                         _______ _______ _______ _____ _____    ______ ____
ROOT
ATOM      1  N   UNL     1       5.838  -3.527  -0.083  0.00  0.00    -0.172 NA
ATOM      2  C   UNL     1       5.120  -4.609  -0.088  0.00  0.00    +0.145 C 
ENDROOT
BRANCH   1   5
ATOM      3  C   UNL     1       3.698  -0.688  -0.038  0.00  0.00    +0.067 A 
ATOM      4  C   UNL     1       3.862  -2.035  -0.052  0.00  0.00    +0.142 A 
ATOM      5  N   UNL     1       5.215  -2.273  -0.066  0.00  0.00    -0.209 N 
ATOM      6  C   UNL     1       5.840  -1.060  -0.059  0.00  0.00    +0.192 A 
ATOM      7  N   UNL     1       4.929  -0.117  -0.048  0.00  0.00    -0.326 N 
ATOM      8  N   UNL     1       7.210  -0.858  -0.068  0.00  0.00    -0.329 N 
ATOM      9  H   UNL     1       7.813  -1.618  -0.080  0.00  0.00    +0.145 HD
ATOM     10  H   UNL     1       7.568   0.044  -0.062  0.00  0.00    +0.145 HD
ATOM     11  H   UNL     1       5.107   0.837  -0.045  0.00  0.00    +0.169 HD
BRANCH   3  15
ATOM     12  C   UNL     1      -0.017   1.379   0.010  0.00  0.00    +0.000 A 
ATOM     13  C   UNL     1       1.169   2.092   0.002  0.00  0.00    +0.001 A 
ATOM     14  C   UNL     1       2.377   1.427  -0.013  0.00  0.00    +0.010 A 
ATOM     15  C   UNL     1       2.402   0.033  -0.021  0.00  0.00    -0.000 A 
ATOM     16  C   UNL     1       1.205  -0.680  -0.013  0.00  0.00    +0.010 A 
ATOM     17  C   UNL     1       0.002  -0.004   0.002  0.00  0.00    +0.001 A 
ENDBRANCH   3  15
ENDBRANCH   1   5
BRANCH   2  18
ATOM     18  C   UNL     1       5.774  -5.928  -0.106  0.00  0.00    +0.037 A 
ATOM     19  C   UNL     1       5.004  -7.094  -0.117  0.00  0.00    +0.016 A 
ATOM     20  C   UNL     1       5.620  -8.325  -0.134  0.00  0.00    +0.047 A 
ATOM     21  C   UNL     1       7.007  -8.414  -0.139  0.00  0.00    +0.130 A 
ATOM     22  C   UNL     1       7.782  -7.263  -0.128  0.00  0.00    +0.092 A 
ATOM     23  C   UNL     1       7.174  -6.019  -0.117  0.00  0.00    +0.139 A 
BRANCH  23  24
ATOM     24  O   UNL     1       7.930  -4.891  -0.112  0.00  0.00    -0.433 OA
BRANCH  24  25
ATOM     25  C   UNL     1       9.349  -5.062  -0.124  0.00  0.00    +0.541 C 
ATOM     26  F   UNL     1       9.742  -5.783   1.008  0.00  0.00    -0.166 F 
ATOM     27  F   UNL     1       9.725  -5.761  -1.276  0.00  0.00    -0.166 F 
ENDBRANCH  24  25
ENDBRANCH  23  24
BRANCH  21  28
ATOM     28  O   UNL     1       7.607  -9.632  -0.155  0.00  0.00    -0.434 OA
BRANCH  28  29
ATOM     29  C   UNL     1       6.752 -10.777  -0.166  0.00  0.00    +0.541 C 
ATOM     30  F   UNL     1       5.948 -10.768   0.979  0.00  0.00    -0.166 F 
ATOM     31  F   UNL     1       5.941 -10.742  -1.305  0.00  0.00    -0.166 F 
ENDBRANCH  28  29
ENDBRANCH  21  28
ENDBRANCH   2  18
TORSDOF 7
