REMARK  Name = ZINC36597504
REMARK  12 active torsions:
REMARK  status: ('A' for Active; 'I' for Inactive)
REMARK    1  A    between atoms: C_1  and  C_2
REMARK    2  A    between atoms: C_5  and  C_7
REMARK    3  A    between atoms: C_7  and  N_8
REMARK    4  A    between atoms: N_8  and  C_9
REMARK    5  A    between atoms: C_9  and  C_11
REMARK    6  A    between atoms: C_9  and  C_20
REMARK    7  A    between atoms: C_11  and  C_13
REMARK    8  A    between atoms: C_11  and  C_14
REMARK    9  A    between atoms: N_22  and  C_23
REMARK   10  A    between atoms: C_29  and  C_31
REMARK   11  A    between atoms: C_32  and  O_38
REMARK   12  A    between atoms: C_36  and  O_37
REMARK                            x       y       z     vdW  Elec       q    Type
REMARK                         _______ _______ _______ _____ _____    ______ ____
ROOT
ATOM      1  N   UNL     1       2.112  -3.357  -1.279  0.00  0.00    -0.278 N 
ATOM      2  C   UNL     1       1.115  -4.243  -1.469  0.00  0.00    +0.255 C 
ATOM      3  O   UNL     1       1.114  -4.957  -2.453  0.00  0.00    -0.270 OA
ENDROOT
BRANCH   2   4
ATOM      4  C   UNL     1       0.025  -4.346  -0.484  0.00  0.00    +0.119 A 
ATOM      5  C   UNL     1      -1.129  -3.562  -0.623  0.00  0.00    +0.133 A 
ATOM      6  C   UNL     1      -2.149  -3.667   0.309  0.00  0.00    +0.046 A 
ATOM      7  C   UNL     1      -2.032  -4.542   1.373  0.00  0.00    +0.007 A 
ATOM      8  C   UNL     1      -0.898  -5.320   1.520  0.00  0.00    +0.046 A 
ATOM      9  C   UNL     1       0.131  -5.234   0.596  0.00  0.00    +0.133 A 
BRANCH   9  10
ATOM     10  O   UNL     1       1.240  -6.003   0.739  0.00  0.00    -0.506 OA
ATOM     11  H   UNL     1       1.939  -5.591   1.265  0.00  0.00    +0.292 HD
ENDBRANCH   9  10
BRANCH   5  12
ATOM     12  O   UNL     1      -1.247  -2.702  -1.666  0.00  0.00    -0.506 OA
ATOM     13  H   UNL     1      -1.656  -3.090  -2.451  0.00  0.00    +0.292 HD
ENDBRANCH   5  12
ENDBRANCH   2   4
BRANCH   1  14
ATOM     14  C   UNL     1       2.177  -2.581  -0.038  0.00  0.00    +0.183 C 
BRANCH  14  19
ATOM     15  C   UNL     1       1.102   2.229  -1.112  0.00  0.00    +0.086 C 
ATOM     16  C   UNL     1       0.941   0.795  -0.676  0.00  0.00    +0.102 A 
ATOM     17  C   UNL     1      -0.200   0.228  -0.243  0.00  0.00    +0.045 A 
ATOM     18  C   UNL     1       0.101  -1.120   0.058  0.00  0.00    +0.046 A 
ATOM     19  C   UNL     1       1.408  -1.296  -0.209  0.00  0.00    +0.122 A 
ATOM     20  O   UNL     1       1.910  -0.134  -0.659  0.00  0.00    -0.463 OA
ENDBRANCH  14  19
ENDBRANCH   1  14
BRANCH   1  21
ATOM     21  C   UNL     1       3.133  -3.171  -2.314  0.00  0.00    +0.170 C 
BRANCH  21  22
ATOM     22  C   UNL     1       2.485  -2.646  -3.569  0.00  0.00    +0.234 C 
ATOM     23  O   UNL     1       1.297  -2.807  -3.751  0.00  0.00    -0.274 OA
ATOM     24  N   UNL     1       3.226  -1.997  -4.489  0.00  0.00    -0.311 N 
ATOM     25  H   UNL     1       4.188  -1.932  -4.379  0.00  0.00    +0.149 HD
BRANCH  24  26
ATOM     26  C   UNL     1       2.579  -1.391  -5.656  0.00  0.00    +0.073 C 
ATOM     27  C   UNL     1       2.409  -2.446  -6.750  0.00  0.00    +0.022 C 
ATOM     28  C   UNL     1       1.734  -1.813  -7.968  0.00  0.00    +0.002 C 
ATOM     29  C   UNL     1       2.601  -0.668  -8.495  0.00  0.00    +0.000 C 
ATOM     30  C   UNL     1       2.772   0.387  -7.400  0.00  0.00    +0.002 C 
ATOM     31  C   UNL     1       3.447  -0.246  -6.182  0.00  0.00    +0.022 C 
ENDBRANCH  24  26
ENDBRANCH  21  22
BRANCH  21  32
ATOM     32  C   UNL     1       3.809  -4.510  -2.611  0.00  0.00    +0.045 C 
ATOM     33  C   UNL     1       4.359  -5.103  -1.312  0.00  0.00    +0.015 C 
BRANCH  32  34
ATOM     34  C   UNL     1       4.939  -4.298  -3.584  0.00  0.00    -0.042 A 
ATOM     35  C   UNL     1       6.020  -3.512  -3.228  0.00  0.00    +0.004 A 
ATOM     36  C   UNL     1       7.057  -3.317  -4.121  0.00  0.00    +0.000 A 
ATOM     37  C   UNL     1       7.013  -3.908  -5.370  0.00  0.00    +0.000 A 
ATOM     38  C   UNL     1       5.934  -4.694  -5.726  0.00  0.00    +0.000 A 
ATOM     39  C   UNL     1       4.899  -4.893  -4.831  0.00  0.00    +0.004 A 
ENDBRANCH  32  34
ENDBRANCH  21  32
ENDBRANCH   1  21
TORSDOF 10
