REMARK  Name = ZINC37055841
REMARK  4 active torsions:
REMARK  status: ('A' for Active; 'I' for Inactive)
REMARK    1  A    between atoms: C_1  and  C_2
REMARK    2  A    between atoms: N_7  and  S_8
REMARK    3  A    between atoms: S_8  and  C_11
REMARK    4  A    between atoms: C_14  and  N_18
REMARK                            x       y       z     vdW  Elec       q    Type
REMARK                         _______ _______ _______ _____ _____    ______ ____
ROOT
ATOM      1  S   UNL     1      -0.096  -5.153  -0.024  0.00  0.00    +0.103 S 
ATOM      2  O   UNL     1      -0.774  -5.121   1.224  0.00  0.00    -0.146 OA
ATOM      3  O   UNL     1      -0.785  -5.108  -1.266  0.00  0.00    -0.146 OA
ENDROOT
BRANCH   1  10
ATOM      4  C   UNL     1      -0.018   1.503   0.010  0.00  0.00    +0.053 C 
ATOM      5  C   UNL     1       0.002  -0.004   0.002  0.00  0.00    +0.006 A 
ATOM      6  C   UNL     1      -1.023  -0.856   0.002  0.00  0.00    +0.095 A 
ATOM      7  N   UNL     1      -0.798  -2.201  -0.006  0.00  0.00    -0.339 N 
ATOM      8  C   UNL     1       0.505  -2.649  -0.014  0.00  0.00    +0.192 A 
ATOM      9  S   UNL     1       1.406  -1.107  -0.018  0.00  0.00    -0.054 S 
ATOM     10  N   UNL     1       0.961  -3.878  -0.022  0.00  0.00    -0.103 NA
ATOM     11  H   UNL     1      -1.538  -2.828  -0.006  0.00  0.00    +0.167 HD
ENDBRANCH   1  10
BRANCH   1  12
ATOM     12  C   UNL     1       0.868  -6.628  -0.036  0.00  0.00    +0.140 A 
ATOM     13  C   UNL     1       1.245  -7.197  -1.240  0.00  0.00    +0.048 A 
ATOM     14  C   UNL     1       2.000  -8.354  -1.252  0.00  0.00    +0.040 A 
ATOM     15  C   UNL     1       2.381  -8.946  -0.054  0.00  0.00    +0.027 A 
ATOM     16  C   UNL     1       2.002  -8.372   1.152  0.00  0.00    +0.040 A 
ATOM     17  C   UNL     1       1.251  -7.212   1.159  0.00  0.00    +0.048 A 
ATOM     18 BR   UNL     1       0.739  -6.427   2.801  0.00  0.00    -0.048 Br
ATOM     19 BR   UNL     1       0.726  -6.390  -2.869  0.00  0.00    -0.048 Br
BRANCH  15  20
ATOM     20  N   UNL     1       3.145 -10.116  -0.064  0.00  0.00    -0.358 N 
ATOM     21  H   UNL     1       3.409 -10.515  -0.907  0.00  0.00    +0.142 HD
ATOM     22  H   UNL     1       3.410 -10.528   0.773  0.00  0.00    +0.142 HD
ENDBRANCH  15  20
ENDBRANCH   1  12
TORSDOF 3
