REMARK  Name = ZINC06420848
REMARK  5 active torsions:
REMARK  status: ('A' for Active; 'I' for Inactive)
REMARK    1  A    between atoms: C_1  and  C_2
REMARK    2  A    between atoms: C_5  and  C_7
REMARK    3  A    between atoms: C_9  and  C_13
REMARK    4  A    between atoms: N_15  and  N_16
REMARK    5  A    between atoms: C_17  and  C_18
REMARK                            x       y       z     vdW  Elec       q    Type
REMARK                         _______ _______ _______ _____ _____    ______ ____
ROOT
ATOM      1  C   UNL     1       4.884  -4.966  -0.042  0.00  0.00    +0.281 C 
ATOM      2  O   UNL     1       5.804  -4.170  -0.036  0.00  0.00    -0.267 OA
ATOM      3  N   UNL     1       5.139  -6.290  -0.054  0.00  0.00    -0.202 N 
ATOM      4  H   UNL     1       4.406  -6.925  -0.059  0.00  0.00    +0.178 HD
ENDROOT
BRANCH   1   7
ATOM      5  C   UNL     1       1.667  -3.226  -0.025  0.00  0.00    +0.128 A 
ATOM      6  C   UNL     1       3.075  -3.168  -0.025  0.00  0.00    +0.065 A 
ATOM      7  C   UNL     1       3.494  -4.485  -0.037  0.00  0.00    +0.122 A 
ATOM      8  N   UNL     1       2.363  -5.252  -0.043  0.00  0.00    -0.272 N 
ATOM      9  H   UNL     1       2.348  -6.222  -0.051  0.00  0.00    +0.189 HD
ATOM     10  N   UNL     1       1.323  -4.498  -0.030  0.00  0.00    -0.170 NA
BRANCH   5  15
ATOM     11  C   UNL     1      -0.018   1.503   0.010  0.00  0.00    +0.086 C 
ATOM     12  C   UNL     1       0.002  -0.004   0.002  0.00  0.00    +0.103 A 
ATOM     13  C   UNL     1      -1.081  -0.804   0.003  0.00  0.00    +0.045 A 
ATOM     14  C   UNL     1      -0.613  -2.134  -0.007  0.00  0.00    +0.052 A 
ATOM     15  C   UNL     1       0.745  -2.070  -0.013  0.00  0.00    +0.155 A 
ATOM     16  O   UNL     1       1.104  -0.772  -0.013  0.00  0.00    -0.458 OA
ENDBRANCH   5  15
ENDBRANCH   1   7
BRANCH   3  17
ATOM     17  N   UNL     1       6.463  -6.748  -0.059  0.00  0.00    -0.187 NA
ATOM     18  C   UNL     1       6.708  -8.023  -0.070  0.00  0.00    +0.138 C 
BRANCH  18  19
ATOM     19  C   UNL     1       8.102  -8.505  -0.075  0.00  0.00    -0.005 A 
ATOM     20  C   UNL     1       9.160  -7.593  -0.063  0.00  0.00    +0.010 A 
ATOM     21  C   UNL     1      10.461  -8.051  -0.068  0.00  0.00    +0.016 A 
ATOM     22  C   UNL     1      10.719  -9.412  -0.086  0.00  0.00    +0.018 A 
ATOM     23  C   UNL     1       9.675 -10.321  -0.099  0.00  0.00    +0.016 A 
ATOM     24  C   UNL     1       8.369  -9.876  -0.087  0.00  0.00    +0.010 A 
ATOM     25 BR   UNL     1      12.506 -10.030  -0.092  0.00  0.00    -0.050 Br
ENDBRANCH  18  19
ENDBRANCH   3  17
TORSDOF 4
