REMARK  Name = ZINC39836550
REMARK  12 active torsions:
REMARK  status: ('A' for Active; 'I' for Inactive)
REMARK    1  A    between atoms: C_1  and  C_2
REMARK    2  A    between atoms: C_2  and  C_3
REMARK    3  A    between atoms: C_6  and  O_9
REMARK    4  A    between atoms: O_9  and  C_10
REMARK    5  A    between atoms: C_10  and  C_11
REMARK    6  A    between atoms: N_13  and  C_14
REMARK    7  A    between atoms: C_15  and  C_28
REMARK    8  A    between atoms: C_20  and  C_24
REMARK    9  A    between atoms: C_24  and  C_25
REMARK   10  A    between atoms: C_24  and  C_26
REMARK   11  A    between atoms: C_24  and  C_27
REMARK   12  A    between atoms: N_30  and  C_31
REMARK                            x       y       z     vdW  Elec       q    Type
REMARK                         _______ _______ _______ _____ _____    ______ ____
ROOT
ATOM      1  C   UNL     1      -9.367  -3.457  -1.890  0.00  0.00    +0.084 A 
ATOM      2  C   UNL     1     -10.299  -3.803  -2.855  0.00  0.00    +0.069 A 
ATOM      3  C   UNL     1     -11.589  -4.281  -2.390  0.00  0.00    -0.023 A 
ATOM      4  C   UNL     1     -11.711  -4.325  -1.046  0.00  0.00    -0.004 A 
ATOM      5  S   UNL     1     -10.152  -3.754  -0.436  0.00  0.00    -0.077 S 
ATOM      6  C   UNL     1     -12.909  -4.770  -0.265  0.00  0.00    +0.046 C 
ATOM      7  C   UNL     1     -13.849  -5.527  -1.214  0.00  0.00    -0.000 C 
ATOM      8  C   UNL     1     -14.031  -4.704  -2.492  0.00  0.00    +0.009 C 
ATOM      9  C   UNL     1     -12.732  -4.705  -3.302  0.00  0.00    +0.037 C 
ENDROOT
BRANCH   1  12
ATOM     10  C   UNL     1      -7.300  -2.697  -1.018  0.00  0.00    +0.255 C 
ATOM     11  O   UNL     1      -7.726  -2.859   0.105  0.00  0.00    -0.272 OA
ATOM     12  N   UNL     1      -8.079  -2.980  -2.082  0.00  0.00    -0.277 N 
ATOM     13  H   UNL     1      -7.738  -2.850  -2.981  0.00  0.00    +0.155 HD
BRANCH  10  14
ATOM     14  C   UNL     1      -5.900  -2.178  -1.227  0.00  0.00    +0.324 C 
BRANCH  14  15
ATOM     15  O   UNL     1      -5.282  -1.955   0.042  0.00  0.00    -0.483 OA
BRANCH  15  19
ATOM     16  C   UNL     1      -1.412  -0.526   0.013  0.00  0.00    -0.047 A 
ATOM     17  C   UNL     1      -2.050  -0.766   1.216  0.00  0.00    +0.007 A 
ATOM     18  C   UNL     1      -3.346  -1.244   1.228  0.00  0.00    +0.046 A 
ATOM     19  C   UNL     1      -4.007  -1.484   0.032  0.00  0.00    +0.121 A 
ATOM     20  C   UNL     1      -3.365  -1.242  -1.173  0.00  0.00    +0.046 A 
ATOM     21  C   UNL     1      -2.071  -0.758  -1.180  0.00  0.00    +0.007 A 
BRANCH  16  23
ATOM     22  C   UNL     1      -0.019   1.526   0.010  0.00  0.00    +0.009 C 
ATOM     23  C   UNL     1       0.002  -0.004   0.002  0.00  0.00    +0.032 C 
ENDBRANCH  16  23
ENDBRANCH  15  19
ENDBRANCH  14  15
ENDBRANCH  10  14
ENDBRANCH   1  12
BRANCH   7  24
ATOM     24  C   UNL     1     -15.206  -5.731  -0.536  0.00  0.00    -0.035 C 
ATOM     25  C   UNL     1     -15.815  -4.370  -0.194  0.00  0.00    +0.011 C 
ATOM     26  C   UNL     1     -16.141  -6.485  -1.483  0.00  0.00    +0.011 C 
ATOM     27  C   UNL     1     -15.017  -6.543   0.747  0.00  0.00    +0.011 C 
ENDBRANCH   7  24
BRANCH   2  28
ATOM     28  C   UNL     1      -9.996  -3.692  -4.285  0.00  0.00    +0.247 C 
ATOM     29  O   UNL     1      -9.504  -4.634  -4.878  0.00  0.00    -0.270 OA
ATOM     30  N   UNL     1     -10.262  -2.546  -4.943  0.00  0.00    -0.307 N 
ATOM     31  H   UNL     1     -10.654  -1.796  -4.471  0.00  0.00    +0.149 HD
BRANCH  30  32
ATOM     32  C   UNL     1      -9.959  -2.435  -6.372  0.00  0.00    +0.096 C 
ATOM     33  C   UNL     1     -11.136  -2.993  -7.189  0.00  0.00    +0.046 C 
ATOM     34  C   UNL     1     -10.933  -2.582  -8.675  0.00  0.00    +0.168 C 
ATOM     35  S   UNL     1     -10.330  -0.854  -8.467  0.00  0.00    -0.029 S 
ATOM     36  O   UNL     1     -11.439   0.033  -8.521  0.00  0.00    -0.174 OA
ATOM     37  O   UNL     1      -9.223  -0.642  -9.334  0.00  0.00    -0.174 OA
ATOM     38  C   UNL     1      -9.725  -0.948  -6.734  0.00  0.00    +0.188 C 
ENDBRANCH  30  32
ENDBRANCH   2  28
TORSDOF 8
