REMARK  Name = ZINC11912658
REMARK  11 active torsions:
REMARK  status: ('A' for Active; 'I' for Inactive)
REMARK    1  A    between atoms: C_1  and  C_2
REMARK    2  A    between atoms: C_2  and  N_3
REMARK    3  A    between atoms: N_3  and  C_4
REMARK    4  A    between atoms: C_4  and  C_5
REMARK    5  A    between atoms: C_6  and  C_8
REMARK    6  A    between atoms: C_14  and  C_15
REMARK    7  A    between atoms: C_14  and  N_75
REMARK    8  A    between atoms: C_18  and  C_23
REMARK    9  A    between atoms: N_25  and  C_26
REMARK   10  A    between atoms: C_26  and  C_27
REMARK   11  A    between atoms: N_36  and  C_37
REMARK                            x       y       z     vdW  Elec       q    Type
REMARK                         _______ _______ _______ _____ _____    ______ ____
ROOT
ATOM      1  C   UNL     1       0.543  -0.385   0.286  0.00  0.00    +0.003 A 
ATOM      2  C   UNL     1       0.326  -1.534  -0.403  0.00  0.00    +0.020 A 
ATOM      3  C   UNL     1      -0.548  -2.498   0.101  0.00  0.00    +0.020 A 
ATOM      4  C   UNL     1      -1.196  -2.254   1.310  0.00  0.00    +0.101 A 
ATOM      5  C   UNL     1      -0.941  -1.035   1.990  0.00  0.00    +0.261 A 
ATOM      6  O   UNL     1      -1.496  -0.798   3.049  0.00  0.00    -0.267 OA
ATOM      7  N   UNL     1      -0.084  -0.141   1.461  0.00  0.00    -0.327 N 
ATOM      8  H   UNL     1       0.087   0.691   1.930  0.00  0.00    +0.169 HD
ENDROOT
BRANCH   4   9
ATOM      9  C   UNL     1      -2.130  -3.242   1.871  0.00  0.00    +0.250 C 
ATOM     10  O   UNL     1      -2.425  -4.233   1.230  0.00  0.00    -0.270 OA
ATOM     11  N   UNL     1      -2.659  -3.050   3.096  0.00  0.00    -0.307 N 
ATOM     12  H   UNL     1      -2.354  -2.311   3.645  0.00  0.00    +0.149 HD
BRANCH  11  13
ATOM     13  C   UNL     1      -3.693  -3.958   3.598  0.00  0.00    +0.139 C 
BRANCH  13  14
ATOM     14  C   UNL     1      -4.112  -3.528   4.980  0.00  0.00    -0.030 A 
ATOM     15  C   UNL     1      -3.462  -4.035   6.090  0.00  0.00    +0.007 A 
ATOM     16  C   UNL     1      -3.846  -3.639   7.353  0.00  0.00    +0.024 A 
ATOM     17  C   UNL     1      -4.896  -2.734   7.521  0.00  0.00    +0.033 A 
ATOM     18  C   UNL     1      -5.542  -2.229   6.407  0.00  0.00    -0.026 A 
ATOM     19  C   UNL     1      -5.149  -2.630   5.140  0.00  0.00    +0.010 A 
ATOM     20  C   UNL     1      -6.671  -1.235   6.519  0.00  0.00    +0.038 C 
ATOM     21  C   UNL     1      -7.204  -1.221   7.954  0.00  0.00    +0.024 C 
ATOM     22  C   UNL     1      -6.002  -1.134   8.903  0.00  0.00    +0.105 C 
ATOM     23  N   UNL     1      -5.251  -2.389   8.824  0.00  0.00    -0.333 N 
ATOM     24  C   UNL     1      -4.071  -2.351   9.699  0.00  0.00    +0.129 C 
ENDBRANCH  13  14
ENDBRANCH  11  13
ENDBRANCH   4   9
BRANCH   1  25
ATOM     25  C   UNL     1       1.495   0.642  -0.271  0.00  0.00    -0.025 C 
BRANCH  25  31
ATOM     26  C   UNL     1      -0.306   3.916   0.192  0.00  0.00    +0.059 C 
ATOM     27  C   UNL     1      -1.514   3.647  -0.709  0.00  0.00    +0.009 C 
ATOM     28  C   UNL     1      -1.060   2.851  -1.935  0.00  0.00    -0.018 C 
ATOM     29  C   UNL     1      -0.398   1.550  -1.476  0.00  0.00    -0.078 C 
ATOM     30  C   UNL     1       0.335   2.584   0.590  0.00  0.00    -0.066 C 
ATOM     31  N   UNL     1       0.772   1.878  -0.634  0.00  0.00    +0.384 N 
ATOM     32  H   UNL     1       1.403   2.490  -1.164  0.00  0.00    -0.081 HD
BRANCH  26  34
ATOM     33  N   UNL     1      -0.969   5.978   1.387  0.00  0.00    -0.302 N 
ATOM     34  C   UNL     1      -0.754   4.648   1.431  0.00  0.00    +0.217 C 
ATOM     35  O   UNL     1      -0.922   4.040   2.467  0.00  0.00    -0.275 OA
BRANCH  33  37
ATOM     36  C   UNL     1       0.026   7.277   3.205  0.00  0.00    +0.024 C 
ATOM     37  C   UNL     1      -1.269   6.712   2.619  0.00  0.00    +0.104 C 
ENDBRANCH  33  37
BRANCH  33  38
ATOM     38  C   UNL     1      -0.901   6.689   0.108  0.00  0.00    +0.104 C 
ATOM     39  C   UNL     1      -2.314   6.879  -0.445  0.00  0.00    +0.024 C 
ENDBRANCH  33  38
ENDBRANCH  26  34
ENDBRANCH  25  31
ENDBRANCH   1  25
TORSDOF 8
