REMARK  Name = ZINC04554612
REMARK  9 active torsions:
REMARK  status: ('A' for Active; 'I' for Inactive)
REMARK    1  A    between atoms: C_1  and  C_2
REMARK    2  A    between atoms: C_2  and  C_3
REMARK    3  A    between atoms: C_6  and  C_9
REMARK    4  A    between atoms: C_18  and  C_22
REMARK    5  A    between atoms: C_22  and  C_23
REMARK    6  A    between atoms: C_22  and  C_24
REMARK    7  A    between atoms: C_22  and  C_25
REMARK    8  A    between atoms: C_25  and  C_26
REMARK    9  A    between atoms: C_27  and  O_29
REMARK                            x       y       z     vdW  Elec       q    Type
REMARK                         _______ _______ _______ _____ _____    ______ ____
ROOT
ATOM      1  C   UNL     1       2.797  -1.919   4.683  0.00  0.00    +0.224 C 
ATOM      2  N   UNL     1       1.875  -2.737   5.492  0.00  0.00    -0.313 N 
ATOM      3  C   UNL     1       1.737  -4.054   5.114  0.00  0.00    +0.080 A 
ATOM      4  C   UNL     1       2.738  -4.729   4.405  0.00  0.00    +0.068 A 
ATOM      5  C   UNL     1       2.445  -6.109   4.065  0.00  0.00    -0.023 A 
ATOM      6  C   UNL     1       1.240  -6.549   4.493  0.00  0.00    -0.004 A 
ATOM      7  S   UNL     1       0.520  -5.159   5.324  0.00  0.00    -0.078 S 
ATOM      8  C   UNL     1       0.658  -7.914   4.296  0.00  0.00    +0.046 C 
ATOM      9  C   UNL     1       1.473  -8.636   3.213  0.00  0.00    -0.000 C 
ATOM     10  C   UNL     1       2.963  -8.474   3.525  0.00  0.00    +0.009 C 
ATOM     11  C   UNL     1       3.389  -7.023   3.295  0.00  0.00    +0.037 C 
ATOM     12  C   UNL     1       3.979  -3.976   4.087  0.00  0.00    +0.220 C 
ATOM     13  N   UNL     1       3.963  -2.684   4.261  0.00  0.00    -0.223 NA
ATOM     14  H   UNL     1       1.393  -2.369   6.249  0.00  0.00    +0.149 HD
ENDROOT
BRANCH   1  18
ATOM     15  C   UNL     1       0.731  -0.503   1.223  0.00  0.00    -0.048 A 
ATOM     16  C   UNL     1       2.097  -0.710   1.176  0.00  0.00    +0.004 A 
ATOM     17  C   UNL     1       2.766  -1.167   2.296  0.00  0.00    +0.007 A 
ATOM     18  C   UNL     1       2.068  -1.419   3.463  0.00  0.00    -0.005 A 
ATOM     19  C   UNL     1       0.702  -1.212   3.510  0.00  0.00    +0.007 A 
ATOM     20  C   UNL     1       0.034  -0.750   2.391  0.00  0.00    +0.004 A 
BRANCH  15  22
ATOM     21  C   UNL     1      -0.019   1.526   0.010  0.00  0.00    +0.009 C 
ATOM     22  C   UNL     1       0.002  -0.004   0.002  0.00  0.00    +0.032 C 
ENDBRANCH  15  22
ENDBRANCH   1  18
BRANCH   9  23
ATOM     23  C   UNL     1       1.107 -10.122   3.202  0.00  0.00    -0.032 C 
ATOM     24  C   UNL     1       1.920 -10.839   2.122  0.00  0.00    +0.011 C 
ATOM     25  C   UNL     1       1.421 -10.735   4.568  0.00  0.00    +0.011 C 
BRANCH  23  26
ATOM     26  C   UNL     1      -0.386 -10.277   2.904  0.00  0.00    +0.003 C 
ATOM     27  C   UNL     1      -0.751 -11.763   2.892  0.00  0.00    +0.004 C 
ENDBRANCH  23  26
ENDBRANCH   9  23
BRANCH  12  28
ATOM     28  O   UNL     1       5.085  -4.610   3.634  0.00  0.00    -0.492 OA
ATOM     29  H   UNL     1       5.832  -4.021   3.460  0.00  0.00    +0.294 HD
ENDBRANCH  12  28
TORSDOF 5
