REMARK  Name = ZINC12250164
REMARK  13 active torsions:
REMARK  status: ('A' for Active; 'I' for Inactive)
REMARK    1  A    between atoms: C_1  and  C_2
REMARK    2  A    between atoms: C_2  and  C_3
REMARK    3  A    between atoms: C_6  and  N_9
REMARK    4  A    between atoms: C_10  and  C_12
REMARK    5  A    between atoms: C_13  and  C_39
REMARK    6  A    between atoms: C_15  and  S_26
REMARK    7  A    between atoms: C_16  and  C_24
REMARK    8  A    between atoms: C_17  and  C_19
REMARK    9  A    between atoms: S_26  and  C_27
REMARK   10  A    between atoms: C_27  and  C_28
REMARK   11  A    between atoms: N_30  and  C_31
REMARK   12  A    between atoms: C_34  and  C_38
REMARK   13  A    between atoms: C_35  and  C_37
REMARK                            x       y       z     vdW  Elec       q    Type
REMARK                         _______ _______ _______ _____ _____    ______ ____
ROOT
ATOM      1  C   UNL     1      -0.948  -2.222   0.344  0.00  0.00    +0.047 C 
ATOM      2  C   UNL     1      -2.230  -2.621   0.345  0.00  0.00    +0.015 C 
ATOM      3  N   UNL     1      -2.569  -3.907   0.667  0.00  0.00    -0.312 N 
ATOM      4  C   UNL     1      -1.677  -4.707   1.345  0.00  0.00    +0.080 C 
ATOM      5  C   UNL     1      -0.356  -4.385   1.388  0.00  0.00    +0.072 C 
ATOM      6  C   UNL     1       0.171  -3.161   0.695  0.00  0.00    +0.134 C 
ATOM      7  C   UNL     1      -3.312  -1.637  -0.019  0.00  0.00    +0.061 C 
ATOM      8  H   UNL     1      -3.555  -4.303   0.384  0.00  0.00    +0.152 HD
ENDROOT
BRANCH   6   9
ATOM      9  C   UNL     1       0.886  -3.573  -0.566  0.00  0.00    +0.118 A 
ATOM     10  C   UNL     1       2.187  -3.363  -0.837  0.00  0.00    +0.045 A 
ATOM     11  C   UNL     1       2.431  -3.908  -2.119  0.00  0.00    +0.041 A 
ATOM     12  C   UNL     1       1.266  -4.419  -2.554  0.00  0.00    +0.195 A 
ATOM     13  O   UNL     1       0.335  -4.218  -1.606  0.00  0.00    -0.467 OA
ENDBRANCH   6   9
BRANCH   1  15
ATOM     14  N   UNL     1       0.642  -0.487  -0.091  0.00  0.00    -0.282 N 
ATOM     15  C   UNL     1      -0.643  -0.881   0.009  0.00  0.00    +0.247 C 
ATOM     16  O   UNL     1      -1.541  -0.084  -0.189  0.00  0.00    -0.270 OA
ATOM     17  H   UNL     1       1.453  -1.223   0.013  0.00  0.00    +0.155 HD
BRANCH  14  21
ATOM     18  C   UNL     1       1.543   3.519  -0.793  0.00  0.00    -0.048 A 
ATOM     19  C   UNL     1       0.424   2.951  -1.374  0.00  0.00    +0.005 A 
ATOM     20  C   UNL     1       0.122   1.623  -1.143  0.00  0.00    +0.023 A 
ATOM     21  C   UNL     1       0.945   0.858  -0.327  0.00  0.00    +0.034 A 
ATOM     22  C   UNL     1       2.065   1.432   0.260  0.00  0.00    +0.023 A 
ATOM     23  C   UNL     1       2.364   2.759   0.021  0.00  0.00    +0.005 A 
BRANCH  18  25
ATOM     24  C   UNL     1       1.192   5.836   0.016  0.00  0.00    +0.009 C 
ATOM     25  C   UNL     1       1.869   4.968  -1.046  0.00  0.00    +0.032 C 
ENDBRANCH  18  25
ENDBRANCH  14  21
ENDBRANCH   1  15
BRANCH   5  26
ATOM     26  C   UNL     1       0.550  -5.230   2.107  0.00  0.00    +0.098 C 
ATOM     27  N   UNL     1       1.268  -5.900   2.678  0.00  0.00    -0.191 NA
ENDBRANCH   5  26
BRANCH   4  28
ATOM     28  S   UNL     1      -2.250  -6.158   2.163  0.00  0.00    -0.100 S 
BRANCH  28  29
ATOM     29  C   UNL     1      -4.015  -6.063   1.771  0.00  0.00    +0.171 C 
BRANCH  29  30
ATOM     30  C   UNL     1      -4.730  -7.238   2.386  0.00  0.00    +0.227 C 
ATOM     31  O   UNL     1      -4.108  -8.059   3.027  0.00  0.00    -0.275 OA
ATOM     32  N   UNL     1      -6.061  -7.377   2.225  0.00  0.00    -0.285 N 
ATOM     33  H   UNL     1      -6.638  -6.590   1.716  0.00  0.00    +0.155 HD
BRANCH  32  34
ATOM     34  C   UNL     1      -6.708  -8.521   2.704  0.00  0.00    +0.034 A 
ATOM     35  C   UNL     1      -6.052  -9.744   2.702  0.00  0.00    +0.023 A 
ATOM     36  C   UNL     1      -6.691 -10.871   3.181  0.00  0.00    +0.005 A 
ATOM     37  C   UNL     1      -7.989 -10.783   3.651  0.00  0.00    -0.047 A 
ATOM     38  C   UNL     1      -8.648  -9.567   3.650  0.00  0.00    -0.046 A 
ATOM     39  C   UNL     1      -8.011  -8.436   3.177  0.00  0.00    +0.027 A 
ATOM     40  C   UNL     1     -10.061  -9.477   4.164  0.00  0.00    +0.044 C 
ATOM     41  C   UNL     1      -8.687 -12.015   4.167  0.00  0.00    +0.044 C 
ENDBRANCH  32  34
ENDBRANCH  29  30
ENDBRANCH  28  29
ENDBRANCH   4  28
TORSDOF 9
