REMARK  Name = ZINC20388767
REMARK  9 active torsions:
REMARK  status: ('A' for Active; 'I' for Inactive)
REMARK    1  A    between atoms: C_5  and  O_7
REMARK    2  A    between atoms: O_7  and  C_8
REMARK    3  A    between atoms: C_8  and  C_9
REMARK    4  A    between atoms: C_9  and  C_11
REMARK    5  A    between atoms: C_9  and  O_35
REMARK    6  A    between atoms: C_11  and  N_12
REMARK    7  A    between atoms: N_15  and  C_18
REMARK    8  A    between atoms: C_18  and  C_19
REMARK    9  A    between atoms: C_19  and  N_20
REMARK                            x       y       z     vdW  Elec       q    Type
REMARK                         _______ _______ _______ _____ _____    ______ ____
ROOT
ATOM      1  N   UNL     1       1.359   2.034   0.000  0.00  0.00    -0.303 NA
ATOM      2  C   UNL     1       2.057   1.690   1.247  0.00  0.00    +0.066 C 
ATOM      3  C   UNL     1       3.509   2.167   1.164  0.00  0.00    -0.063 C 
ATOM      4  N   UNL     1       3.533   3.618   0.933  0.00  0.00    +0.382 N 
ATOM      5  C   UNL     1       2.836   3.962  -0.314  0.00  0.00    -0.063 C 
ATOM      6  C   UNL     1       1.384   3.485  -0.231  0.00  0.00    +0.066 C 
ATOM      7  H   UNL     1       3.002   4.103   1.765  0.00  0.00    -0.082 HD
ENDROOT
BRANCH   1   8
ATOM      8  C   UNL     1      -0.019   1.526   0.010  0.00  0.00    +0.119 C 
BRANCH   8   9
ATOM      9  C   UNL     1       0.002  -0.004   0.002  0.00  0.00    +0.166 C 
BRANCH   9  10
ATOM     10  O   UNL     1       0.671  -0.465  -1.174  0.00  0.00    -0.387 OA
ATOM     11  H   UNL     1       1.719  -0.184  -1.356  0.00  0.00    +0.210 HD
ENDBRANCH   9  10
BRANCH   9  12
ATOM     12  C   UNL     1      -1.433  -0.534   0.013  0.00  0.00    +0.261 C 
BRANCH  12  13
ATOM     13  O   UNL     1      -1.415  -1.958   0.122  0.00  0.00    -0.488 OA
BRANCH  13  18
ATOM     14  C   UNL     1      -5.012  -2.502   0.089  0.00  0.00    +0.004 A 
ATOM     15  C   UNL     1      -5.066  -3.880   0.194  0.00  0.00    +0.002 A 
ATOM     16  C   UNL     1      -3.898  -4.615   0.275  0.00  0.00    +0.023 A 
ATOM     17  C   UNL     1      -2.673  -3.974   0.251  0.00  0.00    +0.083 A 
ATOM     18  C   UNL     1      -2.617  -2.591   0.146  0.00  0.00    +0.139 A 
ATOM     19  C   UNL     1      -3.791  -1.856   0.071  0.00  0.00    +0.047 A 
ATOM     20 CL   UNL     1      -1.207  -4.898   0.353  0.00  0.00    -0.080 Cl
ENDBRANCH  13  18
ENDBRANCH  12  13
ENDBRANCH   9  12
ENDBRANCH   8   9
ENDBRANCH   1   8
BRANCH   4  21
ATOM     21  C   UNL     1       4.912   4.127   0.923  0.00  0.00    -0.059 C 
BRANCH  21  22
ATOM     22  C   UNL     1       5.522   3.973   2.317  0.00  0.00    +0.098 C 
BRANCH  22  23
ATOM     23  N   UNL     1       6.897   4.480   2.307  0.00  0.00    -0.236 N 
ATOM     24  C   UNL     1       7.900   3.629   2.016  0.00  0.00    +0.254 C 
ATOM     25  O   UNL     1       7.652   2.464   1.770  0.00  0.00    -0.270 OA
ATOM     26  C   UNL     1       9.292   4.102   1.992  0.00  0.00    +0.046 A 
ATOM     27  C   UNL     1      10.354   3.262   1.694  0.00  0.00    +0.014 A 
ATOM     28  C   UNL     1      11.654   3.755   1.688  0.00  0.00    +0.001 A 
ATOM     29  C   UNL     1      11.924   5.063   1.971  0.00  0.00    +0.008 A 
ATOM     30  C   UNL     1      10.876   5.947   2.277  0.00  0.00    -0.016 A 
ATOM     31  C   UNL     1       9.552   5.459   2.287  0.00  0.00    +0.006 A 
ATOM     32  C   UNL     1       8.476   6.324   2.593  0.00  0.00    +0.046 A 
ATOM     33  C   UNL     1       8.743   7.654   2.882  0.00  0.00    +0.014 A 
ATOM     34  C   UNL     1      10.051   8.123   2.869  0.00  0.00    +0.001 A 
ATOM     35  C   UNL     1      11.102   7.302   2.576  0.00  0.00    +0.008 A 
ATOM     36  C   UNL     1       7.111   5.778   2.593  0.00  0.00    +0.254 C 
ATOM     37  O   UNL     1       6.170   6.503   2.853  0.00  0.00    -0.270 OA
ENDBRANCH  22  23
ENDBRANCH  21  22
ENDBRANCH   4  21
TORSDOF 9
