REMARK  Name = ZINC08296440
REMARK  7 active torsions:
REMARK  status: ('A' for Active; 'I' for Inactive)
REMARK    1  A    between atoms: C_4  and  C_13
REMARK    2  A    between atoms: C_5  and  C_7
REMARK    3  A    between atoms: C_7  and  N_67
REMARK    4  A    between atoms: C_28  and  C_29
REMARK    5  A    between atoms: C_28  and  N_69
REMARK    6  A    between atoms: C_32  and  C_34
REMARK    7  A    between atoms: C_34  and  O_35
REMARK                            x       y       z     vdW  Elec       q    Type
REMARK                         _______ _______ _______ _____ _____    ______ ____
ROOT
ATOM      1  C   UNL     1       0.686   1.353   0.149  0.00  0.00    +0.047 A 
ATOM      2  C   UNL     1      -0.327   2.264  -0.107  0.00  0.00    +0.015 A 
ATOM      3  C   UNL     1      -0.022   3.626  -0.091  0.00  0.00    +0.022 A 
ATOM      4  C   UNL     1       1.250   4.051   0.144  0.00  0.00    +0.023 A 
ATOM      5  N   UNL     1       2.259   3.164   0.303  0.00  0.00    -0.311 N 
ATOM      6  C   UNL     1       1.992   1.837   0.382  0.00  0.00    +0.259 A 
ATOM      7  O   UNL     1       2.888   1.055   0.656  0.00  0.00    -0.267 OA
ATOM      8  C   UNL     1       3.669   3.557   0.341  0.00  0.00    +0.126 C 
ATOM      9  C   UNL     1       3.852   5.026   0.683  0.00  0.00    -0.007 C 
ATOM     10  C   UNL     1       2.908   5.870  -0.178  0.00  0.00    +0.011 C 
ATOM     11  C   UNL     1       1.473   5.543   0.250  0.00  0.00    +0.020 C 
ATOM     12  C   UNL     1       1.318   5.930   1.730  0.00  0.00    -0.069 C 
ATOM     13  C   UNL     1       3.607   5.284   2.163  0.00  0.00    -0.073 C 
ATOM     14  N   UNL     1       2.196   5.029   2.506  0.00  0.00    +0.385 N 
ATOM     15  H   UNL     1       1.966   4.056   2.274  0.00  0.00    -0.081 HD
ENDROOT
BRANCH   1  19
ATOM     16  C   UNL     1      -0.120  -2.820   0.216  0.00  0.00    +0.000 A 
ATOM     17  C   UNL     1       0.546  -2.264  -0.861  0.00  0.00    +0.001 A 
ATOM     18  C   UNL     1       0.810  -0.910  -0.889  0.00  0.00    +0.009 A 
ATOM     19  C   UNL     1       0.405  -0.101   0.172  0.00  0.00    -0.011 A 
ATOM     20  C   UNL     1      -0.262  -0.668   1.258  0.00  0.00    -0.056 A 
ATOM     21  C   UNL     1      -0.525  -2.023   1.272  0.00  0.00    +0.002 A 
BRANCH  20  22
ATOM     22  C   UNL     1      -0.699   0.198   2.412  0.00  0.00    -0.042 C 
BRANCH  22  28
ATOM     23  C   UNL     1      -2.859  -0.842   2.758  0.00  0.00    -0.050 C 
ATOM     24  C   UNL     1      -3.667  -1.717   3.720  0.00  0.00    +0.141 C 
ATOM     25  O   UNL     1      -3.738  -1.074   4.996  0.00  0.00    -0.383 OA
ATOM     26  C   UNL     1      -2.459  -0.818   5.583  0.00  0.00    +0.141 C 
ATOM     27  C   UNL     1      -1.639   0.067   4.640  0.00  0.00    -0.050 C 
ATOM     28  N   UNL     1      -1.517  -0.617   3.336  0.00  0.00    +0.385 N 
ATOM     29  H   UNL     1      -1.058  -1.525   3.476  0.00  0.00    -0.081 HD
ENDBRANCH  22  28
ENDBRANCH  20  22
ENDBRANCH   1  19
BRANCH  14  30
ATOM     30  C   UNL     1       1.980   5.244   3.953  0.00  0.00    -0.003 C 
BRANCH  30  31
ATOM     31  C   UNL     1       0.594   4.776   4.314  0.00  0.00    +0.089 A 
ATOM     32  C   UNL     1       0.262   3.537   4.718  0.00  0.00    +0.043 A 
ATOM     33  C   UNL     1      -1.133   3.541   4.948  0.00  0.00    +0.047 A 
ATOM     34  C   UNL     1      -1.570   4.782   4.670  0.00  0.00    +0.130 A 
ATOM     35  O   UNL     1      -0.519   5.528   4.292  0.00  0.00    -0.464 OA
BRANCH  34  36
ATOM     36  C   UNL     1      -2.997   5.257   4.771  0.00  0.00    +0.230 C 
BRANCH  36  37
ATOM     37  O   UNL     1      -3.237   5.768   6.084  0.00  0.00    -0.387 OA
ATOM     38  H   UNL     1      -4.137   6.092   6.221  0.00  0.00    +0.210 HD
ENDBRANCH  36  37
ENDBRANCH  34  36
ENDBRANCH  30  31
ENDBRANCH  14  30
TORSDOF 7
