REMARK  Name = ZINC36621756
REMARK  7 active torsions:
REMARK  status: ('A' for Active; 'I' for Inactive)
REMARK    1  A    between atoms: C_1  and  C_2
REMARK    2  A    between atoms: C_5  and  O_35
REMARK    3  A    between atoms: C_17  and  C_34
REMARK    4  A    between atoms: C_22  and  C_23
REMARK    5  A    between atoms: C_26  and  N_29
REMARK    6  A    between atoms: N_29  and  C_30
REMARK    7  A    between atoms: N_29  and  C_31
REMARK                            x       y       z     vdW  Elec       q    Type
REMARK                         _______ _______ _______ _____ _____    ______ ____
ROOT
ATOM      1  C   UNL     1      -1.655   0.707  -0.601  0.00  0.00    +0.016 C 
ATOM      2  C   UNL     1      -1.266  -0.771  -0.531  0.00  0.00    -0.008 C 
ATOM      3  C   UNL     1      -2.547  -1.605  -0.612  0.00  0.00    +0.014 C 
ATOM      4  C   UNL     1      -3.426  -1.304   0.604  0.00  0.00    +0.032 C 
ATOM      5  C   UNL     1      -2.698  -1.720   1.883  0.00  0.00    +0.119 C 
ATOM      6  C   UNL     1      -1.433  -0.873   2.047  0.00  0.00    +0.062 C 
ATOM      7  C   UNL     1      -0.595  -1.016   0.788  0.00  0.00    -0.065 C 
ATOM      8  C   UNL     1       0.657  -1.346   0.913  0.00  0.00    -0.027 C 
ATOM      9  C   UNL     1       1.576  -1.533  -0.258  0.00  0.00    +0.031 C 
ATOM     10  C   UNL     1       1.074  -0.687  -1.435  0.00  0.00    +0.001 C 
ATOM     11  C   UNL     1      -0.380  -1.085  -1.725  0.00  0.00    +0.003 C 
ATOM     12  C   UNL     1      -0.870  -0.287  -2.940  0.00  0.00    +0.005 C 
ATOM     13  C   UNL     1      -0.046  -0.694  -4.157  0.00  0.00    +0.015 C 
ATOM     14  C   UNL     1       1.428  -0.332  -3.958  0.00  0.00    +0.034 C 
ATOM     15  C   UNL     1       1.962  -0.905  -2.634  0.00  0.00    +0.010 C 
ATOM     16  C   UNL     1       2.106  -2.392  -3.013  0.00  0.00    +0.043 C 
ATOM     17  C   UNL     1       2.576  -2.329  -4.458  0.00  0.00    -0.004 C 
ATOM     18  C   UNL     1       3.244  -3.310  -5.115  0.00  0.00    +0.015 C 
ATOM     19  C   UNL     1       2.210  -1.117  -5.010  0.00  0.00    +0.165 C 
ATOM     20  O   UNL     1       2.461  -0.739  -6.137  0.00  0.00    -0.292 OA
ATOM     21  C   UNL     1       1.667   1.176  -4.065  0.00  0.00    +0.020 C 
ENDROOT
BRANCH  18  22
ATOM     22  C   UNL     1       3.430  -4.620  -4.483  0.00  0.00    -0.025 A 
ATOM     23  C   UNL     1       2.643  -4.988  -3.383  0.00  0.00    +0.010 A 
ATOM     24  C   UNL     1       2.818  -6.209  -2.798  0.00  0.00    +0.023 A 
ATOM     25  C   UNL     1       3.778  -7.090  -3.293  0.00  0.00    +0.029 A 
ATOM     26  C   UNL     1       4.563  -6.728  -4.385  0.00  0.00    +0.023 A 
ATOM     27  C   UNL     1       4.391  -5.511  -4.980  0.00  0.00    +0.010 A 
BRANCH  25  28
ATOM     28  N   UNL     1       3.953  -8.332  -2.694  0.00  0.00    -0.336 N 
ATOM     29  C   UNL     1       3.047  -8.765  -1.628  0.00  0.00    +0.129 C 
ATOM     30  C   UNL     1       5.045  -9.207  -3.129  0.00  0.00    +0.129 C 
ENDBRANCH  25  28
ENDBRANCH  18  22
BRANCH   5  31
ATOM     31  O   UNL     1      -2.340  -3.101   1.799  0.00  0.00    -0.391 OA
ATOM     32  H   UNL     1      -1.874  -3.434   2.578  0.00  0.00    +0.210 HD
ENDBRANCH   5  31
TORSDOF 3
