REMARK  Name = ZINC20898560
REMARK  8 active torsions:
REMARK  status: ('A' for Active; 'I' for Inactive)
REMARK    1  A    between atoms: C_1  and  C_2
REMARK    2  A    between atoms: C_7  and  C_8
REMARK    3  A    between atoms: C_10  and  C_33
REMARK    4  A    between atoms: C_14  and  C_17
REMARK    5  A    between atoms: C_20  and  O_24
REMARK    6  A    between atoms: C_22  and  O_23
REMARK    7  A    between atoms: N_25  and  C_32
REMARK    8  A    between atoms: N_28  and  C_31
REMARK                            x       y       z     vdW  Elec       q    Type
REMARK                         _______ _______ _______ _____ _____    ______ ____
ROOT
ATOM      1  C   UNL     1      -4.367   4.210   1.802  0.00  0.00    +0.044 C 
ATOM      2  C   UNL     1      -3.165   3.409   1.371  0.00  0.00    -0.046 A 
ATOM      3  C   UNL     1      -1.998   4.060   1.015  0.00  0.00    +0.028 A 
ATOM      4  C   UNL     1      -0.891   3.326   0.619  0.00  0.00    +0.052 A 
ATOM      5  C   UNL     1      -0.962   1.929   0.600  0.00  0.00    +0.068 A 
ATOM      6  C   UNL     1      -2.134   1.286   0.948  0.00  0.00    +0.031 A 
ATOM      7  C   UNL     1      -3.236   2.029   1.334  0.00  0.00    -0.045 A 
ATOM      8  C   UNL     1      -4.517   1.332   1.714  0.00  0.00    +0.044 C 
ATOM      9  N   UNL     1       0.185   1.214   0.225  0.00  0.00    -0.306 N 
ATOM     10  C   UNL     1       0.303  -0.108  -0.070  0.00  0.00    +0.069 A 
ATOM     11  C   UNL     1       1.617  -0.347  -0.386  0.00  0.00    +0.089 A 
ATOM     12  C   UNL     1       2.326   0.951  -0.251  0.00  0.00    +0.082 A 
ATOM     13  C   UNL     1       1.420   1.841   0.124  0.00  0.00    +0.073 A 
ATOM     14  C   UNL     1       1.590   3.312   0.438  0.00  0.00    +0.154 C 
ATOM     15  N   UNL     1       0.291   3.971   0.237  0.00  0.00    -0.330 N 
ATOM     16  N   UNL     1       3.703   1.000  -0.518  0.00  0.00    -0.294 N 
ATOM     17  C   UNL     1       4.304  -0.154  -0.883  0.00  0.00    +0.332 A 
ATOM     18  O   UNL     1       5.497  -0.112  -1.112  0.00  0.00    -0.246 OA
ATOM     19  N   UNL     1       3.698  -1.338  -1.012  0.00  0.00    -0.263 N 
ATOM     20  C   UNL     1       2.373  -1.537  -0.789  0.00  0.00    +0.266 A 
ATOM     21  O   UNL     1       1.848  -2.627  -0.916  0.00  0.00    -0.267 OA
ATOM     22  C   UNL     1       4.509  -2.489  -1.417  0.00  0.00    +0.157 C 
ATOM     23  C   UNL     1       4.457   2.251  -0.406  0.00  0.00    +0.154 C 
ATOM     24  H   UNL     1       0.247   4.973  -0.214  0.00  0.00    +0.147 HD
ENDROOT
BRANCH  14  25
ATOM     25  C   UNL     1       2.031   3.479   1.870  0.00  0.00    +0.020 A 
ATOM     26  C   UNL     1       1.899   2.431   2.760  0.00  0.00    +0.013 A 
ATOM     27  C   UNL     1       2.307   2.580   4.072  0.00  0.00    +0.046 A 
ATOM     28  C   UNL     1       2.841   3.787   4.500  0.00  0.00    +0.120 A 
ATOM     29  C   UNL     1       2.969   4.842   3.611  0.00  0.00    +0.091 A 
ATOM     30  C   UNL     1       2.564   4.688   2.294  0.00  0.00    +0.126 A 
BRANCH  30  31
ATOM     31  O   UNL     1       2.688   5.721   1.419  0.00  0.00    -0.506 OA
ATOM     32  H   UNL     1       3.111   6.679   1.756  0.00  0.00    +0.292 HD
ENDBRANCH  30  31
BRANCH  28  33
ATOM     33  O   UNL     1       3.237   3.935   5.792  0.00  0.00    -0.507 OA
ATOM     34  H   UNL     1       3.660   4.892   6.132  0.00  0.00    +0.292 HD
ENDBRANCH  28  33
ENDBRANCH  14  25
BRANCH  10  35
ATOM     35  C   UNL     1      -0.785  -1.106  -0.052  0.00  0.00    -0.000 A 
ATOM     36  C   UNL     1      -1.925  -0.915  -0.836  0.00  0.00    +0.010 A 
ATOM     37  C   UNL     1      -2.934  -1.855  -0.819  0.00  0.00    +0.001 A 
ATOM     38  C   UNL     1      -2.825  -2.978  -0.018  0.00  0.00    +0.000 A 
ATOM     39  C   UNL     1      -1.701  -3.171   0.765  0.00  0.00    +0.001 A 
ATOM     40  C   UNL     1      -0.681  -2.242   0.754  0.00  0.00    +0.010 A 
ENDBRANCH  10  35
TORSDOF 4
