REMARK  Name = ZINC33502039
REMARK  10 active torsions:
REMARK  status: ('A' for Active; 'I' for Inactive)
REMARK    1  A    between atoms: C_1  and  C_2
REMARK    2  A    between atoms: C_2  and  C_3
REMARK    3  A    between atoms: N_7  and  C_22
REMARK    4  A    between atoms: C_10  and  C_15
REMARK    5  A    between atoms: C_15  and  C_17
REMARK    6  A    between atoms: C_15  and  N_21
REMARK    7  A    between atoms: C_17  and  C_18
REMARK    8  A    between atoms: C_17  and  C_19
REMARK    9  A    between atoms: C_17  and  C_20
REMARK   10  A    between atoms: C_22  and  C_23
REMARK                            x       y       z     vdW  Elec       q    Type
REMARK                         _______ _______ _______ _____ _____    ______ ____
ROOT
ATOM      1  C   UNL     1      -0.729   1.579   1.267  0.00  0.00    +0.259 C 
ATOM      2  C   UNL     1      -0.073   0.980   2.485  0.00  0.00    +0.261 C 
ATOM      3  O   UNL     1      -0.495  -0.055   2.957  0.00  0.00    -0.271 OA
ATOM      4  N   UNL     1       0.986   1.599   3.048  0.00  0.00    -0.256 N 
ATOM      5  C   UNL     1       1.378   2.856   2.567  0.00  0.00    +0.079 A 
ATOM      6  C   UNL     1       2.583   3.415   2.961  0.00  0.00    +0.029 A 
ATOM      7  C   UNL     1       2.962   4.650   2.467  0.00  0.00    -0.059 A 
ATOM      8  C   UNL     1       2.143   5.326   1.581  0.00  0.00    +0.006 A 
ATOM      9  C   UNL     1       0.937   4.775   1.189  0.00  0.00    +0.048 A 
ATOM     10  C   UNL     1       0.548   3.542   1.684  0.00  0.00    +0.143 A 
ATOM     11  O   UNL     1      -0.650   3.005   1.331  0.00  0.00    -0.478 OA
ENDROOT
BRANCH   1  13
ATOM     12  C   UNL     1      -0.753   1.593  -1.232  0.00  0.00    +0.008 C 
ATOM     13  C   UNL     1      -0.013   1.086   0.008  0.00  0.00    +0.051 C 
ENDBRANCH   1  13
BRANCH   7  14
ATOM     14  C   UNL     1       4.272   5.261   2.895  0.00  0.00    -0.039 C 
BRANCH  14  15
ATOM     15  C   UNL     1       4.016   6.303   3.985  0.00  0.00    -0.047 C 
ATOM     16  C   UNL     1       3.350   5.631   5.187  0.00  0.00    +0.009 C 
ATOM     17  C   UNL     1       5.346   6.923   4.420  0.00  0.00    +0.009 C 
ATOM     18  C   UNL     1       3.098   7.398   3.439  0.00  0.00    +0.009 C 
ENDBRANCH  14  15
BRANCH  14  19
ATOM     19  N   UNL     1       4.912   5.906   1.741  0.00  0.00    +0.383 N 
ATOM     20  H   UNL     1       5.868   6.351   2.053  0.00  0.00    -0.089 HD
ATOM     21  H   UNL     1       4.251   6.693   1.348  0.00  0.00    -0.089 HD
ATOM     22  H   UNL     1       5.096   5.156   0.957  0.00  0.00    -0.089 HD
ENDBRANCH  14  19
ENDBRANCH   7  14
BRANCH   4  23
ATOM     23  C   UNL     1       1.716   0.965   4.149  0.00  0.00    +0.209 C 
BRANCH  23  24
ATOM     24  C   UNL     1       2.832   0.120   3.590  0.00  0.00    +0.228 C 
ATOM     25  O   UNL     1       3.000   0.053   2.391  0.00  0.00    -0.274 OA
ATOM     26  N   UNL     1       3.642  -0.562   4.423  0.00  0.00    -0.328 N 
ATOM     27  H   UNL     1       4.457  -1.179   4.016  0.00  0.00    +0.145 HD
ATOM     28  H   UNL     1       3.489  -0.502   5.511  0.00  0.00    +0.145 HD
ENDBRANCH  23  24
ENDBRANCH   4  23
TORSDOF 6
