REMARK  Name = ZINC17194111
REMARK  6 active torsions:
REMARK  status: ('A' for Active; 'I' for Inactive)
REMARK    1  A    between atoms: C_1  and  C_2
REMARK    2  A    between atoms: C_9  and  O_17
REMARK    3  A    between atoms: C_10  and  N_14
REMARK    4  A    between atoms: O_17  and  C_18
REMARK    5  A    between atoms: C_22  and  C_24
REMARK    6  A    between atoms: C_25  and  C_26
REMARK                            x       y       z     vdW  Elec       q    Type
REMARK                         _______ _______ _______ _____ _____    ______ ____
ROOT
ATOM      1  C   UNL     1      -3.049   1.120  -1.213  0.00  0.00    +0.035 C 
ATOM      2  C   UNL     1      -2.425   2.321  -0.499  0.00  0.00    +0.120 C 
ATOM      3  C   UNL     1      -2.716   2.244   0.983  0.00  0.00    +0.041 A 
ATOM      4  C   UNL     1      -1.780   1.952   1.911  0.00  0.00    -0.016 A 
ATOM      5  C   UNL     1      -2.442   1.971   3.201  0.00  0.00    +0.006 A 
ATOM      6  C   UNL     1      -1.984   1.744   4.503  0.00  0.00    +0.014 A 
ATOM      7  C   UNL     1      -2.907   1.848   5.513  0.00  0.00    +0.049 A 
ATOM      8  C   UNL     1      -4.238   2.163   5.266  0.00  0.00    +0.152 A 
ATOM      9  C   UNL     1      -4.717   2.393   3.983  0.00  0.00    +0.191 A 
ATOM     10  C   UNL     1      -3.799   2.293   2.941  0.00  0.00    +0.081 A 
ATOM     11  N   UNL     1      -3.927   2.452   1.591  0.00  0.00    -0.354 N 
ATOM     12  H   UNL     1      -4.751   2.677   1.131  0.00  0.00    +0.166 HD
ATOM     13  C   UNL     1      -0.328   1.667   1.612  0.00  0.00    +0.056 C 
ATOM     14  C   UNL     1      -0.186   1.327   0.123  0.00  0.00    +0.113 C 
ATOM     15  N   UNL     1      -0.962   2.297  -0.665  0.00  0.00    -0.289 N 
ATOM     16  C   UNL     1      -0.349   3.142  -1.519  0.00  0.00    +0.240 C 
ATOM     17  O   UNL     1      -1.012   3.865  -2.239  0.00  0.00    -0.271 OA
ENDROOT
BRANCH   9  18
ATOM     18  N   UNL     1      -6.137   2.728   3.735  0.00  0.00    +0.062 N 
ATOM     19  O   UNL     1      -6.497   3.892   3.733  0.00  0.00    -0.126 OA
ATOM     20  O   UNL     1      -6.946   1.841   3.534  0.00  0.00    -0.126 OA
ENDBRANCH   9  18
BRANCH   8  21
ATOM     21  O   UNL     1      -5.099   2.249   6.315  0.00  0.00    -0.493 OA
ATOM     22  C   UNL     1      -4.562   2.005   7.617  0.00  0.00    +0.277 C 
ENDBRANCH   8  21
BRANCH  16  23
ATOM     23  C   UNL     1       1.113   3.188  -1.579  0.00  0.00    +0.068 C 
ATOM     24  C   UNL     1       1.725   3.922  -2.530  0.00  0.00    +0.013 C 
BRANCH  24  25
ATOM     25  C   UNL     1       0.945   4.477  -3.648  0.00  0.00    -0.025 A 
ATOM     26  C   UNL     1       0.056   3.662  -4.357  0.00  0.00    +0.008 A 
ATOM     27  C   UNL     1      -0.676   4.191  -5.399  0.00  0.00    +0.001 A 
ATOM     28  C   UNL     1      -0.524   5.520  -5.752  0.00  0.00    +0.000 A 
ATOM     29  C   UNL     1       0.358   6.331  -5.059  0.00  0.00    +0.001 A 
ATOM     30  C   UNL     1       1.092   5.819  -4.010  0.00  0.00    +0.008 A 
ENDBRANCH  24  25
ENDBRANCH  16  23
TORSDOF 4
