REMARK  Name = ZINC63406192
REMARK  7 active torsions:
REMARK  status: ('A' for Active; 'I' for Inactive)
REMARK    1  A    between atoms: C_1  and  O_2
REMARK    2  A    between atoms: O_2  and  C_3
REMARK    3  A    between atoms: C_10  and  N_13
REMARK    4  A    between atoms: C_14  and  C_16
REMARK    5  A    between atoms: C_16  and  S_17
REMARK    6  A    between atoms: S_17  and  C_18
REMARK    7  A    between atoms: C_24  and  N_28
REMARK                            x       y       z     vdW  Elec       q    Type
REMARK                         _______ _______ _______ _____ _____    ______ ____
ROOT
ATOM      1  N   UNL     1      -5.378  -4.715   1.244  0.00  0.00    -0.288 N 
ATOM      2  C   UNL     1      -5.530  -6.049   1.353  0.00  0.00    +0.225 C 
ATOM      3  O   UNL     1      -5.176  -6.776   0.448  0.00  0.00    -0.275 OA
ATOM      4  H   UNL     1      -5.661  -4.134   1.968  0.00  0.00    +0.151 HD
ENDROOT
BRANCH   1  12
ATOM      5  C   UNL     1      -1.201  -0.638   0.010  0.00  0.00    +0.121 A 
ATOM      6  C   UNL     1      -2.382   0.090   0.019  0.00  0.00    +0.047 A 
ATOM      7  C   UNL     1      -3.604  -0.541   0.028  0.00  0.00    +0.027 A 
ATOM      8  C   UNL     1      -3.701  -1.944   0.028  0.00  0.00    +0.043 A 
ATOM      9  C   UNL     1      -2.495  -2.651   0.017  0.00  0.00    +0.035 A 
ATOM     10  C   UNL     1      -1.269  -2.025   0.003  0.00  0.00    +0.062 A 
ATOM     11  S   UNL     1      -2.962  -4.367   0.019  0.00  0.00    -0.082 S 
ATOM     12  C   UNL     1      -4.785  -4.141   0.033  0.00  0.00    +0.224 C 
ATOM     13  N   UNL     1      -4.890  -2.676   0.035  0.00  0.00    -0.316 N 
ATOM     14  H   UNL     1      -5.753  -2.233   0.043  0.00  0.00    +0.149 HD
BRANCH   5  16
ATOM     15  C   UNL     1      -0.017   1.425   0.010  0.00  0.00    +0.277 C 
ATOM     16  O   UNL     1       0.002  -0.004   0.002  0.00  0.00    -0.495 OA
ENDBRANCH   5  16
ENDBRANCH   1  12
BRANCH   2  17
ATOM     17  C   UNL     1      -6.140  -6.639   2.598  0.00  0.00    +0.168 C 
BRANCH  17  18
ATOM     18  S   UNL     1      -6.208  -8.445   2.441  0.00  0.00    -0.106 S 
BRANCH  18  19
ATOM     19  C   UNL     1      -6.956  -8.994   4.000  0.00  0.00    +0.236 C 
ATOM     20  N   UNL     1      -8.272  -8.366   4.176  0.00  0.00    -0.355 N 
ATOM     21  C   UNL     1      -8.224  -7.657   5.266  0.00  0.00    +0.061 A 
ATOM     22  C   UNL     1      -9.212  -6.815   5.955  0.00  0.00    +0.029 A 
ATOM     23  C   UNL     1      -8.869  -6.187   7.097  0.00  0.00    +0.035 A 
ATOM     24  C   UNL     1      -7.590  -6.301   7.671  0.00  0.00    +0.128 A 
ATOM     25  C   UNL     1      -6.611  -7.047   7.122  0.00  0.00    +0.060 A 
ATOM     26  C   UNL     1      -6.870  -7.778   5.874  0.00  0.00    +0.063 A 
ATOM     27  N   UNL     1      -6.133  -8.558   5.135  0.00  0.00    -0.355 N 
ATOM     28  H   UNL     1      -5.210  -8.805   5.303  0.00  0.00    +0.162 HD
ATOM     29  H   UNL     1      -9.036  -8.461   3.586  0.00  0.00    +0.162 HD
BRANCH  24  30
ATOM     30  N   UNL     1      -7.308  -5.572   8.928  0.00  0.00    +0.056 N 
ATOM     31  O   UNL     1      -8.169  -4.896   9.441  0.00  0.00    -0.126 OA
ATOM     32  O   UNL     1      -6.217  -5.654   9.442  0.00  0.00    -0.126 OA
ENDBRANCH  24  30
ENDBRANCH  18  19
ENDBRANCH  17  18
ENDBRANCH   2  17
TORSDOF 6
