REMARK  Name = ZINC13988927
REMARK  7 active torsions:
REMARK  status: ('A' for Active; 'I' for Inactive)
REMARK    1  A    between atoms: C_1  and  C_2
REMARK    2  A    between atoms: C_2  and  C_3
REMARK    3  A    between atoms: C_2  and  C_4
REMARK    4  A    between atoms: C_7  and  O_11
REMARK    5  A    between atoms: O_11  and  C_12
REMARK    6  A    between atoms: C_12  and  C_13
REMARK    7  A    between atoms: N_15  and  N_16
REMARK                            x       y       z     vdW  Elec       q    Type
REMARK                         _______ _______ _______ _____ _____    ______ ____
ROOT
ATOM      1  N   UNL     1       5.238  -2.728  -0.167  0.00  0.00    -0.217 N 
ATOM      2  C   UNL     1       5.420  -4.029   0.133  0.00  0.00    +0.327 C 
ATOM      3  O   UNL     1       6.533  -4.442   0.399  0.00  0.00    -0.250 OA
ATOM      4  N   UNL     1       4.370  -4.873   0.139  0.00  0.00    -0.221 N 
ATOM      5  C   UNL     1       3.073  -4.348   0.054  0.00  0.00    +0.057 A 
ATOM      6  C   UNL     1       2.754  -3.164   0.700  0.00  0.00    +0.025 A 
ATOM      7  C   UNL     1       1.472  -2.652   0.613  0.00  0.00    +0.002 A 
ATOM      8  C   UNL     1       0.502  -3.313  -0.117  0.00  0.00    +0.001 A 
ATOM      9  C   UNL     1       0.812  -4.500  -0.778  0.00  0.00    +0.017 A 
ATOM     10  C   UNL     1       2.092  -5.014  -0.689  0.00  0.00    +0.035 A 
ATOM     11  S   UNL     1       2.517  -6.523  -1.502  0.00  0.00    -0.086 S 
ATOM     12  C   UNL     1       3.810  -7.153  -0.478  0.00  0.00    +0.035 A 
ATOM     13  C   UNL     1       4.603  -6.251   0.236  0.00  0.00    +0.057 A 
ATOM     14  C   UNL     1       5.622  -6.733   1.041  0.00  0.00    +0.025 A 
ATOM     15  C   UNL     1       5.846  -8.095   1.133  0.00  0.00    +0.002 A 
ATOM     16  C   UNL     1       5.058  -8.984   0.426  0.00  0.00    +0.001 A 
ATOM     17  C   UNL     1       4.037  -8.513  -0.383  0.00  0.00    +0.017 A 
ATOM     18  H   UNL     1       5.931  -2.081   0.038  0.00  0.00    +0.174 HD
ENDROOT
BRANCH   1  21
ATOM     19  C   UNL     1       3.802  -0.995  -0.942  0.00  0.00    +0.267 C 
ATOM     20  O   UNL     1       4.646  -0.177  -0.643  0.00  0.00    -0.271 OA
ATOM     21  N   UNL     1       4.047  -2.309  -0.775  0.00  0.00    -0.230 N 
ATOM     22  H   UNL     1       3.400  -2.966  -1.075  0.00  0.00    +0.173 HD
BRANCH  19  23
ATOM     23  C   UNL     1       2.478  -0.540  -1.502  0.00  0.00    +0.326 C 
BRANCH  23  24
ATOM     24  O   UNL     1       2.415   0.887  -1.477  0.00  0.00    -0.482 OA
BRANCH  24  28
ATOM     25  C   UNL     1      -1.034   2.635  -2.916  0.00  0.00    -0.044 A 
ATOM     26  C   UNL     1      -0.906   1.258  -2.916  0.00  0.00    +0.007 A 
ATOM     27  C   UNL     1       0.246   0.670  -2.429  0.00  0.00    +0.047 A 
ATOM     28  C   UNL     1       1.279   1.463  -1.950  0.00  0.00    +0.135 A 
ATOM     29  C   UNL     1       1.150   2.845  -1.956  0.00  0.00    +0.060 A 
ATOM     30  C   UNL     1      -0.007   3.428  -2.439  0.00  0.00    +0.022 A 
ATOM     31 BR   UNL     1       2.556   3.929  -1.305  0.00  0.00    -0.047 Br
BRANCH  25  33
ATOM     32  C   UNL     1      -2.493   2.877  -4.906  0.00  0.00    +0.012 C 
ATOM     33  C   UNL     1      -2.294   3.273  -3.442  0.00  0.00    +0.013 C 
ATOM     34  C   UNL     1      -3.491   2.794  -2.617  0.00  0.00    +0.012 C 
ENDBRANCH  25  33
ENDBRANCH  24  28
ENDBRANCH  23  24
ENDBRANCH  19  23
ENDBRANCH   1  21
TORSDOF 5
