REMARK  Name = ZINC62038980
REMARK  9 active torsions:
REMARK  status: ('A' for Active; 'I' for Inactive)
REMARK    1  A    between atoms: C_1  and  C_2
REMARK    2  A    between atoms: C_2  and  C_3
REMARK    3  A    between atoms: C_4  and  C_28
REMARK    4  A    between atoms: C_9  and  S_13
REMARK    5  A    between atoms: S_13  and  C_14
REMARK    6  A    between atoms: C_14  and  C_15
REMARK    7  A    between atoms: N_17  and  C_18
REMARK    8  A    between atoms: C_20  and  N_25
REMARK    9  A    between atoms: C_23  and  O_24
REMARK                            x       y       z     vdW  Elec       q    Type
REMARK                         _______ _______ _______ _____ _____    ______ ____
ROOT
ATOM      1  C   UNL     1       0.748  -0.425   1.246  0.00  0.00    +0.000 A 
ATOM      2  C   UNL     1       0.237  -0.731   2.465  0.00  0.00    +0.013 A 
ATOM      3  C   UNL     1       1.143  -1.214   3.502  0.00  0.00    +0.080 A 
ATOM      4  C   UNL     1       0.849  -1.613   4.897  0.00  0.00    +0.283 A 
ATOM      5  O   UNL     1      -0.293  -1.562   5.326  0.00  0.00    -0.265 OA
ATOM      6  N   UNL     1       1.846  -2.031   5.683  0.00  0.00    -0.185 NA
ATOM      7  C   UNL     1       3.091  -2.104   5.263  0.00  0.00    +0.171 A 
ATOM      8  N   UNL     1       3.433  -1.752   3.991  0.00  0.00    -0.328 N 
ATOM      9  C   UNL     1       2.482  -1.315   3.121  0.00  0.00    +0.093 A 
ATOM     10  S   UNL     1       2.485  -0.781   1.431  0.00  0.00    -0.075 S 
ATOM     11  H   UNL     1       4.358  -1.814   3.705  0.00  0.00    +0.168 HD
ENDROOT
BRANCH   2  12
ATOM     12  C   UNL     1      -1.207  -0.578   2.737  0.00  0.00    +0.021 A 
ATOM     13  C   UNL     1      -2.137  -1.540   3.031  0.00  0.00    +0.016 A 
ATOM     14  C   UNL     1      -3.442  -1.154   3.250  0.00  0.00    +0.008 A 
ATOM     15  C   UNL     1      -3.765   0.161   3.168  0.00  0.00    +0.046 A 
ATOM     16  S   UNL     1      -2.193   0.910   2.776  0.00  0.00    -0.097 S 
ENDBRANCH   2  12
BRANCH   1  18
ATOM     17  C   UNL     1       0.008   1.616   0.048  0.00  0.00    +0.009 C 
ATOM     18  C   UNL     1       0.022   0.086   0.029  0.00  0.00    +0.040 C 
ENDBRANCH   1  18
BRANCH   7  19
ATOM     19  S   UNL     1       4.343  -2.666   6.369  0.00  0.00    -0.078 S 
BRANCH  19  20
ATOM     20  C   UNL     1       3.447  -3.011   7.908  0.00  0.00    +0.173 C 
BRANCH  20  21
ATOM     21  C   UNL     1       4.414  -3.506   8.952  0.00  0.00    +0.228 C 
ATOM     22  O   UNL     1       5.592  -3.616   8.684  0.00  0.00    -0.275 OA
ATOM     23  N   UNL     1       3.970  -3.827  10.183  0.00  0.00    -0.282 N 
ATOM     24  H   UNL     1       3.040  -3.679  10.418  0.00  0.00    +0.155 HD
BRANCH  23  25
ATOM     25  C   UNL     1       4.851  -4.376  11.125  0.00  0.00    +0.078 A 
ATOM     26  C   UNL     1       6.178  -3.972  11.153  0.00  0.00    +0.059 A 
ATOM     27  C   UNL     1       7.045  -4.515  12.083  0.00  0.00    +0.128 A 
ATOM     28  C   UNL     1       6.593  -5.459  12.986  0.00  0.00    +0.036 A 
ATOM     29  C   UNL     1       5.272  -5.866  12.963  0.00  0.00    +0.049 A 
ATOM     30  C   UNL     1       4.395  -5.323  12.039  0.00  0.00    +0.138 A 
BRANCH  27  31
ATOM     31  N   UNL     1       8.460  -4.084  12.111  0.00  0.00    +0.056 N 
ATOM     32  O   UNL     1       8.857  -3.258  11.322  0.00  0.00    -0.126 OA
ATOM     33  O   UNL     1       9.220  -4.557  12.924  0.00  0.00    -0.126 OA
ENDBRANCH  27  31
BRANCH  30  34
ATOM     34  O   UNL     1       3.094  -5.718  12.019  0.00  0.00    -0.505 OA
ATOM     35  H   UNL     1       2.922  -6.478  11.447  0.00  0.00    +0.292 HD
ENDBRANCH  30  34
ENDBRANCH  23  25
ENDBRANCH  20  21
ENDBRANCH  19  20
ENDBRANCH   7  19
TORSDOF 8
