REMARK  Name = ZINC09272687
REMARK  7 active torsions:
REMARK  status: ('A' for Active; 'I' for Inactive)
REMARK    1  A    between atoms: C_1  and  N_55
REMARK    2  A    between atoms: C_12  and  C_15
REMARK    3  A    between atoms: C_18  and  O_23
REMARK    4  A    between atoms: C_19  and  O_21
REMARK    5  A    between atoms: O_21  and  C_22
REMARK    6  A    between atoms: O_23  and  C_24
REMARK    7  A    between atoms: C_24  and  C_26
REMARK                            x       y       z     vdW  Elec       q    Type
REMARK                         _______ _______ _______ _____ _____    ______ ____
ROOT
ATOM      1  C   UNL     1      -4.489   1.752   5.026  0.00  0.00    -0.006 A 
ATOM      2  C   UNL     1      -4.166   0.444   5.332  0.00  0.00    +0.011 A 
ATOM      3  C   UNL     1      -5.116  -0.553   5.211  0.00  0.00    +0.050 A 
ATOM      4  C   UNL     1      -6.396  -0.242   4.782  0.00  0.00    +0.173 A 
ATOM      5  C   UNL     1      -6.722   1.076   4.473  0.00  0.00    +0.163 A 
ATOM      6  C   UNL     1      -5.766   2.071   4.602  0.00  0.00    +0.056 A 
ENDROOT
BRANCH   1  18
ATOM      7  C   UNL     1      -0.139   1.448  -2.495  0.00  0.00    -0.096 C 
ATOM      8  C   UNL     1      -1.138   3.159  -1.103  0.00  0.00    -0.074 C 
ATOM      9  C   UNL     1      -2.195   3.386  -0.018  0.00  0.00    +0.018 C 
ATOM     10  C   UNL     1      -1.751   2.649   1.241  0.00  0.00    -0.027 A 
ATOM     11  C   UNL     1      -0.807   1.681   1.161  0.00  0.00    -0.021 A 
ATOM     12  S   UNL     1      -0.599   1.109   2.824  0.00  0.00    -0.080 S 
ATOM     13  C   UNL     1      -1.734   2.129   3.603  0.00  0.00    +0.080 A 
ATOM     14  C   UNL     1      -2.275   2.909   2.569  0.00  0.00    +0.068 A 
ATOM     15  C   UNL     1      -3.303   3.910   2.936  0.00  0.00    +0.248 C 
ATOM     16  O   UNL     1      -3.730   4.708   2.121  0.00  0.00    -0.270 OA
ATOM     17  N   UNL     1      -3.747   3.902   4.210  0.00  0.00    -0.289 N 
ATOM     18  C   UNL     1      -3.450   2.835   5.160  0.00  0.00    +0.190 C 
ATOM     19  N   UNL     1      -2.116   2.257   4.913  0.00  0.00    -0.316 N 
ATOM     20  C   UNL     1      -0.113   1.217  -0.080  0.00  0.00    -0.036 C 
ATOM     21  H   UNL     1      -4.294   4.645   4.511  0.00  0.00    +0.151 HD
ATOM     22  H   UNL     1      -1.538   1.981   5.641  0.00  0.00    +0.149 HD
ATOM     23  N   UNL     1      -0.885   1.711  -1.246  0.00  0.00    +0.381 N 
ATOM     24  H   UNL     1      -1.785   1.217  -1.284  0.00  0.00    -0.082 HD
ENDBRANCH   1  18
BRANCH   5  25
ATOM     25  O   UNL     1      -7.976   1.387   4.051  0.00  0.00    -0.491 OA
ATOM     26  C   UNL     1      -8.239   2.759   3.753  0.00  0.00    +0.277 C 
ENDBRANCH   5  25
BRANCH   4  27
ATOM     27  O   UNL     1      -7.332  -1.221   4.661  0.00  0.00    -0.419 OA
BRANCH  27  28
ATOM     28  C   UNL     1      -7.543  -1.717   3.426  0.00  0.00    +0.346 C 
ATOM     29  O   UNL     1      -6.843  -1.358   2.500  0.00  0.00    -0.244 OA
BRANCH  28  30
ATOM     30  C   UNL     1      -8.624  -2.695   3.199  0.00  0.00    +0.078 A 
ATOM     31  C   UNL     1      -9.431  -3.109   4.261  0.00  0.00    +0.018 A 
ATOM     32  C   UNL     1     -10.439  -4.022   4.043  0.00  0.00    +0.021 A 
ATOM     33  C   UNL     1     -10.655  -4.531   2.771  0.00  0.00    +0.042 A 
ATOM     34  C   UNL     1      -9.860  -4.126   1.713  0.00  0.00    +0.040 A 
ATOM     35  C   UNL     1      -8.850  -3.206   1.917  0.00  0.00    +0.056 A 
ATOM     36 CL   UNL     1      -7.858  -2.693   0.588  0.00  0.00    -0.083 Cl
ATOM     37 CL   UNL     1     -11.927  -5.681   2.505  0.00  0.00    -0.083 Cl
ENDBRANCH  28  30
ENDBRANCH  27  28
ENDBRANCH   4  27
TORSDOF 5
