REMARK  Name = ZINC04322408
REMARK  5 active torsions:
REMARK  status: ('A' for Active; 'I' for Inactive)
REMARK    1  A    between atoms: C_6  and  C_7
REMARK    2  A    between atoms: N_8  and  N_9
REMARK    3  A    between atoms: N_9  and  C_10
REMARK    4  A    between atoms: C_10  and  N_12
REMARK    5  A    between atoms: N_12  and  C_13
REMARK                            x       y       z     vdW  Elec       q    Type
REMARK                         _______ _______ _______ _____ _____    ______ ____
ROOT
ATOM      1  C   UNL     1      -6.011   1.597   0.039  0.00  0.00    +0.150 C 
ATOM      2  S   UNL     1      -7.485   0.727   0.041  0.00  0.00    -0.017 S 
ENDROOT
BRANCH   1   3
ATOM      3  N   UNL     1      -4.837   0.935   0.030  0.00  0.00    -0.218 N 
ATOM      4  H   UNL     1      -4.828  -0.035   0.025  0.00  0.00    +0.176 HD
BRANCH   3   6
ATOM      5  C   UNL     1      -2.501   1.010   0.019  0.00  0.00    +0.138 C 
ATOM      6  N   UNL     1      -3.631   1.647   0.028  0.00  0.00    -0.188 NA
BRANCH   5  12
ATOM      7  C   UNL     1      -1.241   3.156   0.030  0.00  0.00    +0.011 A 
ATOM      8  C   UNL     1      -0.050   3.852   0.023  0.00  0.00    +0.022 A 
ATOM      9  C   UNL     1       1.154   3.170   0.008  0.00  0.00    +0.059 A 
ATOM     10  C   UNL     1       1.172   1.784   0.000  0.00  0.00    +0.060 A 
ATOM     11  C   UNL     1      -0.013   1.076   0.008  0.00  0.00    +0.031 A 
ATOM     12  C   UNL     1      -1.231   1.760   0.017  0.00  0.00    -0.004 A 
ATOM     13 CL   UNL     1       2.687   0.937  -0.018  0.00  0.00    -0.082 Cl
ATOM     14 CL   UNL     1       2.648   4.053  -0.001  0.00  0.00    -0.082 Cl
ENDBRANCH   5  12
ENDBRANCH   3   6
ENDBRANCH   1   3
BRANCH   1  15
ATOM     15  N   UNL     1      -6.024   2.945   0.046  0.00  0.00    -0.322 N 
ATOM     16  H   UNL     1      -5.189   3.438   0.045  0.00  0.00    +0.148 HD
BRANCH  15  17
ATOM     17  C   UNL     1      -7.300   3.665   0.056  0.00  0.00    +0.076 C 
ATOM     18  C   UNL     1      -7.792   3.858   1.516  0.00  0.00    +0.026 C 
ATOM     19  C   UNL     1      -8.084   5.413   1.582  0.00  0.00    -0.005 C 
ATOM     20  C   UNL     1      -6.782   5.870   0.811  0.00  0.00    +0.009 C 
ATOM     21  C   UNL     1      -7.114   5.083  -0.531  0.00  0.00    +0.017 C 
ATOM     22  C   UNL     1      -8.390   5.780  -0.779  0.00  0.00    +0.020 C 
ATOM     23  C   UNL     1      -9.209   5.521   0.548  0.00  0.00    +0.003 C 
ATOM     24  C   UNL     1     -10.131   6.718   0.413  0.00  0.00    +0.031 C 
ATOM     25  C   UNL     1     -10.457   6.652  -1.093  0.00  0.00    -0.030 C 
ATOM     26  C   UNL     1      -9.423   6.092  -1.748  0.00  0.00    -0.027 C 
ENDBRANCH  15  17
ENDBRANCH   1  15
TORSDOF 5
