REMARK  Name = ZINC20982828
REMARK  5 active torsions:
REMARK  status: ('A' for Active; 'I' for Inactive)
REMARK    1  A    between atoms: C_4  and  C_7
REMARK    2  A    between atoms: C_10  and  S_13
REMARK    3  A    between atoms: S_13  and  C_14
REMARK    4  A    between atoms: C_14  and  C_15
REMARK    5  A    between atoms: C_23  and  C_25
REMARK                            x       y       z     vdW  Elec       q    Type
REMARK                         _______ _______ _______ _____ _____    ______ ____
ROOT
ATOM      1  C   UNL     1      -0.728   2.292   1.252  0.00  0.00    +0.060 A 
ATOM      2  C   UNL     1      -0.012   2.819   2.305  0.00  0.00    +0.096 A 
ATOM      3  C   UNL     1      -0.683   3.264   3.445  0.00  0.00    +0.275 A 
ATOM      4  O   UNL     1      -0.054   3.732   4.381  0.00  0.00    -0.266 OA
ATOM      5  N   UNL     1      -2.044   3.174   3.511  0.00  0.00    -0.171 N 
ATOM      6  C   UNL     1      -2.675   2.639   2.422  0.00  0.00    +0.199 A 
ATOM      7  N   UNL     1      -2.053   2.224   1.347  0.00  0.00    -0.225 NA
ATOM      8  S   UNL     1      -4.389   2.698   2.897  0.00  0.00    -0.027 S 
ATOM      9  C   UNL     1      -4.162   3.430   4.510  0.00  0.00    +0.139 A 
ATOM     10  N   UNL     1      -2.861   3.569   4.567  0.00  0.00    -0.154 NA
ENDROOT
BRANCH   9  11
ATOM     11  C   UNL     1      -5.176   3.785   5.516  0.00  0.00    +0.046 A 
ATOM     12  C   UNL     1      -6.540   3.645   5.456  0.00  0.00    +0.018 A 
ATOM     13  C   UNL     1      -7.293   4.049   6.534  0.00  0.00    +0.008 A 
ATOM     14  C   UNL     1      -6.669   4.582   7.617  0.00  0.00    +0.046 A 
ATOM     15  S   UNL     1      -4.953   4.516   7.129  0.00  0.00    -0.095 S 
ENDBRANCH   9  11
BRANCH   1  16
ATOM     16  C   UNL     1      -0.022   1.806   0.012  0.00  0.00    +0.133 C 
BRANCH  16  17
ATOM     17  S   UNL     1       0.002  -0.004   0.002  0.00  0.00    -0.080 S 
BRANCH  17  21
ATOM     18  C   UNL     1       1.835  -1.235  -3.221  0.00  0.00    +0.182 A 
ATOM     19  N   UNL     1       1.179  -1.506  -2.043  0.00  0.00    -0.201 NA
ATOM     20  H   UNL     1       1.259   1.724  -2.269  0.00  0.00    +0.191 HD
ATOM     21  C   UNL     1       0.859  -0.290  -1.510  0.00  0.00    +0.185 A 
ATOM     22  N   UNL     1       1.310   0.627  -2.337  0.00  0.00    -0.253 N 
ATOM     23  N   UNL     1       1.881   0.071  -3.345  0.00  0.00    -0.152 NA
BRANCH  18  27
ATOM     24  C   UNL     1       3.414  -4.085  -5.946  0.00  0.00    +0.000 A 
ATOM     25  C   UNL     1       3.548  -2.733  -6.209  0.00  0.00    +0.001 A 
ATOM     26  C   UNL     1       3.038  -1.802  -5.328  0.00  0.00    +0.011 A 
ATOM     27  C   UNL     1       2.385  -2.227  -4.170  0.00  0.00    +0.021 A 
ATOM     28  C   UNL     1       2.257  -3.592  -3.908  0.00  0.00    +0.011 A 
ATOM     29  C   UNL     1       2.768  -4.513  -4.800  0.00  0.00    +0.001 A 
ENDBRANCH  18  27
ENDBRANCH  17  21
ENDBRANCH  16  17
ENDBRANCH   1  16
TORSDOF 5
