REMARK  Name = ZINC21338581
REMARK  9 active torsions:
REMARK  status: ('A' for Active; 'I' for Inactive)
REMARK    1  A    between atoms: C_1  and  C_2
REMARK    2  A    between atoms: C_5  and  N_8
REMARK    3  A    between atoms: C_9  and  N_14
REMARK    4  A    between atoms: C_11  and  C_13
REMARK    5  A    between atoms: C_15  and  C_17
REMARK    6  A    between atoms: C_17  and  S_18
REMARK    7  A    between atoms: S_18  and  C_19
REMARK    8  A    between atoms: C_22  and  C_30
REMARK    9  A    between atoms: N_23  and  C_24
REMARK                            x       y       z     vdW  Elec       q    Type
REMARK                         _______ _______ _______ _____ _____    ______ ____
ROOT
ATOM      1  C   UNL     1       2.860  -4.989   3.955  0.00  0.00    +0.173 C 
ENDROOT
BRANCH   1   3
ATOM      2  N   UNL     1       1.458  -4.544   1.966  0.00  0.00    -0.270 N 
ATOM      3  C   UNL     1       2.041  -5.449   2.776  0.00  0.00    +0.229 C 
ATOM      4  O   UNL     1       1.908  -6.635   2.557  0.00  0.00    -0.275 OA
ATOM      5  H   UNL     1       1.565  -3.596   2.142  0.00  0.00    +0.156 HD
BRANCH   2   7
ATOM      6  N   UNL     1       0.059  -4.172  -0.021  0.00  0.00    -0.218 N 
ATOM      7  C   UNL     1       0.701  -4.970   0.875  0.00  0.00    +0.129 A 
ATOM      8  C   UNL     1       0.469  -6.261   0.511  0.00  0.00    +0.068 A 
ATOM      9  C   UNL     1      -0.333  -6.247  -0.633  0.00  0.00    +0.062 A 
ATOM     10  N   UNL     1      -0.583  -5.001  -0.949  0.00  0.00    -0.170 NA
ATOM     11  C   UNL     1      -0.831  -7.460  -1.375  0.00  0.00    +0.067 C 
BRANCH   6  16
ATOM     12  C   UNL     1      -0.018   1.503   0.010  0.00  0.00    +0.044 C 
ATOM     13  C   UNL     1       0.002  -0.004   0.002  0.00  0.00    -0.050 A 
ATOM     14  C   UNL     1       0.006  -0.688  -1.200  0.00  0.00    +0.005 A 
ATOM     15  C   UNL     1       0.025  -2.068  -1.211  0.00  0.00    +0.028 A 
ATOM     16  C   UNL     1       0.041  -2.771  -0.013  0.00  0.00    +0.067 A 
ATOM     17  C   UNL     1       0.037  -2.082   1.192  0.00  0.00    +0.028 A 
ATOM     18  C   UNL     1       0.023  -0.700   1.196  0.00  0.00    +0.005 A 
ENDBRANCH   6  16
ENDBRANCH   2   7
ENDBRANCH   1   3
BRANCH   1  19
ATOM     19  S   UNL     1       3.506  -6.433   4.843  0.00  0.00    -0.077 S 
BRANCH  19  20
ATOM     20  C   UNL     1       4.427  -5.737   6.174  0.00  0.00    +0.193 A 
ATOM     21  N   UNL     1       4.579  -4.457   6.432  0.00  0.00    -0.122 NA
ATOM     22  N   UNL     1       5.311  -4.299   7.476  0.00  0.00    -0.125 NA
ATOM     23  C   UNL     1       5.673  -5.470   7.952  0.00  0.00    +0.201 A 
ATOM     24  N   UNL     1       5.112  -6.428   7.135  0.00  0.00    -0.297 N 
BRANCH  24  25
ATOM     25  C   UNL     1       5.229  -7.882   7.265  0.00  0.00    +0.091 C 
ATOM     26  C   UNL     1       3.836  -8.492   7.440  0.00  0.00    +0.025 C 
ATOM     27  C   UNL     1       3.958 -10.011   7.576  0.00  0.00    +0.002 C 
ATOM     28  C   UNL     1       4.612 -10.585   6.318  0.00  0.00    +0.000 C 
ATOM     29  C   UNL     1       6.004  -9.975   6.144  0.00  0.00    +0.002 C 
ATOM     30  C   UNL     1       5.883  -8.456   6.007  0.00  0.00    +0.025 C 
ENDBRANCH  24  25
BRANCH  23  31
ATOM     31  C   UNL     1       6.511  -5.713   9.136  0.00  0.00    +0.172 A 
ATOM     32  C   UNL     1       6.814  -4.801  10.102  0.00  0.00    +0.053 A 
ATOM     33  C   UNL     1       7.636  -5.460  11.037  0.00  0.00    +0.042 A 
ATOM     34  C   UNL     1       7.794  -6.726  10.602  0.00  0.00    +0.196 A 
ATOM     35  O   UNL     1       7.110  -6.877   9.457  0.00  0.00    -0.460 OA
ENDBRANCH  23  31
ENDBRANCH  19  20
ENDBRANCH   1  19
TORSDOF 7
