REMARK  Name = ZINC61719153
REMARK  4 active torsions:
REMARK  status: ('A' for Active; 'I' for Inactive)
REMARK    1  A    between atoms: C_1  and  N_2
REMARK    2  A    between atoms: C_8  and  C_14
REMARK    3  A    between atoms: C_19  and  O_20
REMARK    4  A    between atoms: O_20  and  C_21
REMARK                            x       y       z     vdW  Elec       q    Type
REMARK                         _______ _______ _______ _____ _____    ______ ____
ROOT
ATOM      1  C   UNL     1       0.472   2.001  -1.294  0.00  0.00    +0.127 C 
ATOM      2  N   UNL     1       0.415   0.560  -1.038  0.00  0.00    -0.326 N 
ATOM      3  C   UNL     1       0.941  -0.329  -1.962  0.00  0.00    +0.160 A 
ATOM      4  N   UNL     1       1.529  -0.062  -3.111  0.00  0.00    -0.210 NA
ATOM      5  C   UNL     1       1.986  -1.026  -3.901  0.00  0.00    +0.138 A 
ATOM      6  C   UNL     1       1.806  -2.293  -3.425  0.00  0.00    +0.041 A 
ATOM      7  S   UNL     1       0.989  -2.013  -1.884  0.00  0.00    -0.055 S 
ATOM      8  C   UNL     1       2.234  -3.551  -4.098  0.00  0.00    +0.071 C 
ATOM      9  C   UNL     1       2.265  -3.296  -5.612  0.00  0.00    +0.109 C 
ATOM     10  C   UNL     1       2.860  -1.949  -5.911  0.00  0.00    +0.219 C 
ATOM     11  O   UNL     1       3.574  -1.837  -6.885  0.00  0.00    -0.275 OA
ATOM     12  N   UNL     1       2.639  -0.862  -5.150  0.00  0.00    -0.270 N 
ATOM     13  H   UNL     1       0.009   0.228  -0.222  0.00  0.00    +0.148 HD
ATOM     14  H   UNL     1       2.920   0.017  -5.450  0.00  0.00    +0.156 HD
ENDROOT
BRANCH   8  15
ATOM     15  C   UNL     1       1.254  -4.653  -3.787  0.00  0.00    +0.003 A 
ATOM     16  C   UNL     1      -0.072  -4.523  -4.153  0.00  0.00    +0.008 A 
ATOM     17  C   UNL     1      -0.971  -5.534  -3.867  0.00  0.00    +0.001 A 
ATOM     18  C   UNL     1      -0.546  -6.677  -3.215  0.00  0.00    +0.004 A 
ATOM     19  C   UNL     1       0.779  -6.811  -2.847  0.00  0.00    +0.046 A 
ATOM     20  C   UNL     1       1.684  -5.801  -3.138  0.00  0.00    +0.125 A 
BRANCH  20  21
ATOM     21  O   UNL     1       2.989  -5.933  -2.782  0.00  0.00    -0.489 OA
BRANCH  21  22
ATOM     22  C   UNL     1       3.385  -7.187  -2.223  0.00  0.00    +0.173 C 
ATOM     23  C   UNL     1       3.149  -7.184  -0.698  0.00  0.00    +0.044 C 
ATOM     24  C   UNL     1       4.348  -7.980  -0.127  0.00  0.00    +0.004 C 
ATOM     25  C   UNL     1       5.522  -7.527  -1.030  0.00  0.00    +0.004 C 
ATOM     26  C   UNL     1       4.894  -7.405  -2.434  0.00  0.00    +0.044 C 
ENDBRANCH  21  22
ENDBRANCH  20  21
ENDBRANCH   8  15
TORSDOF 3
