REMARK  Name = ZINC32759936
REMARK  9 active torsions:
REMARK  status: ('A' for Active; 'I' for Inactive)
REMARK    1  A    between atoms: C_1  and  C_2
REMARK    2  A    between atoms: C_2  and  C_3
REMARK    3  A    between atoms: C_3  and  C_4
REMARK    4  A    between atoms: C_4  and  N_5
REMARK    5  A    between atoms: C_6  and  N_35
REMARK    6  A    between atoms: C_7  and  N_14
REMARK    7  A    between atoms: N_14  and  C_15
REMARK    8  A    between atoms: C_15  and  C_16
REMARK    9  A    between atoms: C_22  and  C_24
REMARK                            x       y       z     vdW  Elec       q    Type
REMARK                         _______ _______ _______ _____ _____    ______ ____
ROOT
ATOM      1  N   UNL     1      -0.159   5.647  -1.272  0.00  0.00    -0.259 N 
ATOM      2  C   UNL     1      -1.351   5.830  -1.877  0.00  0.00    +0.228 C 
ATOM      3  O   UNL     1      -2.364   5.898  -1.213  0.00  0.00    -0.275 OA
ENDROOT
BRANCH   2   4
ATOM      4  C   UNL     1      -1.424   5.951  -3.377  0.00  0.00    +0.106 C 
ATOM      5  C   UNL     1      -2.115   7.262  -3.744  0.00  0.00    +0.018 C 
ATOM      6  C   UNL     1      -2.373   7.266  -5.256  0.00  0.00    +0.006 C 
ATOM      7  C   UNL     1      -3.458   6.235  -5.562  0.00  0.00    +0.035 C 
ATOM      8  C   UNL     1      -3.118   4.907  -4.939  0.00  0.00    -0.043 A 
ATOM      9  C   UNL     1      -2.186   4.776  -3.933  0.00  0.00    -0.032 A 
ATOM     10  C   UNL     1      -1.924   3.523  -3.397  0.00  0.00    +0.004 A 
ATOM     11  C   UNL     1      -2.586   2.407  -3.866  0.00  0.00    +0.000 A 
ATOM     12  C   UNL     1      -3.518   2.537  -4.878  0.00  0.00    +0.000 A 
ATOM     13  C   UNL     1      -3.781   3.782  -5.412  0.00  0.00    +0.004 A 
ENDBRANCH   2   4
BRANCH   1  16
ATOM     14  N   UNL     1       2.937   4.593  -2.948  0.00  0.00    -0.280 N 
ATOM     15  C   UNL     1       1.783   4.533  -2.202  0.00  0.00    +0.127 A 
ATOM     16  C   UNL     1       1.030   5.677  -2.032  0.00  0.00    +0.140 A 
ATOM     17  C   UNL     1       1.465   6.872  -2.634  0.00  0.00    +0.277 A 
ATOM     18  O   UNL     1       0.816   7.896  -2.504  0.00  0.00    -0.266 OA
ATOM     19  N   UNL     1       2.606   6.878  -3.351  0.00  0.00    -0.273 N 
ATOM     20  H   UNL     1       2.957   7.811  -3.817  0.00  0.00    +0.173 HD
ATOM     21  C   UNL     1       3.327   5.754  -3.506  0.00  0.00    +0.331 A 
ATOM     22  O   UNL     1       4.350   5.786  -4.162  0.00  0.00    -0.246 OA
BRANCH  15  23
ATOM     23  N   UNL     1       1.385   3.347  -1.632  0.00  0.00    -0.343 N 
ATOM     24  H   UNL     1       0.461   3.306  -1.036  0.00  0.00    +0.144 HD
ATOM     25  H   UNL     1       1.990   2.439  -1.771  0.00  0.00    +0.144 HD
ENDBRANCH  15  23
BRANCH  14  26
ATOM     26  C   UNL     1       3.746   3.387  -3.136  0.00  0.00    +0.128 C 
BRANCH  26  27
ATOM     27  C   UNL     1       3.275   2.648  -4.391  0.00  0.00    +0.021 C 
BRANCH  27  29
ATOM     28  C   UNL     1       3.650   0.649  -5.843  0.00  0.00    +0.004 C 
ATOM     29  C   UNL     1       4.120   1.388  -4.588  0.00  0.00    -0.002 C 
ENDBRANCH  27  29
ENDBRANCH  26  27
ENDBRANCH  14  26
ENDBRANCH   1  16
BRANCH   1  30
ATOM     30  C   UNL     1      -0.098   5.418   0.174  0.00  0.00    +0.149 C 
BRANCH  30  31
ATOM     31  C   UNL     1      -0.088   6.742   0.893  0.00  0.00    -0.030 A 
ATOM     32  C   UNL     1      -1.279   7.378   1.187  0.00  0.00    +0.005 A 
ATOM     33  C   UNL     1      -1.270   8.593   1.847  0.00  0.00    +0.000 A 
ATOM     34  C   UNL     1      -0.069   9.171   2.212  0.00  0.00    +0.000 A 
ATOM     35  C   UNL     1       1.123   8.538   1.913  0.00  0.00    +0.000 A 
ATOM     36  C   UNL     1       1.113   7.321   1.258  0.00  0.00    +0.005 A 
ENDBRANCH  30  31
ENDBRANCH   1  30
TORSDOF 8
