REMARK  Name = ZINC27470539
REMARK  11 active torsions:
REMARK  status: ('A' for Active; 'I' for Inactive)
REMARK    1  A    between atoms: C_1  and  N_2
REMARK    2  A    between atoms: N_2  and  C_3
REMARK    3  A    between atoms: N_2  and  C_4
REMARK    4  A    between atoms: C_7  and  C_10
REMARK    5  A    between atoms: N_11  and  C_12
REMARK    6  A    between atoms: C_15  and  C_18
REMARK    7  A    between atoms: C_23  and  N_27
REMARK    8  A    between atoms: C_28  and  C_29
REMARK    9  A    between atoms: C_32  and  N_35
REMARK   10  A    between atoms: N_35  and  C_36
REMARK   11  A    between atoms: N_35  and  C_37
REMARK                            x       y       z     vdW  Elec       q    Type
REMARK                         _______ _______ _______ _____ _____    ______ ____
ROOT
ATOM      1  C   UNL     1     -10.790  -5.117   0.067  0.00  0.00    +0.139 A 
ATOM      2  N   UNL     1     -11.051  -6.159  -0.684  0.00  0.00    -0.228 NA
ATOM      3  C   UNL     1     -12.297  -6.607  -0.427  0.00  0.00    +0.090 A 
ATOM      4  C   UNL     1     -13.059  -7.667  -0.938  0.00  0.00    +0.032 A 
ATOM      5  C   UNL     1     -14.322  -7.884  -0.478  0.00  0.00    +0.030 A 
ATOM      6  C   UNL     1     -14.874  -7.053   0.508  0.00  0.00    +0.066 A 
ATOM      7  C   UNL     1     -14.130  -5.994   1.027  0.00  0.00    +0.055 A 
ATOM      8  C   UNL     1     -12.845  -5.769   0.563  0.00  0.00    +0.068 A 
ATOM      9  N   UNL     1     -11.869  -4.838   0.863  0.00  0.00    -0.338 N 
ATOM     10  H   UNL     1     -11.936  -4.121   1.513  0.00  0.00    +0.167 HD
ENDROOT
BRANCH   1  14
ATOM     11  C   UNL     1      -7.146  -2.946   0.047  0.00  0.00    +0.064 A 
ATOM     12  C   UNL     1      -7.312  -4.042  -0.807  0.00  0.00    +0.028 A 
ATOM     13  C   UNL     1      -8.486  -4.741  -0.800  0.00  0.00    +0.013 A 
ATOM     14  C   UNL     1      -9.521  -4.361   0.060  0.00  0.00    +0.017 A 
ATOM     15  C   UNL     1      -9.355  -3.266   0.913  0.00  0.00    +0.013 A 
ATOM     16  C   UNL     1      -8.180  -2.570   0.911  0.00  0.00    +0.028 A 
BRANCH  11  18
ATOM     17  C   UNL     1      -4.833  -2.884   0.031  0.00  0.00    +0.119 C 
ATOM     18  N   UNL     1      -5.972  -2.247   0.040  0.00  0.00    -0.255 NA
BRANCH  17  22
ATOM     19  C   UNL     1      -1.194  -0.716   0.010  0.00  0.00    +0.029 A 
ATOM     20  C   UNL     1      -1.172  -2.108   0.008  0.00  0.00    +0.024 A 
ATOM     21  C   UNL     1      -2.348  -2.814   0.015  0.00  0.00    +0.011 A 
ATOM     22  C   UNL     1      -3.571  -2.132   0.024  0.00  0.00    -0.007 A 
ATOM     23  C   UNL     1      -3.588  -0.732   0.027  0.00  0.00    +0.011 A 
ATOM     24  C   UNL     1      -2.407  -0.035   0.025  0.00  0.00    +0.024 A 
BRANCH  19  26
ATOM     25  C   UNL     1      -0.018   1.461   0.010  0.00  0.00    +0.129 C 
ATOM     26  N   UNL     1       0.002  -0.004   0.002  0.00  0.00    -0.336 N 
ATOM     27  C   UNL     1       1.281  -0.719  -0.014  0.00  0.00    +0.129 C 
ENDBRANCH  19  26
ENDBRANCH  17  22
ENDBRANCH  11  18
ENDBRANCH   1  14
BRANCH   6  28
ATOM     28  N   UNL     1     -16.144  -7.281   0.961  0.00  0.00    -0.255 NA
ATOM     29  C   UNL     1     -17.103  -7.531   0.113  0.00  0.00    +0.119 C 
BRANCH  29  30
ATOM     30  C   UNL     1     -18.469  -7.777   0.599  0.00  0.00    -0.007 A 
ATOM     31  C   UNL     1     -18.742  -7.737   1.971  0.00  0.00    +0.011 A 
ATOM     32  C   UNL     1     -20.022  -7.967   2.422  0.00  0.00    +0.024 A 
ATOM     33  C   UNL     1     -21.043  -8.239   1.516  0.00  0.00    +0.029 A 
ATOM     34  C   UNL     1     -20.775  -8.280   0.151  0.00  0.00    +0.024 A 
ATOM     35  C   UNL     1     -19.499  -8.045  -0.309  0.00  0.00    +0.011 A 
BRANCH  33  36
ATOM     36  N   UNL     1     -22.336  -8.472   1.977  0.00  0.00    -0.336 N 
ATOM     37  C   UNL     1     -22.621  -8.430   3.414  0.00  0.00    +0.129 C 
ATOM     38  C   UNL     1     -23.412  -8.758   1.025  0.00  0.00    +0.129 C 
ENDBRANCH  33  36
ENDBRANCH  29  30
ENDBRANCH   6  28
TORSDOF 7
