REMARK  Name = ZINC09086176
REMARK  10 active torsions:
REMARK  status: ('A' for Active; 'I' for Inactive)
REMARK    1  A    between atoms: C_1  and  C_2
REMARK    2  A    between atoms: C_5  and  S_8
REMARK    3  A    between atoms: S_8  and  C_9
REMARK    4  A    between atoms: C_9  and  C_10
REMARK    5  A    between atoms: C_17  and  N_33
REMARK    6  A    between atoms: C_18  and  C_31
REMARK    7  A    between atoms: C_19  and  C_21
REMARK    8  A    between atoms: C_24  and  C_27
REMARK    9  A    between atoms: C_27  and  O_29
REMARK   10  A    between atoms: O_29  and  C_30
REMARK                            x       y       z     vdW  Elec       q    Type
REMARK                         _______ _______ _______ _____ _____    ______ ____
ROOT
ATOM      1  C   UNL     1       0.097  -6.482   1.870  0.00  0.00    +0.081 A 
ATOM      2  C   UNL     1      -1.016  -7.309   1.944  0.00  0.00    +0.050 A 
ATOM      3  C   UNL     1      -0.579  -8.599   2.061  0.00  0.00    +0.223 A 
ATOM      4  N   UNL     1       0.764  -8.573   2.059  0.00  0.00    -0.246 N 
ATOM      5  H   UNL     1       1.350  -9.343   2.129  0.00  0.00    +0.192 HD
ATOM      6  N   UNL     1       1.169  -7.235   1.933  0.00  0.00    -0.175 NA
ATOM      7  O   UNL     1      -1.426  -9.653   2.159  0.00  0.00    -0.423 OA
ATOM      8  C   UNL     1      -2.724  -9.390   2.414  0.00  0.00    +0.200 C 
ATOM      9  C   UNL     1      -3.274  -8.160   2.320  0.00  0.00    +0.098 C 
ATOM     10  C   UNL     1      -2.478  -6.946   1.908  0.00  0.00    +0.101 C 
ENDROOT
BRANCH  10  11
ATOM     11  C   UNL     1      -2.865  -6.532   0.511  0.00  0.00    -0.035 A 
ATOM     12  C   UNL     1      -2.723  -7.425  -0.536  0.00  0.00    +0.005 A 
ATOM     13  C   UNL     1      -3.076  -7.053  -1.817  0.00  0.00    +0.015 A 
ATOM     14  C   UNL     1      -3.577  -5.771  -2.055  0.00  0.00    +0.059 A 
ATOM     15  C   UNL     1      -3.718  -4.875  -0.993  0.00  0.00    +0.015 A 
ATOM     16  C   UNL     1      -3.367  -5.263   0.283  0.00  0.00    +0.005 A 
BRANCH  14  17
ATOM     17  C   UNL     1      -3.956  -5.365  -3.424  0.00  0.00    +0.339 C 
ATOM     18  O   UNL     1      -3.832  -6.147  -4.345  0.00  0.00    -0.245 OA
BRANCH  17  19
ATOM     19  O   UNL     1      -4.439  -4.129  -3.650  0.00  0.00    -0.464 OA
ATOM     20  C   UNL     1      -4.785  -3.804  -4.997  0.00  0.00    +0.280 C 
ENDBRANCH  17  19
ENDBRANCH  14  17
ENDBRANCH  10  11
BRANCH   8  21
ATOM     21  N   UNL     1      -3.532 -10.433   2.792  0.00  0.00    -0.328 N 
ATOM     22  H   UNL     1      -3.166 -11.328   2.869  0.00  0.00    +0.145 HD
ATOM     23  H   UNL     1      -4.470 -10.275   2.982  0.00  0.00    +0.145 HD
ENDBRANCH   8  21
BRANCH   9  24
ATOM     24  C   UNL     1      -4.665  -8.002   2.621  0.00  0.00    +0.101 C 
ATOM     25  N   UNL     1      -5.769  -7.877   2.860  0.00  0.00    -0.191 NA
ENDBRANCH   9  24
BRANCH   1  26
ATOM     26  C   UNL     1       0.077  -4.981   1.735  0.00  0.00    +0.132 C 
BRANCH  26  27
ATOM     27  S   UNL     1       0.062  -4.533  -0.023  0.00  0.00    -0.119 S 
BRANCH  27  32
ATOM     28  C   UNL     1      -0.018   1.503   0.010  0.00  0.00    +0.044 C 
ATOM     29  C   UNL     1       0.002  -0.004   0.002  0.00  0.00    -0.050 A 
ATOM     30  C   UNL     1       0.006  -0.687  -1.200  0.00  0.00    +0.004 A 
ATOM     31  C   UNL     1       0.024  -2.068  -1.212  0.00  0.00    +0.015 A 
ATOM     32  C   UNL     1       0.039  -2.771  -0.013  0.00  0.00    +0.008 A 
ATOM     33  C   UNL     1       0.036  -2.081   1.193  0.00  0.00    +0.015 A 
ATOM     34  C   UNL     1       0.023  -0.700   1.197  0.00  0.00    +0.004 A 
ENDBRANCH  27  32
ENDBRANCH  26  27
ENDBRANCH   1  26
TORSDOF 8
