REMARK  Name = ZINC09486135
REMARK  8 active torsions:
REMARK  status: ('A' for Active; 'I' for Inactive)
REMARK    1  A    between atoms: C_1  and  C_2
REMARK    2  A    between atoms: C_8  and  N_10
REMARK    3  A    between atoms: C_11  and  C_13
REMARK    4  A    between atoms: C_13  and  C_14
REMARK    5  A    between atoms: C_14  and  C_15
REMARK    6  A    between atoms: N_19  and  C_23
REMARK    7  A    between atoms: C_23  and  C_24
REMARK    8  A    between atoms: C_24  and  C_25
REMARK                            x       y       z     vdW  Elec       q    Type
REMARK                         _______ _______ _______ _____ _____    ______ ____
ROOT
ATOM      1  C   UNL     1       3.957  -4.141  -1.434  0.00  0.00    +0.161 C 
ATOM      2  C   UNL     1       2.986  -2.978  -1.377  0.00  0.00    +0.243 C 
ATOM      3  O   UNL     1       1.780  -3.036  -1.266  0.00  0.00    -0.273 OA
ATOM      4  N   UNL     1       3.742  -1.867  -1.476  0.00  0.00    -0.224 N 
ATOM      5  C   UNL     1       5.042  -2.163  -1.591  0.00  0.00    +0.309 C 
ATOM      6  O   UNL     1       5.918  -1.327  -1.699  0.00  0.00    -0.252 OA
ATOM      7  N   UNL     1       5.271  -3.488  -1.571  0.00  0.00    -0.288 N 
ATOM      8  H   UNL     1       6.133  -3.929  -1.638  0.00  0.00    +0.151 HD
ENDROOT
BRANCH   1   9
ATOM      9  C   UNL     1       3.892  -4.960  -0.143  0.00  0.00    +0.041 C 
BRANCH   9  10
ATOM     10  C   UNL     1       4.787  -6.194  -0.277  0.00  0.00    +0.098 C 
BRANCH  10  12
ATOM     11  N   UNL     1       5.435  -8.139   1.107  0.00  0.00    -0.312 N 
ATOM     12  C   UNL     1       4.722  -7.001   0.994  0.00  0.00    +0.213 C 
ATOM     13  O   UNL     1       4.028  -6.626   1.916  0.00  0.00    -0.276 OA
ATOM     14  H   UNL     1       5.990  -8.439   0.370  0.00  0.00    +0.149 HD
BRANCH  11  21
ATOM     15  C   UNL     1       7.861  -8.815   2.538  0.00  0.00    +0.009 C 
ATOM     16  C   UNL     1       6.651  -9.751   2.487  0.00  0.00    +0.006 C 
ATOM     17  C   UNL     1       6.786 -10.694   1.290  0.00  0.00    +0.005 C 
ATOM     18  C   UNL     1       5.577 -11.630   1.239  0.00  0.00    +0.000 C 
ATOM     19  C   UNL     1       4.298 -10.803   1.094  0.00  0.00    +0.002 C 
ATOM     20  C   UNL     1       4.163  -9.860   2.291  0.00  0.00    +0.022 C 
ATOM     21  C   UNL     1       5.372  -8.924   2.342  0.00  0.00    +0.076 C 
ENDBRANCH  11  21
ENDBRANCH  10  12
ENDBRANCH   9  10
ENDBRANCH   1   9
BRANCH   4  22
ATOM     22  C   UNL     1       3.207  -0.503  -1.465  0.00  0.00    +0.123 C 
BRANCH  22  23
ATOM     23  C   UNL     1       3.150   0.011  -0.025  0.00  0.00    +0.057 C 
BRANCH  23  24
ATOM     24  C   UNL     1       2.599   1.414  -0.014  0.00  0.00    -0.021 A 
ATOM     25  C   UNL     1       3.312   2.551  -0.015  0.00  0.00    +0.087 A 
ATOM     26  N   UNL     1       2.469   3.630  -0.002  0.00  0.00    -0.360 N 
ATOM     27  H   UNL     1       2.752   4.557   0.000  0.00  0.00    +0.165 HD
ATOM     28  C   UNL     1       1.160   3.201   0.008  0.00  0.00    +0.047 A 
ATOM     29  C   UNL     1       1.185   1.794   0.000  0.00  0.00    +0.004 A 
ATOM     30  C   UNL     1      -0.013   1.076   0.008  0.00  0.00    +0.030 A 
ATOM     31  C   UNL     1      -1.212   1.752   0.017  0.00  0.00    +0.042 A 
ATOM     32  C   UNL     1      -1.236   3.141   0.029  0.00  0.00    +0.022 A 
ATOM     33  C   UNL     1      -0.063   3.863   0.022  0.00  0.00    +0.027 A 
ATOM     34 CL   UNL     1      -2.704   0.864   0.020  0.00  0.00    -0.084 Cl
ENDBRANCH  23  24
ENDBRANCH  22  23
ENDBRANCH   4  22
TORSDOF 7
