REMARK  Name = ZINC08951436
REMARK  8 active torsions:
REMARK  status: ('A' for Active; 'I' for Inactive)
REMARK    1  A    between atoms: C_1  and  C_2
REMARK    2  A    between atoms: C_2  and  C_30
REMARK    3  A    between atoms: C_3  and  N_18
REMARK    4  A    between atoms: N_5  and  N_9
REMARK    5  A    between atoms: C_10  and  C_11
REMARK    6  A    between atoms: C_16  and  O_17
REMARK    7  A    between atoms: N_18  and  O_29
REMARK    8  A    between atoms: N_21  and  C_22
REMARK                            x       y       z     vdW  Elec       q    Type
REMARK                         _______ _______ _______ _____ _____    ______ ____
ROOT
ATOM      1  C   UNL     1       0.109   0.234  -0.765  0.00  0.00    +0.026 C 
ATOM      2  C   UNL     1       0.633  -1.167  -0.443  0.00  0.00    +0.056 C 
ATOM      3  C   UNL     1       1.915  -1.494  -1.253  0.00  0.00    +0.232 C 
ATOM      4  N   UNL     1       2.861  -2.258  -0.459  0.00  0.00    -0.187 N 
ATOM      5  C   UNL     1       2.777  -2.245   0.885  0.00  0.00    +0.132 C 
ATOM      6  S   UNL     1       3.821  -3.018   2.000  0.00  0.00    -0.026 S 
ATOM      7  S   UNL     1       1.343  -1.248   1.256  0.00  0.00    -0.091 S 
ATOM      8  C   UNL     1      -0.450  -2.227  -0.651  0.00  0.00    +0.026 C 
ENDROOT
BRANCH   3   9
ATOM      9  N   UNL     1       2.548  -0.243  -1.677  0.00  0.00    -0.143 N 
ATOM     10  C   UNL     1       2.957  -0.093  -2.952  0.00  0.00    +0.331 C 
ATOM     11  O   UNL     1       2.715  -0.956  -3.774  0.00  0.00    -0.250 OA
ATOM     12  N   UNL     1       3.633   1.014  -3.317  0.00  0.00    -0.268 N 
ATOM     13  H   UNL     1       3.910   1.657  -2.646  0.00  0.00    +0.156 HD
BRANCH  12  14
ATOM     14  C   UNL     1       3.937   1.236  -4.666  0.00  0.00    +0.035 A 
ATOM     15  C   UNL     1       3.057   0.818  -5.655  0.00  0.00    +0.025 A 
ATOM     16  C   UNL     1       3.358   1.038  -6.985  0.00  0.00    +0.022 A 
ATOM     17  C   UNL     1       4.537   1.675  -7.332  0.00  0.00    +0.041 A 
ATOM     18  C   UNL     1       5.416   2.093  -6.348  0.00  0.00    +0.022 A 
ATOM     19  C   UNL     1       5.116   1.881  -5.016  0.00  0.00    +0.025 A 
ATOM     20 CL   UNL     1       4.913   1.950  -9.004  0.00  0.00    -0.084 Cl
ENDBRANCH  12  14
BRANCH   9  21
ATOM     21  O   UNL     1       2.730   0.809  -0.747  0.00  0.00    -0.289 OA
ATOM     22  H   UNL     1       3.088   1.619  -1.135  0.00  0.00    +0.242 HD
ENDBRANCH   9  21
ENDBRANCH   3   9
BRANCH   4  23
ATOM     23  N   UNL     1       3.862  -3.007  -1.091  0.00  0.00    -0.184 NA
ATOM     24  C   UNL     1       3.539  -3.983  -1.884  0.00  0.00    +0.142 C 
BRANCH  24  25
ATOM     25  C   UNL     1       4.585  -4.698  -2.636  0.00  0.00    +0.036 A 
ATOM     26  C   UNL     1       4.241  -5.745  -3.494  0.00  0.00    +0.013 A 
ATOM     27  C   UNL     1       5.225  -6.410  -4.196  0.00  0.00    +0.001 A 
ATOM     28  C   UNL     1       6.553  -6.044  -4.053  0.00  0.00    +0.004 A 
ATOM     29  C   UNL     1       6.906  -5.010  -3.207  0.00  0.00    +0.046 A 
ATOM     30  C   UNL     1       5.930  -4.328  -2.499  0.00  0.00    +0.125 A 
BRANCH  30  31
ATOM     31  O   UNL     1       6.275  -3.308  -1.672  0.00  0.00    -0.506 OA
ATOM     32  H   UNL     1       6.465  -3.584  -0.765  0.00  0.00    +0.292 HD
ENDBRANCH  30  31
ENDBRANCH  24  25
ENDBRANCH   4  23
TORSDOF 6
