REMARK  Name = ZINC34873448
REMARK  8 active torsions:
REMARK  status: ('A' for Active; 'I' for Inactive)
REMARK    1  A    between atoms: C_3  and  C_6
REMARK    2  A    between atoms: C_6  and  N_7
REMARK    3  A    between atoms: C_8  and  C_10
REMARK    4  A    between atoms: N_15  and  C_16
REMARK    5  A    between atoms: C_16  and  C_17
REMARK    6  A    between atoms: N_19  and  C_20
REMARK    7  A    between atoms: C_20  and  C_22
REMARK    8  A    between atoms: C_20  and  C_29
REMARK                            x       y       z     vdW  Elec       q    Type
REMARK                         _______ _______ _______ _____ _____    ______ ____
ROOT
ATOM      1  C   UNL     1       7.957  -0.782   2.832  0.00  0.00    +0.020 C 
ENDROOT
BRANCH   1   6
ATOM      2  C   UNL     1       5.944   0.555   2.996  0.00  0.00    +0.020 C 
ATOM      3  C   UNL     1       5.558   1.861   3.736  0.00  0.00    -0.008 C 
ATOM      4  C   UNL     1       6.630   1.959   4.846  0.00  0.00    -0.020 C 
ATOM      5  C   UNL     1       7.808   1.103   4.344  0.00  0.00    -0.077 C 
ATOM      6  N   UNL     1       7.429   0.577   3.013  0.00  0.00    +0.393 N 
ATOM      7  H   UNL     1       7.777   1.186   2.287  0.00  0.00    -0.080 HD
BRANCH   2   9
ATOM      8  N   UNL     1       4.101   0.607   1.347  0.00  0.00    -0.310 N 
ATOM      9  C   UNL     1       5.428   0.575   1.580  0.00  0.00    +0.200 C 
ATOM     10  O   UNL     1       6.207   0.561   0.650  0.00  0.00    -0.278 OA
ATOM     11  H   UNL     1       3.478   0.617   2.090  0.00  0.00    +0.149 HD
BRANCH   8  12
ATOM     12  C   UNL     1       3.599   0.625  -0.029  0.00  0.00    +0.178 C 
BRANCH  12  15
ATOM     13  C   UNL     1      -0.016   1.341   0.009  0.00  0.00    +0.041 A 
ATOM     14  C   UNL     1       1.331   1.769  -0.001  0.00  0.00    +0.046 A 
ATOM     15  C   UNL     1       2.092   0.660  -0.014  0.00  0.00    +0.122 A 
ATOM     16  O   UNL     1       1.282  -0.411  -0.012  0.00  0.00    -0.466 OA
ATOM     17  C   UNL     1       0.002  -0.004   0.002  0.00  0.00    +0.195 A 
ENDBRANCH  12  15
ENDBRANCH   8  12
ENDBRANCH   2   9
ENDBRANCH   1   6
BRANCH   1  18
ATOM     18  C   UNL     1       9.460  -0.727   2.728  0.00  0.00    +0.197 C 
ATOM     19  O   UNL     1      10.034   0.339   2.798  0.00  0.00    -0.278 OA
ATOM     20  N   UNL     1      10.165  -1.863   2.558  0.00  0.00    -0.306 N 
ATOM     21  H   UNL     1       9.706  -2.715   2.501  0.00  0.00    +0.150 HD
BRANCH  20  22
ATOM     22  C   UNL     1      11.626  -1.810   2.457  0.00  0.00    +0.140 C 
BRANCH  22  23
ATOM     23  C   UNL     1      12.207  -3.134   2.881  0.00  0.00    -0.022 A 
ATOM     24  C   UNL     1      11.591  -4.312   2.502  0.00  0.00    +0.008 A 
ATOM     25  C   UNL     1      12.123  -5.527   2.890  0.00  0.00    +0.038 A 
ATOM     26  C   UNL     1      13.274  -5.564   3.659  0.00  0.00    +0.123 A 
ATOM     27  C   UNL     1      13.891  -4.383   4.038  0.00  0.00    +0.038 A 
ATOM     28  C   UNL     1      13.359  -3.170   3.644  0.00  0.00    +0.008 A 
ATOM     29  F   UNL     1      13.795  -6.751   4.039  0.00  0.00    -0.205 F 
ENDBRANCH  22  23
BRANCH  22  30
ATOM     30  C   UNL     1      12.021  -1.521   1.032  0.00  0.00    +0.014 A 
ATOM     31  C   UNL     1      13.011  -0.721   0.566  0.00  0.00    +0.013 A 
ATOM     32  C   UNL     1      13.194  -0.606  -0.799  0.00  0.00    +0.008 A 
ATOM     33  C   UNL     1      12.377  -1.297  -1.632  0.00  0.00    +0.045 A 
ATOM     34  S   UNL     1      11.311  -2.149  -0.481  0.00  0.00    -0.099 S 
ENDBRANCH  22  30
ENDBRANCH  20  22
ENDBRANCH   1  18
TORSDOF 8
