REMARK  Name = ZINC02329540
REMARK  10 active torsions:
REMARK  status: ('A' for Active; 'I' for Inactive)
REMARK    1  A    between atoms: C_1  and  C_2
REMARK    2  A    between atoms: C_4  and  C_37
REMARK    3  A    between atoms: C_5  and  O_36
REMARK    4  A    between atoms: C_6  and  C_8
REMARK    5  A    between atoms: N_16  and  C_28
REMARK    6  A    between atoms: C_17  and  C_19
REMARK    7  A    between atoms: C_22  and  O_27
REMARK    8  A    between atoms: C_23  and  O_25
REMARK    9  A    between atoms: O_25  and  C_26
REMARK   10  A    between atoms: C_28  and  C_29
REMARK                            x       y       z     vdW  Elec       q    Type
REMARK                         _______ _______ _______ _____ _____    ______ ____
ROOT
ATOM      1  C   UNL     1       0.004  -2.584   2.249  0.00  0.00    +0.102 A 
ATOM      2  C   UNL     1       0.148  -2.191   3.584  0.00  0.00    +0.035 A 
ATOM      3  C   UNL     1       0.324  -3.357   4.303  0.00  0.00    +0.126 A 
ATOM      4  N   UNL     1       0.278  -4.375   3.393  0.00  0.00    -0.272 N 
ATOM      5  H   UNL     1       0.372  -5.317   3.605  0.00  0.00    +0.189 HD
ATOM      6  N   UNL     1       0.087  -3.900   2.214  0.00  0.00    -0.173 NA
ATOM      7  C   UNL     1       0.482  -3.013   5.720  0.00  0.00    +0.266 C 
ATOM      8  O   UNL     1       0.655  -3.817   6.615  0.00  0.00    -0.268 OA
ATOM      9  N   UNL     1       0.410  -1.680   5.889  0.00  0.00    -0.281 N 
ATOM     10  C   UNL     1       0.196  -1.060   4.574  0.00  0.00    +0.142 C 
ENDROOT
BRANCH   1  16
ATOM     11  C   UNL     1      -0.807   1.988   0.414  0.00  0.00    +0.044 C 
ATOM     12  C   UNL     1      -0.601   0.510   0.200  0.00  0.00    -0.049 A 
ATOM     13  C   UNL     1      -0.613  -0.008  -1.083  0.00  0.00    +0.010 A 
ATOM     14  C   UNL     1      -0.424  -1.362  -1.289  0.00  0.00    -0.008 A 
ATOM     15  C   UNL     1      -0.223  -2.207  -0.210  0.00  0.00    +0.129 A 
ATOM     16  C   UNL     1      -0.211  -1.686   1.087  0.00  0.00    +0.044 A 
ATOM     17  C   UNL     1      -0.396  -0.320   1.283  0.00  0.00    +0.017 A 
ATOM     18  C   UNL     1      -0.439  -1.919  -2.690  0.00  0.00    +0.047 C 
BRANCH  15  19
ATOM     19  O   UNL     1      -0.039  -3.538  -0.412  0.00  0.00    -0.506 OA
ATOM     20  H   UNL     1       0.886  -3.793  -0.531  0.00  0.00    +0.292 HD
ENDBRANCH  15  19
ENDBRANCH   1  16
BRANCH  10  21
ATOM     21  C   UNL     1       1.337  -0.132   4.247  0.00  0.00    -0.019 A 
ATOM     22  C   UNL     1       1.079   1.176   3.880  0.00  0.00    +0.009 A 
ATOM     23  C   UNL     1       2.122   2.031   3.579  0.00  0.00    +0.049 A 
ATOM     24  C   UNL     1       3.430   1.579   3.646  0.00  0.00    +0.158 A 
ATOM     25  C   UNL     1       3.690   0.264   4.016  0.00  0.00    +0.162 A 
ATOM     26  C   UNL     1       2.640  -0.588   4.322  0.00  0.00    +0.055 A 
BRANCH  25  27
ATOM     27  O   UNL     1       4.972  -0.185   4.084  0.00  0.00    -0.491 OA
ATOM     28  C   UNL     1       5.170  -1.514   4.570  0.00  0.00    +0.277 C 
ENDBRANCH  25  27
BRANCH  24  29
ATOM     29  O   UNL     1       4.457   2.420   3.349  0.00  0.00    -0.503 OA
ATOM     30  H   UNL     1       4.796   2.910   4.111  0.00  0.00    +0.292 HD
ENDBRANCH  24  29
ENDBRANCH  10  21
BRANCH   9  31
ATOM     31  C   UNL     1       0.525  -0.969   7.164  0.00  0.00    +0.144 C 
BRANCH  31  32
ATOM     32  C   UNL     1       1.970  -0.625   7.420  0.00  0.00    -0.030 A 
ATOM     33  C   UNL     1       2.781  -1.514   8.100  0.00  0.00    +0.008 A 
ATOM     34  C   UNL     1       4.106  -1.200   8.334  0.00  0.00    +0.038 A 
ATOM     35  C   UNL     1       4.621   0.005   7.887  0.00  0.00    +0.123 A 
ATOM     36  C   UNL     1       3.808   0.895   7.206  0.00  0.00    +0.038 A 
ATOM     37  C   UNL     1       2.484   0.576   6.968  0.00  0.00    +0.008 A 
ATOM     38  F   UNL     1       5.917   0.314   8.116  0.00  0.00    -0.205 F 
ENDBRANCH  31  32
ENDBRANCH   9  31
TORSDOF 7
