REMARK  Name = ZINC49150216
REMARK  6 active torsions:
REMARK  status: ('A' for Active; 'I' for Inactive)
REMARK    1  A    between atoms: C_1  and  C_2
REMARK    2  A    between atoms: C_2  and  C_3
REMARK    3  A    between atoms: C_4  and  C_20
REMARK    4  A    between atoms: N_8  and  S_9
REMARK    5  A    between atoms: S_9  and  C_12
REMARK    6  A    between atoms: C_17  and  N_18
REMARK                            x       y       z     vdW  Elec       q    Type
REMARK                         _______ _______ _______ _____ _____    ______ ____
ROOT
ATOM      1  S   UNL     1      -5.711  -1.952   1.871  0.00  0.00    +0.103 S 
ATOM      2  O   UNL     1      -6.406  -0.941   1.155  0.00  0.00    -0.146 OA
ATOM      3  O   UNL     1      -5.544  -3.268   1.362  0.00  0.00    -0.146 OA
ENDROOT
BRANCH   1   9
ATOM      4  C   UNL     1      -1.412  -0.526   0.013  0.00  0.00    +0.027 A 
ATOM      5  C   UNL     1      -2.009  -0.849  -1.134  0.00  0.00    +0.009 A 
ATOM      6  S   UNL     1      -3.617  -1.394  -0.579  0.00  0.00    -0.053 S 
ATOM      7  C   UNL     1      -3.367  -1.146   1.172  0.00  0.00    +0.192 A 
ATOM      8  N   UNL     1      -2.074  -0.671   1.196  0.00  0.00    -0.336 N 
ATOM      9  N   UNL     1      -4.192  -1.363   2.167  0.00  0.00    -0.103 NA
ATOM     10  C   UNL     1      -1.468  -0.772  -2.538  0.00  0.00    +0.053 C 
ATOM     11  H   UNL     1      -1.645  -0.442   2.036  0.00  0.00    +0.168 HD
BRANCH   4  13
ATOM     12  C   UNL     1      -0.019   1.526   0.010  0.00  0.00    +0.010 C 
ATOM     13  C   UNL     1       0.002  -0.004   0.002  0.00  0.00    +0.050 C 
ENDBRANCH   4  13
ENDBRANCH   1   9
BRANCH   1  14
ATOM     14  C   UNL     1      -6.520  -2.113   3.428  0.00  0.00    +0.134 A 
ATOM     15  C   UNL     1      -7.629  -1.341   3.714  0.00  0.00    +0.051 A 
ATOM     16  C   UNL     1      -8.265  -1.467   4.936  0.00  0.00    +0.043 A 
ATOM     17  C   UNL     1      -7.792  -2.366   5.876  0.00  0.00    +0.022 A 
ATOM     18  C   UNL     1      -6.683  -3.140   5.596  0.00  0.00    +0.026 A 
ATOM     19  C   UNL     1      -6.046  -3.020   4.367  0.00  0.00    +0.052 A 
ATOM     20 CL   UNL     1      -9.659  -0.496   5.291  0.00  0.00    -0.083 Cl
BRANCH  19  21
ATOM     21  N   UNL     1      -4.927  -3.806   4.079  0.00  0.00    -0.356 N 
ATOM     22  H   UNL     1      -4.481  -3.718   3.222  0.00  0.00    +0.142 HD
ATOM     23  H   UNL     1      -4.597  -4.439   4.735  0.00  0.00    +0.142 HD
ENDBRANCH  19  21
ENDBRANCH   1  14
TORSDOF 4
