REMARK  Name = ZINC13065531
REMARK  10 active torsions:
REMARK  status: ('A' for Active; 'I' for Inactive)
REMARK    1  A    between atoms: C_1  and  C_2
REMARK    2  A    between atoms: C_4  and  C_39
REMARK    3  A    between atoms: C_9  and  C_14
REMARK    4  A    between atoms: C_14  and  N_66
REMARK    5  A    between atoms: C_15  and  C_16
REMARK    6  A    between atoms: C_15  and  N_66
REMARK    7  A    between atoms: C_25  and  C_26
REMARK    8  A    between atoms: C_25  and  N_66
REMARK    9  A    between atoms: N_30  and  C_31
REMARK   10  A    between atoms: C_31  and  C_32
REMARK                            x       y       z     vdW  Elec       q    Type
REMARK                         _______ _______ _______ _____ _____    ______ ____
ROOT
ATOM      1  N   UNL     1      -1.537   7.797  -1.377  0.00  0.00    +0.390 N 
ATOM      2  H   UNL     1      -2.355   7.292  -1.738  0.00  0.00    -0.080 HD
ENDROOT
BRANCH   1   3
ATOM      3  C   UNL     1      -1.349   7.452   0.048  0.00  0.00    -0.036 C 
BRANCH   3  12
ATOM      4  C   UNL     1      -7.507   3.935   2.357  0.00  0.00    +0.044 C 
ATOM      5  C   UNL     1      -6.681   5.189   2.223  0.00  0.00    -0.050 A 
ATOM      6  C   UNL     1      -7.162   6.387   2.735  0.00  0.00    +0.008 A 
ATOM      7  C   UNL     1      -6.426   7.546   2.619  0.00  0.00    -0.026 A 
ATOM      8  C   UNL     1      -5.184   7.516   1.993  0.00  0.00    +0.052 A 
ATOM      9  C   UNL     1      -4.701   6.300   1.475  0.00  0.00    -0.001 A 
ATOM     10  C   UNL     1      -5.467   5.136   1.599  0.00  0.00    +0.013 A 
ATOM     11  C   UNL     1      -3.395   6.279   0.813  0.00  0.00    +0.017 A 
ATOM     12  C   UNL     1      -2.696   7.438   0.723  0.00  0.00    +0.001 A 
ATOM     13  C   UNL     1      -3.226   8.631   1.259  0.00  0.00    +0.251 A 
ATOM     14  O   UNL     1      -2.582   9.662   1.167  0.00  0.00    -0.268 OA
ATOM     15  N   UNL     1      -4.424   8.660   1.869  0.00  0.00    -0.322 N 
ATOM     16  H   UNL     1      -4.759   9.497   2.227  0.00  0.00    +0.169 HD
ATOM     17  C   UNL     1      -6.962   8.841   3.174  0.00  0.00    +0.046 C 
ENDBRANCH   3  12
ENDBRANCH   1   3
BRANCH   1  18
ATOM     18  C   UNL     1      -0.345   7.398  -2.155  0.00  0.00    -0.042 C 
BRANCH  18  19
ATOM     19  C   UNL     1      -0.390   5.908  -2.377  0.00  0.00    -0.060 A 
ATOM     20  C   UNL     1       0.313   5.063  -1.538  0.00  0.00    +0.005 A 
ATOM     21  C   UNL     1       0.270   3.696  -1.735  0.00  0.00    +0.050 A 
ATOM     22  C   UNL     1      -0.469   3.169  -2.782  0.00  0.00    +0.166 A 
ATOM     23  C   UNL     1      -1.173   4.020  -3.630  0.00  0.00    +0.166 A 
ATOM     24  C   UNL     1      -1.130   5.389  -3.423  0.00  0.00    +0.051 A 
ATOM     25  O   UNL     1      -1.814   3.266  -4.570  0.00  0.00    -0.453 OA
ATOM     26  C   UNL     1      -1.168   1.979  -4.537  0.00  0.00    +0.466 C 
ATOM     27  O   UNL     1      -0.669   1.882  -3.190  0.00  0.00    -0.453 OA
ENDBRANCH  18  19
ENDBRANCH   1  18
BRANCH   1  28
ATOM     28  C   UNL     1      -1.769   9.249  -1.519  0.00  0.00    +0.001 C 
BRANCH  28  29
ATOM     29  C   UNL     1      -2.174   9.541  -2.941  0.00  0.00    +0.135 A 
ATOM     30  N   UNL     1      -1.377   9.849  -3.934  0.00  0.00    -0.115 NA
ATOM     31  N   UNL     1      -2.100  10.021  -4.986  0.00  0.00    -0.023 NA
ATOM     32  N   UNL     1      -3.339   9.838  -4.689  0.00  0.00    -0.044 NA
ATOM     33  N   UNL     1      -3.426   9.540  -3.436  0.00  0.00    -0.227 N 
BRANCH  33  34
ATOM     34  C   UNL     1      -4.655   9.254  -2.693  0.00  0.00    +0.182 C 
BRANCH  34  35
ATOM     35  C   UNL     1      -5.205  10.534  -2.119  0.00  0.00    -0.026 A 
ATOM     36  C   UNL     1      -4.819  10.947  -0.857  0.00  0.00    +0.008 A 
ATOM     37  C   UNL     1      -5.318  12.123  -0.331  0.00  0.00    +0.038 A 
ATOM     38  C   UNL     1      -6.213  12.884  -1.064  0.00  0.00    +0.123 A 
ATOM     39  C   UNL     1      -6.603  12.467  -2.326  0.00  0.00    +0.038 A 
ATOM     40  C   UNL     1      -6.098  11.293  -2.852  0.00  0.00    +0.008 A 
ATOM     41  F   UNL     1      -6.705  14.032  -0.549  0.00  0.00    -0.205 F 
ENDBRANCH  34  35
ENDBRANCH  33  34
ENDBRANCH  28  29
ENDBRANCH   1  28
TORSDOF 8
