REMARK  Name = ZINC01437499
REMARK  10 active torsions:
REMARK  status: ('A' for Active; 'I' for Inactive)
REMARK    1  A    between atoms: C_1  and  O_2
REMARK    2  A    between atoms: O_2  and  C_3
REMARK    3  A    between atoms: C_7  and  C_9
REMARK    4  A    between atoms: C_14  and  C_19
REMARK    5  A    between atoms: C_21  and  O_29
REMARK    6  A    between atoms: C_22  and  O_27
REMARK    7  A    between atoms: C_23  and  O_25
REMARK    8  A    between atoms: O_25  and  C_26
REMARK    9  A    between atoms: O_27  and  C_28
REMARK   10  A    between atoms: O_29  and  C_30
REMARK                            x       y       z     vdW  Elec       q    Type
REMARK                         _______ _______ _______ _____ _____    ______ ____
ROOT
ATOM      1  C   UNL     1       1.256   3.716  -0.013  0.00  0.00    +0.136 C 
ATOM      2  C   UNL     1       1.328   2.210   0.078  0.00  0.00    +0.036 C 
ATOM      3  C   UNL     1       0.281   1.369   0.079  0.00  0.00    +0.017 C 
ATOM      4  C   UNL     1       0.501  -0.133   0.151  0.00  0.00    +0.059 C 
ATOM      5  C   UNL     1       1.747  -0.437   0.982  0.00  0.00    +0.032 C 
ATOM      6  C   UNL     1       2.940   0.242   0.299  0.00  0.00    +0.088 C 
ATOM      7  C   UNL     1       2.647   1.706   0.170  0.00  0.00    +0.163 C 
ATOM      8  O   UNL     1       3.577   2.489   0.143  0.00  0.00    -0.292 OA
ATOM      9  N   UNL     1      -1.020   1.749   0.011  0.00  0.00    -0.316 N 
ATOM     10  C   UNL     1      -1.530   2.683  -0.881  0.00  0.00    +0.052 A 
ATOM     11  C   UNL     1      -2.490   2.356  -1.823  0.00  0.00    +0.025 A 
ATOM     12  C   UNL     1      -3.035   3.355  -2.611  0.00  0.00    +0.002 A 
ATOM     13  C   UNL     1      -2.623   4.667  -2.459  0.00  0.00    +0.002 A 
ATOM     14  C   UNL     1      -1.649   4.992  -1.532  0.00  0.00    +0.025 A 
ATOM     15  C   UNL     1      -1.089   3.992  -0.753  0.00  0.00    +0.049 A 
ATOM     16  N   UNL     1      -0.073   4.263   0.161  0.00  0.00    -0.331 N 
ATOM     17  H   UNL     1      -1.641   1.339   0.633  0.00  0.00    +0.152 HD
ATOM     18  H   UNL     1      -0.259   4.829   0.927  0.00  0.00    +0.147 HD
ENDROOT
BRANCH   1  23
ATOM     19  C   UNL     1       1.576   4.138  -3.754  0.00  0.00    +0.120 A 
ATOM     20  C   UNL     1       2.720   4.919  -3.846  0.00  0.00    +0.045 A 
ATOM     21  C   UNL     1       3.383   5.306  -2.698  0.00  0.00    +0.004 A 
ATOM     22  C   UNL     1       2.906   4.921  -1.458  0.00  0.00    +0.006 A 
ATOM     23  C   UNL     1       1.770   4.138  -1.365  0.00  0.00    -0.019 A 
ATOM     24  C   UNL     1       1.103   3.748  -2.510  0.00  0.00    +0.051 A 
BRANCH  19  26
ATOM     25  C   UNL     1       1.466   4.194  -6.128  0.00  0.00    +0.277 C 
ATOM     26  O   UNL     1       0.921   3.756  -4.882  0.00  0.00    -0.495 OA
ENDBRANCH  19  26
ENDBRANCH   1  23
BRANCH   5  27
ATOM     27  C   UNL     1       1.970  -1.926   1.041  0.00  0.00    -0.036 A 
ATOM     28  C   UNL     1       2.164  -2.640  -0.126  0.00  0.00    +0.053 A 
ATOM     29  C   UNL     1       2.376  -4.010  -0.076  0.00  0.00    +0.165 A 
ATOM     30  C   UNL     1       2.382  -4.665   1.149  0.00  0.00    +0.204 A 
ATOM     31  C   UNL     1       2.182  -3.944   2.320  0.00  0.00    +0.165 A 
ATOM     32  C   UNL     1       1.976  -2.574   2.262  0.00  0.00    +0.053 A 
BRANCH  31  33
ATOM     33  O   UNL     1       2.187  -4.581   3.522  0.00  0.00    -0.491 OA
ATOM     34  C   UNL     1       1.975  -3.777   4.684  0.00  0.00    +0.277 C 
ENDBRANCH  31  33
BRANCH  30  35
ATOM     35  O   UNL     1       2.584  -6.010   1.203  0.00  0.00    -0.488 OA
ATOM     36  C   UNL     1       1.426  -6.844   1.132  0.00  0.00    +0.277 C 
ENDBRANCH  30  35
BRANCH  29  37
ATOM     37  O   UNL     1       2.572  -4.711  -1.224  0.00  0.00    -0.491 OA
ATOM     38  C   UNL     1       2.553  -3.972  -2.447  0.00  0.00    +0.277 C 
ENDBRANCH  29  37
ENDBRANCH   5  27
TORSDOF 6
