REMARK  Name = ZINC22608192
REMARK  3 active torsions:
REMARK  status: ('A' for Active; 'I' for Inactive)
REMARK    1  A    between atoms: C_1  and  C_2
REMARK    2  A    between atoms: C_7  and  C_19
REMARK    3  A    between atoms: C_12  and  C_14
REMARK                            x       y       z     vdW  Elec       q    Type
REMARK                         _______ _______ _______ _____ _____    ______ ____
ROOT
ATOM      1  C   UNL     1      -1.280  -7.694  -2.395  0.00  0.00    +0.008 C 
ATOM      2  C   UNL     1      -1.234  -6.478  -1.468  0.00  0.00    -0.001 C 
ATOM      3  C   UNL     1      -0.093  -5.550  -1.891  0.00  0.00    +0.055 C 
ATOM      4  C   UNL     1      -0.024  -4.370  -0.950  0.00  0.00    +0.020 C 
ATOM      5  C   UNL     1      -0.375  -4.497   0.347  0.00  0.00    +0.041 C 
ATOM      6  C   UNL     1      -0.289  -3.341   1.320  0.00  0.00    +0.175 C 
ATOM      7  N   UNL     1      -0.124  -2.089   0.593  0.00  0.00    -0.220 N 
ATOM      8  C   UNL     1       0.211  -2.027  -0.719  0.00  0.00    +0.219 A 
ATOM      9  N   UNL     1       0.279  -0.769  -1.059  0.00  0.00    -0.189 NA
ATOM     10  C   UNL     1       0.002  -0.004   0.002  0.00  0.00    +0.256 A 
ATOM     11  N   UNL     1      -0.254  -0.772   1.032  0.00  0.00    -0.143 NA
ATOM     12  N   UNL     1       0.410  -3.174  -1.470  0.00  0.00    -0.287 N 
ATOM     13  C   UNL     1      -0.836  -5.726   0.853  0.00  0.00    +0.163 C 
ATOM     14  O   UNL     1      -1.131  -5.811   2.029  0.00  0.00    -0.292 OA
ATOM     15  C   UNL     1      -0.973  -6.936  -0.029  0.00  0.00    +0.083 C 
ATOM     16  H   UNL     1       0.900  -3.148  -2.455  0.00  0.00    +0.155 HD
ENDROOT
BRANCH   6  17
ATOM     17  C   UNL     1       0.889  -3.546   2.237  0.00  0.00    -0.017 A 
ATOM     18  C   UNL     1       0.693  -3.653   3.602  0.00  0.00    +0.006 A 
ATOM     19  C   UNL     1       1.773  -3.841   4.443  0.00  0.00    +0.002 A 
ATOM     20  C   UNL     1       3.051  -3.923   3.921  0.00  0.00    +0.020 A 
ATOM     21  C   UNL     1       3.248  -3.817   2.556  0.00  0.00    +0.041 A 
ATOM     22  C   UNL     1       2.165  -3.634   1.714  0.00  0.00    +0.026 A 
ATOM     23 CL   UNL     1       4.852  -3.919   1.900  0.00  0.00    -0.084 Cl
ENDBRANCH   6  17
BRANCH  10  24
ATOM     24  C   UNL     1      -0.018   1.503   0.010  0.00  0.00    +0.454 C 
ATOM     25  F   UNL     1       1.294   1.987   0.000  0.00  0.00    -0.163 F 
ATOM     26  F   UNL     1      -0.695   1.966  -1.123  0.00  0.00    -0.163 F 
ATOM     27  F   UNL     1      -0.673   1.954   1.161  0.00  0.00    -0.163 F 
ENDBRANCH  10  24
TORSDOF 2
