REMARK  Name = ZINC01086911
REMARK  6 active torsions:
REMARK  status: ('A' for Active; 'I' for Inactive)
REMARK    1  A    between atoms: C_6  and  C_7
REMARK    2  A    between atoms: C_7  and  N_8
REMARK    3  A    between atoms: C_11  and  C_13
REMARK    4  A    between atoms: N_15  and  N_16
REMARK    5  A    between atoms: C_17  and  C_18
REMARK    6  A    between atoms: C_21  and  O_24
REMARK                            x       y       z     vdW  Elec       q    Type
REMARK                         _______ _______ _______ _____ _____    ______ ____
ROOT
ATOM      1  N   UNL     1       0.002  -0.004   0.002  0.00  0.00    -0.265 N 
ATOM      2  C   UNL     1      -0.616  -0.794   0.914  0.00  0.00    +0.124 A 
ATOM      3  C   UNL     1      -0.365  -2.079   0.566  0.00  0.00    +0.068 A 
ATOM      4  C   UNL     1       0.433  -2.005  -0.601  0.00  0.00    +0.163 A 
ATOM      5  N   UNL     1       0.603  -0.727  -0.874  0.00  0.00    -0.165 NA
ATOM      6 BR   UNL     1      -0.958  -3.641   1.451  0.00  0.00    -0.046 Br
ENDROOT
BRANCH   4   7
ATOM      7  C   UNL     1       0.971  -3.146  -1.369  0.00  0.00    +0.284 C 
ATOM      8  O   UNL     1       0.736  -4.284  -1.012  0.00  0.00    -0.267 OA
ATOM      9  N   UNL     1       1.721  -2.925  -2.466  0.00  0.00    -0.202 N 
ATOM     10  H   UNL     1       1.908  -2.017  -2.751  0.00  0.00    +0.178 HD
BRANCH   9  11
ATOM     11  N   UNL     1       2.231  -4.007  -3.196  0.00  0.00    -0.187 NA
ATOM     12  C   UNL     1       2.954  -3.794  -4.253  0.00  0.00    +0.138 C 
BRANCH  12  13
ATOM     13  C   UNL     1       3.490  -4.933  -5.020  0.00  0.00    -0.005 A 
ATOM     14  C   UNL     1       3.227  -6.242  -4.608  0.00  0.00    +0.013 A 
ATOM     15  C   UNL     1       3.727  -7.303  -5.331  0.00  0.00    +0.046 A 
ATOM     16  C   UNL     1       4.500  -7.073  -6.462  0.00  0.00    +0.117 A 
ATOM     17  C   UNL     1       4.769  -5.774  -6.872  0.00  0.00    +0.046 A 
ATOM     18  C   UNL     1       4.269  -4.706  -6.159  0.00  0.00    +0.013 A 
BRANCH  16  19
ATOM     19  O   UNL     1       4.995  -8.122  -7.169  0.00  0.00    -0.507 OA
ATOM     20  H   UNL     1       5.867  -8.419  -6.874  0.00  0.00    +0.292 HD
ENDBRANCH  16  19
ENDBRANCH  12  13
ENDBRANCH   9  11
ENDBRANCH   4   7
BRANCH   1  21
ATOM     21  C   UNL     1      -0.018   1.461   0.010  0.00  0.00    +0.178 C 
BRANCH  21  27
ATOM     22  C   UNL     1       2.054   2.220   1.192  0.00  0.00    +0.007 A 
ATOM     23  C   UNL     1       3.352   2.693   1.183  0.00  0.00    +0.020 A 
ATOM     24  C   UNL     1       3.990   2.939  -0.020  0.00  0.00    +0.041 A 
ATOM     25  C   UNL     1       3.329   2.706  -1.213  0.00  0.00    +0.020 A 
ATOM     26  C   UNL     1       2.033   2.228  -1.203  0.00  0.00    +0.007 A 
ATOM     27  C   UNL     1       1.396   1.982  -0.001  0.00  0.00    -0.026 A 
ATOM     28 CL   UNL     1       5.619   3.540  -0.033  0.00  0.00    -0.084 Cl
ENDBRANCH  21  27
ENDBRANCH   1  21
TORSDOF 6
