REMARK  Name = ZINC21722877
REMARK  6 active torsions:
REMARK  status: ('A' for Active; 'I' for Inactive)
REMARK    1  A    between atoms: C_1  and  C_2
REMARK    2  A    between atoms: C_2  and  C_3
REMARK    3  A    between atoms: C_3  and  N_4
REMARK    4  A    between atoms: C_17  and  C_19
REMARK    5  A    between atoms: C_28  and  C_30
REMARK    6  A    between atoms: C_28  and  C_31
REMARK                            x       y       z     vdW  Elec       q    Type
REMARK                         _______ _______ _______ _____ _____    ______ ____
ROOT
ATOM      1  N   UNL     1       3.443   5.957  -1.422  0.00  0.00    -0.299 N 
ATOM      2  C   UNL     1       2.291   5.287  -1.217  0.00  0.00    +0.307 C 
ATOM      3  O   UNL     1       1.364   5.420  -1.992  0.00  0.00    -0.252 OA
ATOM      4  N   UNL     1       2.167   4.471  -0.151  0.00  0.00    -0.242 N 
ATOM      5  C   UNL     1       3.238   4.327   0.733  0.00  0.00    +0.060 A 
ATOM      6  C   UNL     1       3.653   5.372   1.542  0.00  0.00    +0.025 A 
ATOM      7  C   UNL     1       4.644   5.152   2.483  0.00  0.00    +0.002 A 
ATOM      8  C   UNL     1       5.217   3.900   2.615  0.00  0.00    +0.002 A 
ATOM      9  C   UNL     1       4.820   2.859   1.793  0.00  0.00    +0.025 A 
ATOM     10  C   UNL     1       3.842   3.083   0.840  0.00  0.00    +0.053 A 
ATOM     11  N   UNL     1       3.429   2.098  -0.049  0.00  0.00    -0.316 N 
ATOM     12  C   UNL     1       2.186   1.553  -0.083  0.00  0.00    +0.017 C 
ATOM     13  C   UNL     1       1.041   2.255  -0.042  0.00  0.00    +0.037 C 
ATOM     14  C   UNL     1       0.925   3.758   0.059  0.00  0.00    +0.148 C 
ATOM     15  C   UNL     1      -0.206   1.587  -0.084  0.00  0.00    +0.163 C 
ATOM     16  O   UNL     1      -1.226   2.248  -0.079  0.00  0.00    -0.292 OA
ATOM     17  C   UNL     1      -0.313   0.092  -0.142  0.00  0.00    +0.086 C 
ATOM     18  C   UNL     1       0.926  -0.511   0.531  0.00  0.00    -0.023 C 
ATOM     19  C   UNL     1       2.158   0.038  -0.186  0.00  0.00    +0.058 C 
ATOM     20  C   UNL     1       0.962  -0.109   2.007  0.00  0.00    +0.011 C 
ATOM     21  C   UNL     1       0.891  -2.036   0.409  0.00  0.00    +0.011 C 
ATOM     22  H   UNL     1       4.282   5.837  -0.721  0.00  0.00    +0.150 HD
ATOM     23  H   UNL     1       4.132   1.703  -0.797  0.00  0.00    +0.152 HD
ENDROOT
BRANCH  14  24
ATOM     24  C   UNL     1       0.403   4.102   1.430  0.00  0.00    -0.022 A 
ATOM     25  C   UNL     1      -0.836   4.699   1.567  0.00  0.00    +0.006 A 
ATOM     26  C   UNL     1      -1.318   5.011   2.825  0.00  0.00    +0.000 A 
ATOM     27  C   UNL     1      -0.556   4.735   3.945  0.00  0.00    +0.000 A 
ATOM     28  C   UNL     1       0.686   4.142   3.807  0.00  0.00    +0.000 A 
ATOM     29  C   UNL     1       1.165   3.826   2.550  0.00  0.00    +0.006 A 
ENDBRANCH  14  24
BRANCH   1  30
ATOM     30  C   UNL     1       3.578   6.844  -2.580  0.00  0.00    +0.105 C 
BRANCH  30  32
ATOM     31  C   UNL     1       5.113   8.401  -3.789  0.00  0.00    +0.005 C 
ATOM     32  C   UNL     1       4.972   7.475  -2.579  0.00  0.00    +0.015 C 
ENDBRANCH  30  32
ENDBRANCH   1  30
TORSDOF 3
