REMARK  Name = ZINC20255451
REMARK  12 active torsions:
REMARK  status: ('A' for Active; 'I' for Inactive)
REMARK    1  A    between atoms: C_1  and  N_2
REMARK    2  A    between atoms: C_5  and  N_8
REMARK    3  A    between atoms: N_8  and  C_9
REMARK    4  A    between atoms: N_8  and  C_14
REMARK    5  A    between atoms: C_9  and  C_10
REMARK    6  A    between atoms: C_10  and  C_11
REMARK    7  A    between atoms: C_11  and  O_12
REMARK    8  A    between atoms: O_12  and  C_13
REMARK    9  A    between atoms: C_14  and  C_15
REMARK   10  A    between atoms: C_18  and  C_23
REMARK   11  A    between atoms: N_25  and  C_26
REMARK   12  A    between atoms: C_26  and  C_27
REMARK                            x       y       z     vdW  Elec       q    Type
REMARK                         _______ _______ _______ _____ _____    ______ ____
ROOT
ATOM      1  C   UNL     1      -0.797  -4.268  -1.345  0.00  0.00    +0.033 A 
ATOM      2  C   UNL     1      -1.262  -5.290  -2.107  0.00  0.00    +0.023 A 
ATOM      3  C   UNL     1      -1.890  -5.026  -3.325  0.00  0.00    +0.020 A 
ATOM      4  C   UNL     1      -2.028  -3.703  -3.739  0.00  0.00    +0.101 A 
ATOM      5  C   UNL     1      -1.526  -2.669  -2.907  0.00  0.00    +0.261 A 
ATOM      6  O   UNL     1      -1.635  -1.503  -3.247  0.00  0.00    -0.267 OA
ATOM      7  N   UNL     1      -0.933  -2.979  -1.739  0.00  0.00    -0.324 N 
ATOM      8  H   UNL     1      -0.594  -2.269  -1.172  0.00  0.00    +0.169 HD
ENDROOT
BRANCH   4   9
ATOM      9  C   UNL     1      -2.684  -3.383  -5.016  0.00  0.00    +0.249 C 
ATOM     10  O   UNL     1      -3.019  -4.279  -5.769  0.00  0.00    -0.270 OA
ATOM     11  N   UNL     1      -2.912  -2.099  -5.354  0.00  0.00    -0.311 N 
ATOM     12  H   UNL     1      -2.584  -1.383  -4.788  0.00  0.00    +0.149 HD
BRANCH  11  13
ATOM     13  C   UNL     1      -3.657  -1.783  -6.575  0.00  0.00    +0.108 C 
BRANCH  13  14
ATOM     14  C   UNL     1      -3.776  -0.265  -6.723  0.00  0.00    +0.012 C 
ATOM     15  C   UNL     1      -4.622   0.294  -5.578  0.00  0.00    -0.006 C 
ATOM     16  C   UNL     1      -4.740   1.812  -5.725  0.00  0.00    +0.007 C 
ATOM     17  C   UNL     1      -5.408   2.144  -7.062  0.00  0.00    -0.010 C 
ATOM     18  C   UNL     1      -6.803   1.517  -7.105  0.00  0.00    +0.007 C 
ATOM     19  C   UNL     1      -6.684  -0.001  -6.957  0.00  0.00    -0.010 C 
ATOM     20  C   UNL     1      -6.017  -0.333  -5.621  0.00  0.00    +0.007 C 
ATOM     21  C   UNL     1      -5.838  -0.560  -8.102  0.00  0.00    +0.007 C 
ATOM     22  C   UNL     1      -4.443   0.067  -8.059  0.00  0.00    -0.006 C 
ATOM     23  C   UNL     1      -4.561   1.585  -8.207  0.00  0.00    +0.007 C 
ENDBRANCH  13  14
ENDBRANCH  11  13
ENDBRANCH   4   9
BRANCH   1  24
ATOM     24  C   UNL     1      -0.121  -4.572  -0.033  0.00  0.00    +0.138 C 
BRANCH  24  25
ATOM     25  N   UNL     1       1.290  -4.168  -0.102  0.00  0.00    -0.294 NA
BRANCH  25  30
ATOM     26  C   UNL     1       2.218  -4.990   5.404  0.00  0.00    -0.096 C 
ATOM     27  N   UNL     1       1.686  -4.841   4.043  0.00  0.00    +0.378 N 
ATOM     28  C   UNL     1       1.931  -3.473   3.570  0.00  0.00    -0.078 C 
ATOM     29  C   UNL     1       1.308  -3.288   2.185  0.00  0.00    +0.000 C 
ATOM     30  C   UNL     1       1.937  -4.288   1.210  0.00  0.00    +0.054 C 
ATOM     31  C   UNL     1       1.740  -5.707   1.751  0.00  0.00    +0.000 C 
ATOM     32  C   UNL     1       2.347  -5.802   3.152  0.00  0.00    -0.078 C 
ATOM     33  H   UNL     1       0.693  -5.019   4.050  0.00  0.00    -0.082 HD
ENDBRANCH  25  30
BRANCH  25  34
ATOM     34  C   UNL     1       2.011  -4.946  -1.118  0.00  0.00    +0.087 C 
BRANCH  34  35
ATOM     35  C   UNL     1       3.397  -4.337  -1.339  0.00  0.00    +0.043 C 
BRANCH  35  36
ATOM     36  C   UNL     1       4.148  -5.148  -2.397  0.00  0.00    +0.160 C 
BRANCH  36  37
ATOM     37  O   UNL     1       5.442  -4.578  -2.603  0.00  0.00    -0.383 OA
ATOM     38  C   UNL     1       6.230  -5.264  -3.578  0.00  0.00    +0.193 C 
ENDBRANCH  36  37
ENDBRANCH  35  36
ENDBRANCH  34  35
ENDBRANCH  25  34
ENDBRANCH  24  25
ENDBRANCH   1  24
TORSDOF 10
