REMARK  Name = ZINC08994267
REMARK  10 active torsions:
REMARK  status: ('A' for Active; 'I' for Inactive)
REMARK    1  A    between atoms: C_1  and  C_2
REMARK    2  A    between atoms: C_4  and  C_32
REMARK    3  A    between atoms: C_9  and  C_18
REMARK    4  A    between atoms: C_12  and  C_14
REMARK    5  A    between atoms: C_14  and  C_15
REMARK    6  A    between atoms: C_15  and  S_16
REMARK    7  A    between atoms: S_16  and  C_17
REMARK    8  A    between atoms: N_20  and  C_21
REMARK    9  A    between atoms: C_24  and  O_27
REMARK   10  A    between atoms: O_27  and  C_28
REMARK                            x       y       z     vdW  Elec       q    Type
REMARK                         _______ _______ _______ _____ _____    ______ ____
ROOT
ATOM      1  C   UNL     1       3.646   2.213  -0.031  0.00  0.00    +0.044 C 
ATOM      2  C   UNL     1       2.357   1.433  -0.017  0.00  0.00    -0.050 A 
ATOM      3  C   UNL     1       2.383   0.050  -0.021  0.00  0.00    +0.008 A 
ATOM      4  C   UNL     1       1.206  -0.669  -0.009  0.00  0.00    -0.029 A 
ATOM      5  C   UNL     1      -0.019  -0.007   0.009  0.00  0.00    +0.039 A 
ATOM      6  C   UNL     1      -0.034   1.384   0.014  0.00  0.00    -0.027 A 
ATOM      7  C   UNL     1       1.143   2.098   0.001  0.00  0.00    +0.008 A 
ATOM      8  C   UNL     1      -1.484   1.784   0.041  0.00  0.00    +0.049 C 
ATOM      9  C   UNL     1      -1.801   2.599   1.305  0.00  0.00    +0.076 C 
ATOM     10  C   UNL     1      -2.842   3.633   0.797  0.00  0.00    -0.004 C 
ATOM     11  C   UNL     1      -2.335   3.910  -0.641  0.00  0.00    -0.068 C 
ATOM     12  C   UNL     1      -2.242   0.481   0.037  0.00  0.00    +0.211 C 
ATOM     13  O   UNL     1      -3.447   0.346   0.050  0.00  0.00    -0.277 OA
ATOM     14  N   UNL     1      -1.325  -0.503   0.021  0.00  0.00    -0.286 N 
ATOM     15  C   UNL     1       1.246  -2.176  -0.014  0.00  0.00    +0.045 C 
ATOM     16  H   UNL     1      -1.544  -1.448   0.020  0.00  0.00    +0.155 HD
ATOM     17  N   UNL     1      -1.837   2.604  -1.117  0.00  0.00    +0.394 N 
ATOM     18  H   UNL     1      -2.568   2.134  -1.663  0.00  0.00    -0.083 HD
ATOM     19  H   UNL     1      -1.007   2.745  -1.705  0.00  0.00    -0.083 HD
ENDROOT
BRANCH   9  20
ATOM     20  C   UNL     1      -0.565   3.293   1.817  0.00  0.00    +0.220 C 
ATOM     21  O   UNL     1      -0.243   4.371   1.362  0.00  0.00    -0.275 OA
ATOM     22  N   UNL     1       0.182   2.717   2.779  0.00  0.00    -0.285 N 
ATOM     23  H   UNL     1      -0.030   1.823   3.088  0.00  0.00    +0.155 HD
BRANCH  22  24
ATOM     24  C   UNL     1       1.266   3.411   3.334  0.00  0.00    +0.034 A 
ATOM     25  C   UNL     1       2.406   2.720   3.724  0.00  0.00    +0.027 A 
ATOM     26  C   UNL     1       3.475   3.405   4.266  0.00  0.00    +0.047 A 
ATOM     27  C   UNL     1       3.407   4.781   4.431  0.00  0.00    +0.120 A 
ATOM     28  C   UNL     1       2.266   5.470   4.046  0.00  0.00    +0.047 A 
ATOM     29  C   UNL     1       1.198   4.788   3.499  0.00  0.00    +0.027 A 
BRANCH  27  30
ATOM     30  O   UNL     1       4.458   5.454   4.970  0.00  0.00    -0.495 OA
ATOM     31  C   UNL     1       5.601   4.681   5.343  0.00  0.00    +0.277 C 
ENDBRANCH  27  30
ENDBRANCH  22  24
ENDBRANCH   9  20
BRANCH  11  32
ATOM     32  C   UNL     1      -3.482   4.402  -1.525  0.00  0.00    -0.005 C 
BRANCH  32  33
ATOM     33  C   UNL     1      -2.937   4.787  -2.902  0.00  0.00    +0.067 C 
BRANCH  33  34
ATOM     34  S   UNL     1      -4.298   5.370  -3.950  0.00  0.00    -0.164 S 
ATOM     35  C   UNL     1      -3.494   5.780  -5.524  0.00  0.00    +0.084 C 
ENDBRANCH  33  34
ENDBRANCH  32  33
ENDBRANCH  11  32
TORSDOF 6
