REMARK  Name = ZINC22290990
REMARK  8 active torsions:
REMARK  status: ('A' for Active; 'I' for Inactive)
REMARK    1  A    between atoms: C_1  and  C_2
REMARK    2  A    between atoms: C_7  and  C_9
REMARK    3  A    between atoms: C_7  and  C_10
REMARK    4  A    between atoms: N_13  and  C_17
REMARK    5  A    between atoms: C_17  and  C_18
REMARK    6  A    between atoms: C_23  and  C_26
REMARK    7  A    between atoms: C_26  and  N_27
REMARK    8  A    between atoms: C_30  and  C_33
REMARK                            x       y       z     vdW  Elec       q    Type
REMARK                         _______ _______ _______ _____ _____    ______ ____
ROOT
ATOM      1  C   UNL     1       0.970  -4.657  -4.537  0.00  0.00    +0.237 C 
ATOM      2  O   UNL     1       1.179  -5.175  -3.461  0.00  0.00    -0.274 OA
ATOM      3  N   UNL     1       1.197  -5.348  -5.673  0.00  0.00    -0.263 N 
ATOM      4  C   UNL     1       1.669  -6.653  -5.609  0.00  0.00    +0.165 A 
ATOM      5  N   UNL     1       1.949  -7.470  -6.602  0.00  0.00    -0.231 NA
ATOM      6  C   UNL     1       2.393  -8.692  -6.375  0.00  0.00    +0.034 A 
ATOM      7  C   UNL     1       2.546  -9.062  -5.079  0.00  0.00    +0.070 A 
ATOM      8  S   UNL     1       2.028  -7.571  -4.245  0.00  0.00    -0.060 S 
ATOM      9  H   UNL     1       1.030  -4.933  -6.534  0.00  0.00    +0.157 HD
ENDROOT
BRANCH   1  10
ATOM     10  C   UNL     1       0.458  -3.241  -4.606  0.00  0.00    +0.214 C 
BRANCH  10  22
ATOM     11  C   UNL     1      -0.061   1.649   0.498  0.00  0.00    +0.007 C 
ATOM     12  C   UNL     1      -0.046   0.132   0.299  0.00  0.00    -0.011 C 
ATOM     13  C   UNL     1       0.612  -0.200  -1.042  0.00  0.00    +0.038 C 
ATOM     14  C   UNL     1       0.646  -1.713  -1.232  0.00  0.00    +0.113 C 
ATOM     15  C   UNL     1       1.417  -2.381  -0.099  0.00  0.00    +0.041 C 
ATOM     16  C   UNL     1       0.756  -2.041   1.240  0.00  0.00    -0.032 C 
ATOM     17  C   UNL     1       0.748  -0.523   1.431  0.00  0.00    +0.009 C 
ATOM     18  C   UNL     1      -0.682  -2.564   1.246  0.00  0.00    +0.011 C 
ATOM     19  C   UNL     1       1.542  -2.695   2.378  0.00  0.00    +0.011 C 
ATOM     20  C   UNL     1       1.261  -2.063  -2.567  0.00  0.00    +0.247 C 
ATOM     21  O   UNL     1       2.385  -1.813  -2.946  0.00  0.00    -0.273 OA
ATOM     22  N   UNL     1       0.296  -2.715  -3.249  0.00  0.00    -0.215 N 
ATOM     23  C   UNL     1      -0.829  -2.819  -2.531  0.00  0.00    +0.310 C 
ATOM     24  O   UNL     1      -1.838  -3.366  -2.931  0.00  0.00    -0.252 OA
ATOM     25  N   UNL     1      -0.717  -2.252  -1.315  0.00  0.00    -0.285 N 
ATOM     26  H   UNL     1      -1.402  -2.208  -0.629  0.00  0.00    +0.151 HD
ENDBRANCH  10  22
ENDBRANCH   1  10
BRANCH   6  27
ATOM     27  C   UNL     1       2.717  -9.635  -7.505  0.00  0.00    -0.022 C 
BRANCH  27  28
ATOM     28  N   UNL     1       1.492 -10.324  -7.933  0.00  0.00    +0.383 N 
ATOM     29  C   UNL     1       0.550  -9.346  -8.490  0.00  0.00    -0.078 C 
ATOM     30  C   UNL     1      -0.758 -10.046  -8.863  0.00  0.00    -0.016 C 
ATOM     31  C   UNL     1      -0.471 -11.130  -9.905  0.00  0.00    -0.018 C 
ATOM     32  C   UNL     1       0.568 -12.104  -9.341  0.00  0.00    -0.016 C 
ATOM     33  C   UNL     1       1.827 -11.328  -8.951  0.00  0.00    -0.078 C 
ATOM     34  C   UNL     1      -1.762 -11.888 -10.224  0.00  0.00    +0.007 C 
ATOM     35  H   UNL     1       1.069 -10.781  -7.139  0.00  0.00    -0.081 HD
ENDBRANCH  27  28
ENDBRANCH   6  27
TORSDOF 4
