REMARK  Name = ZINC16607942
REMARK  14 active torsions:
REMARK  status: ('A' for Active; 'I' for Inactive)
REMARK    1  A    between atoms: C_1  and  C_2
REMARK    2  A    between atoms: N_4  and  C_37
REMARK    3  A    between atoms: C_11  and  C_13
REMARK    4  A    between atoms: C_16  and  N_19
REMARK    5  A    between atoms: N_19  and  C_20
REMARK    6  A    between atoms: N_19  and  C_21
REMARK    7  A    between atoms: C_24  and  C_33
REMARK    8  A    between atoms: C_27  and  C_29
REMARK    9  A    between atoms: C_29  and  C_30
REMARK   10  A    between atoms: C_29  and  C_31
REMARK   11  A    between atoms: C_29  and  C_32
REMARK   12  A    between atoms: C_33  and  C_34
REMARK   13  A    between atoms: C_33  and  C_35
REMARK   14  A    between atoms: C_33  and  C_36
REMARK                            x       y       z     vdW  Elec       q    Type
REMARK                         _______ _______ _______ _____ _____    ______ ____
ROOT
ATOM      1  C   UNL     1       2.207   2.944   1.783  0.00  0.00    +0.063 C 
ATOM      2  C   UNL     1       1.692   3.098   0.378  0.00  0.00    +0.041 C 
ATOM      3  N   UNL     1       2.068   4.016  -0.437  0.00  0.00    -0.190 NA
ATOM      4  N   UNL     1       1.376   3.993  -1.653  0.00  0.00    -0.238 N 
ATOM      5  C   UNL     1       0.116   3.246  -1.370  0.00  0.00    +0.056 C 
ATOM      6  C   UNL     1       0.652   2.256  -0.325  0.00  0.00    +0.066 C 
ATOM      7  C   UNL     1      -0.403   1.724   0.585  0.00  0.00    -0.052 C 
ATOM      8  C   UNL     1      -1.506   2.435   0.834  0.00  0.00    -0.014 C 
ATOM      9  C   UNL     1      -1.806   3.724   0.134  0.00  0.00    -0.004 C 
ATOM     10  C   UNL     1      -2.453   1.989   1.863  0.00  0.00    +0.162 C 
ATOM     11  O   UNL     1      -3.394   2.704   2.160  0.00  0.00    -0.292 OA
ATOM     12  C   UNL     1      -2.303   0.690   2.589  0.00  0.00    +0.066 C 
ATOM     13  C   UNL     1      -0.876   0.181   2.525  0.00  0.00    +0.020 C 
ATOM     14  C   UNL     1      -0.268   0.339   1.152  0.00  0.00    +0.022 C 
ATOM     15  N   UNL     1      -0.828   4.252  -0.830  0.00  0.00    +0.400 N 
ATOM     16  H   UNL     1      -1.344   4.662  -1.617  0.00  0.00    -0.082 HD
ATOM     17  H   UNL     1      -0.281   4.984  -0.361  0.00  0.00    -0.082 HD
ENDROOT
BRANCH   9  18
ATOM     18  C   UNL     1      -3.103   3.564  -0.617  0.00  0.00    -0.057 A 
ATOM     19  C   UNL     1      -3.098   3.046  -1.899  0.00  0.00    +0.004 A 
ATOM     20  C   UNL     1      -4.285   2.893  -2.588  0.00  0.00    +0.023 A 
ATOM     21  C   UNL     1      -5.484   3.271  -1.996  0.00  0.00    +0.029 A 
ATOM     22  C   UNL     1      -5.484   3.797  -0.710  0.00  0.00    +0.023 A 
ATOM     23  C   UNL     1      -4.294   3.942  -0.024  0.00  0.00    +0.004 A 
BRANCH  21  24
ATOM     24  N   UNL     1      -6.686   3.123  -2.691  0.00  0.00    -0.336 N 
ATOM     25  C   UNL     1      -7.932   3.638  -2.119  0.00  0.00    +0.129 C 
ATOM     26  C   UNL     1      -6.700   2.453  -3.994  0.00  0.00    +0.129 C 
ENDBRANCH  21  24
ENDBRANCH   9  18
BRANCH   4  27
ATOM     27  C   UNL     1       1.756   4.573  -2.865  0.00  0.00    +0.050 A 
ATOM     28  C   UNL     1       0.942   4.445  -3.984  0.00  0.00    +0.025 A 
ATOM     29  C   UNL     1       1.319   5.024  -5.179  0.00  0.00    +0.002 A 
ATOM     30  C   UNL     1       2.510   5.721  -5.267  0.00  0.00    +0.000 A 
ATOM     31  C   UNL     1       3.325   5.846  -4.157  0.00  0.00    +0.002 A 
ATOM     32  C   UNL     1       2.952   5.274  -2.956  0.00  0.00    +0.025 A 
ENDBRANCH   4  27
BRANCH  14  33
ATOM     33  C   UNL     1       1.187  -0.109   1.208  0.00  0.00    -0.031 C 
ATOM     34  C   UNL     1       1.247  -1.630   1.363  0.00  0.00    +0.011 C 
ATOM     35  C   UNL     1       1.897   0.299  -0.085  0.00  0.00    +0.011 C 
ATOM     36  C   UNL     1       1.879   0.553   2.401  0.00  0.00    +0.011 C 
ENDBRANCH  14  33
BRANCH  12  37
ATOM     37  C   UNL     1      -3.249  -0.348   1.981  0.00  0.00    -0.028 C 
ATOM     38  C   UNL     1      -3.176  -0.272   0.455  0.00  0.00    +0.011 C 
ATOM     39  C   UNL     1      -2.835  -1.747   2.442  0.00  0.00    +0.011 C 
ATOM     40  C   UNL     1      -4.681  -0.064   2.438  0.00  0.00    +0.011 C 
ENDBRANCH  12  37
TORSDOF 5
