REMARK  Name = ZINC27527585
REMARK  12 active torsions:
REMARK  status: ('A' for Active; 'I' for Inactive)
REMARK    1  A    between atoms: C_1  and  O_2
REMARK    2  A    between atoms: O_2  and  C_3
REMARK    3  A    between atoms: C_5  and  C_13
REMARK    4  A    between atoms: C_7  and  O_11
REMARK    5  A    between atoms: C_8  and  O_9
REMARK    6  A    between atoms: O_9  and  C_10
REMARK    7  A    between atoms: O_11  and  C_12
REMARK    8  A    between atoms: C_14  and  C_33
REMARK    9  A    between atoms: C_15  and  N_32
REMARK   10  A    between atoms: C_19  and  N_31
REMARK   11  A    between atoms: C_20  and  C_22
REMARK   12  A    between atoms: C_22  and  C_24
REMARK                            x       y       z     vdW  Elec       q    Type
REMARK                         _______ _______ _______ _____ _____    ______ ____
ROOT
ATOM      1  C   UNL     1       2.000  -4.066   0.050  0.00  0.00    +0.015 A 
ATOM      2  C   UNL     1       2.696  -4.334  -1.137  0.00  0.00    +0.100 A 
ATOM      3  C   UNL     1       3.992  -4.884  -1.078  0.00  0.00    +0.136 A 
ATOM      4  N   UNL     1       4.547  -5.156   0.092  0.00  0.00    -0.224 NA
ATOM      5  C   UNL     1       3.925  -4.924   1.230  0.00  0.00    +0.113 A 
ATOM      6  C   UNL     1       2.625  -4.370   1.296  0.00  0.00    +0.038 A 
ATOM      7  C   UNL     1       2.099  -4.185   2.636  0.00  0.00    +0.053 A 
ATOM      8  C   UNL     1       2.892  -4.555   3.708  0.00  0.00    +0.083 A 
ATOM      9  S   UNL     1       4.375  -5.166   2.932  0.00  0.00    -0.063 S 
ENDROOT
BRANCH   1  12
ATOM     10  C   UNL     1      -0.805  -1.597  -0.358  0.00  0.00    +0.166 A 
ATOM     11  C   UNL     1       0.467  -2.139  -0.322  0.00  0.00    +0.058 A 
ATOM     12  C   UNL     1       0.642  -3.484   0.011  0.00  0.00    -0.009 A 
ATOM     13  C   UNL     1      -0.468  -4.278   0.307  0.00  0.00    +0.058 A 
ATOM     14  C   UNL     1      -1.737  -3.732   0.270  0.00  0.00    +0.166 A 
ATOM     15  C   UNL     1      -1.909  -2.389  -0.057  0.00  0.00    +0.204 A 
BRANCH  10  17
ATOM     16  C   UNL     1       0.201   0.468  -0.974  0.00  0.00    +0.277 C 
ATOM     17  O   UNL     1      -0.977  -0.288  -0.682  0.00  0.00    -0.491 OA
ENDBRANCH  10  17
BRANCH  15  18
ATOM     18  O   UNL     1      -3.158  -1.853  -0.087  0.00  0.00    -0.488 OA
ATOM     19  C   UNL     1      -3.861  -1.915  -1.330  0.00  0.00    +0.277 C 
ENDBRANCH  15  18
BRANCH  14  20
ATOM     20  O   UNL     1      -2.818  -4.505   0.558  0.00  0.00    -0.491 OA
ATOM     21  C   UNL     1      -2.568  -5.872   0.891  0.00  0.00    +0.277 C 
ENDBRANCH  14  20
ENDBRANCH   1  12
BRANCH   7  22
ATOM     22  N   UNL     1       0.837  -3.650   2.837  0.00  0.00    -0.356 N 
ATOM     23  H   UNL     1       0.452  -3.516   3.859  0.00  0.00    +0.142 HD
ATOM     24  H   UNL     1       0.219  -3.360   1.974  0.00  0.00    +0.142 HD
ENDBRANCH   7  22
BRANCH   3  25
ATOM     25  N   UNL     1       4.683  -5.145  -2.246  0.00  0.00    -0.342 N 
ATOM     26  H   UNL     1       5.695  -5.575  -2.202  0.00  0.00    +0.144 HD
ATOM     27  H   UNL     1       4.222  -4.923  -3.220  0.00  0.00    +0.144 HD
ENDBRANCH   3  25
BRANCH   8  28
ATOM     28  C   UNL     1       2.597  -4.470   5.087  0.00  0.00    +0.202 C 
ATOM     29  O   UNL     1       1.588  -3.896   5.459  0.00  0.00    -0.286 OA
BRANCH  28  30
ATOM     30  C   UNL     1       3.511  -5.077   6.078  0.00  0.00    +0.023 A 
ATOM     31  C   UNL     1       4.335  -6.143   5.710  0.00  0.00    +0.013 A 
ATOM     32  C   UNL     1       5.191  -6.701   6.637  0.00  0.00    +0.021 A 
ATOM     33  C   UNL     1       5.224  -6.214   7.934  0.00  0.00    +0.041 A 
ATOM     34  C   UNL     1       4.404  -5.161   8.306  0.00  0.00    +0.021 A 
ATOM     35  C   UNL     1       3.550  -4.591   7.386  0.00  0.00    +0.013 A 
ATOM     36 CL   UNL     1       6.298  -6.927   9.097  0.00  0.00    -0.084 Cl
ENDBRANCH  28  30
ENDBRANCH   8  28
BRANCH   2  37
ATOM     37  C   UNL     1       2.095  -4.046  -2.404  0.00  0.00    +0.103 C 
ATOM     38  N   UNL     1       1.617  -3.817  -3.409  0.00  0.00    -0.191 NA
ENDBRANCH   2  37
TORSDOF 9
