REMARK  Name = ZINC34716280
REMARK  7 active torsions:
REMARK  status: ('A' for Active; 'I' for Inactive)
REMARK    1  A    between atoms: C_1  and  C_2
REMARK    2  A    between atoms: C_4  and  C_9
REMARK    3  A    between atoms: C_12  and  C_23
REMARK    4  A    between atoms: N_19  and  C_20
REMARK    5  A    between atoms: C_20  and  C_21
REMARK    6  A    between atoms: C_20  and  C_22
REMARK    7  A    between atoms: N_25  and  C_26
REMARK                            x       y       z     vdW  Elec       q    Type
REMARK                         _______ _______ _______ _____ _____    ______ ____
ROOT
ATOM      1  C   UNL     1       0.027  -2.814  -2.519  0.00  0.00    +0.037 C 
ATOM      2  C   UNL     1      -1.210  -3.711  -2.599  0.00  0.00    +0.024 C 
ATOM      3  C   UNL     1      -1.224  -4.444  -3.942  0.00  0.00    +0.093 C 
ATOM      4  C   UNL     1       0.022  -5.329  -4.050  0.00  0.00    +0.122 C 
ATOM      5  N   UNL     1       1.213  -4.497  -3.829  0.00  0.00    -0.284 N 
ATOM      6  C   UNL     1       1.288  -3.679  -2.610  0.00  0.00    +0.117 C 
ATOM      7  C   UNL     1       2.218  -4.484  -4.727  0.00  0.00    +0.302 C 
ATOM      8  O   UNL     1       2.187  -5.232  -5.685  0.00  0.00    -0.253 OA
ATOM      9  N   UNL     1       3.257  -3.641  -4.563  0.00  0.00    -0.297 N 
ATOM     10  H   UNL     1       3.319  -3.097  -3.762  0.00  0.00    +0.150 HD
ENDROOT
BRANCH   1  14
ATOM     11  C   UNL     1      -0.019   1.506   0.006  0.00  0.00    +0.047 C 
ATOM     12  C   UNL     1       0.001  -0.001  -0.002  0.00  0.00    -0.015 A 
ATOM     13  C   UNL     1       0.005  -0.686  -1.202  0.00  0.00    +0.010 A 
ATOM     14  C   UNL     1       0.023  -2.068  -1.209  0.00  0.00    -0.042 A 
ATOM     15  C   UNL     1       0.037  -2.767  -0.016  0.00  0.00    +0.007 A 
ATOM     16  C   UNL     1       0.033  -2.084   1.185  0.00  0.00    +0.039 A 
ATOM     17  C   UNL     1       0.021  -0.699   1.194  0.00  0.00    +0.126 A 
ATOM     18  F   UNL     1       0.022  -0.030   2.367  0.00  0.00    -0.205 F 
ENDBRANCH   1  14
BRANCH   3  19
ATOM     19  C   UNL     1      -2.459  -5.302  -4.035  0.00  0.00    +0.218 C 
ATOM     20  O   UNL     1      -3.252  -5.325  -3.116  0.00  0.00    -0.275 OA
ATOM     21  N   UNL     1      -2.684  -6.044  -5.137  0.00  0.00    -0.312 N 
ATOM     22  H   UNL     1      -2.051  -6.026  -5.872  0.00  0.00    +0.149 HD
BRANCH  21  23
ATOM     23  C   UNL     1      -3.886  -6.878  -5.227  0.00  0.00    +0.073 C 
ATOM     24  C   UNL     1      -3.722  -8.295  -5.778  0.00  0.00    +0.024 C 
ATOM     25  C   UNL     1      -4.406  -7.219  -6.625  0.00  0.00    +0.024 C 
ENDBRANCH  21  23
ENDBRANCH   3  19
BRANCH   9  26
ATOM     26  C   UNL     1       4.293  -3.547  -5.594  0.00  0.00    +0.068 C 
ATOM     27  C   UNL     1       4.969  -2.176  -5.515  0.00  0.00    +0.027 C 
ATOM     28  C   UNL     1       5.337  -4.644  -5.371  0.00  0.00    +0.027 C 
ENDBRANCH   9  26
TORSDOF 4
