REMARK  Name = ZINC03847184
REMARK  6 active torsions:
REMARK  status: ('A' for Active; 'I' for Inactive)
REMARK    1  A    between atoms: C_1  and  C_2
REMARK    2  A    between atoms: C_7  and  C_33
REMARK    3  A    between atoms: C_20  and  O_32
REMARK    4  A    between atoms: C_26  and  O_31
REMARK    5  A    between atoms: C_27  and  O_29
REMARK    6  A    between atoms: O_29  and  C_30
REMARK                            x       y       z     vdW  Elec       q    Type
REMARK                         _______ _______ _______ _____ _____    ______ ____
ROOT
ATOM      1  C   UNL     1      -3.585  -1.763  -3.832  0.00  0.00    -0.010 C 
ATOM      2  C   UNL     1      -2.438  -2.749  -3.727  0.00  0.00    -0.064 C 
ATOM      3  C   UNL     1      -3.021  -4.110  -4.211  0.00  0.00    -0.012 C 
ATOM      4  C   UNL     1      -3.527  -3.957  -5.639  0.00  0.00    -0.003 C 
ATOM      5  C   UNL     1      -2.482  -3.342  -6.562  0.00  0.00    -0.019 C 
ATOM      6  C   UNL     1      -1.856  -2.090  -5.925  0.00  0.00    -0.077 C 
ATOM      7  C   UNL     1      -0.377  -1.445  -4.130  0.00  0.00    -0.038 C 
ATOM      8  C   UNL     1       0.132  -1.831  -2.766  0.00  0.00    +0.037 C 
ATOM      9  C   UNL     1      -0.986  -1.988  -1.759  0.00  0.00    +0.174 C 
ATOM     10  C   UNL     1      -2.051  -2.911  -2.266  0.00  0.00    +0.032 C 
ATOM     11  O   UNL     1      -1.420  -0.668  -1.347  0.00  0.00    -0.461 OA
ATOM     12  C   UNL     1      -0.469   0.067  -0.767  0.00  0.00    +0.308 C 
ATOM     13  O   UNL     1       0.429  -0.530  -0.217  0.00  0.00    -0.251 OA
ATOM     14  C   UNL     1      -0.428   1.557  -0.725  0.00  0.00    +0.125 C 
ATOM     15  C   UNL     1       1.010   2.036  -0.545  0.00  0.00    +0.046 C 
ATOM     16  C   UNL     1       1.935   1.549  -1.625  0.00  0.00    -0.046 A 
ATOM     17  C   UNL     1       3.283   1.869  -1.538  0.00  0.00    +0.007 A 
ATOM     18  C   UNL     1       4.168   1.305  -2.430  0.00  0.00    +0.046 A 
ATOM     19  C   UNL     1       3.725   0.472  -3.446  0.00  0.00    +0.125 A 
ATOM     20  C   UNL     1       2.336   0.268  -3.653  0.00  0.00    +0.024 A 
ATOM     21  C   UNL     1       1.492   0.794  -2.693  0.00  0.00    +0.015 A 
ATOM     22  C   UNL     1       1.952  -0.556  -4.827  0.00  0.00    -0.009 A 
ATOM     23  C   UNL     1       0.872  -1.409  -5.004  0.00  0.00    -0.046 A 
ATOM     24  C   UNL     1       0.929  -2.382  -5.998  0.00  0.00    +0.052 A 
ATOM     25  C   UNL     1       1.949  -2.408  -6.925  0.00  0.00    +0.159 A 
ATOM     26  C   UNL     1       2.919  -1.415  -6.890  0.00  0.00    +0.162 A 
ATOM     27  C   UNL     1       2.903  -0.485  -5.882  0.00  0.00    +0.058 A 
ATOM     28  C   UNL     1      -1.064  -0.112  -4.319  0.00  0.00    -0.005 C 
ATOM     29  N   UNL     1      -1.284  -2.534  -4.648  0.00  0.00    +0.390 N 
ATOM     30  H   UNL     1      -0.754  -3.406  -4.766  0.00  0.00    -0.080 HD
ENDROOT
BRANCH  26  31
ATOM     31  O   UNL     1       3.865  -1.347  -7.865  0.00  0.00    -0.491 OA
ATOM     32  C   UNL     1       4.811  -0.280  -7.777  0.00  0.00    +0.277 C 
ENDBRANCH  26  31
BRANCH  25  33
ATOM     33  O   UNL     1       1.990  -3.379  -7.877  0.00  0.00    -0.503 OA
ATOM     34  H   UNL     1       2.495  -4.162  -7.619  0.00  0.00    +0.292 HD
ENDBRANCH  25  33
BRANCH  19  35
ATOM     35  O   UNL     1       4.670  -0.187  -4.167  0.00  0.00    -0.506 OA
ATOM     36  H   UNL     1       4.957  -1.021  -3.769  0.00  0.00    +0.292 HD
ENDBRANCH  19  35
TORSDOF 3
