REMARK  Name = ZINC38974974
REMARK  5 active torsions:
REMARK  status: ('A' for Active; 'I' for Inactive)
REMARK    1  A    between atoms: C_4  and  C_7
REMARK    2  A    between atoms: C_7  and  N_8
REMARK    3  A    between atoms: N_8  and  C_9
REMARK    4  A    between atoms: N_12  and  S_13
REMARK    5  A    between atoms: S_13  and  C_16
REMARK                            x       y       z     vdW  Elec       q    Type
REMARK                         _______ _______ _______ _____ _____    ______ ____
ROOT
ATOM      1  C   UNL     1       5.435  -1.670   1.364  0.00  0.00    +0.220 C 
ATOM      2  C   UNL     1       5.295  -2.837   2.315  0.00  0.00    +0.188 C 
ATOM      3  N   UNL     1       4.376  -3.737   2.124  0.00  0.00    -0.110 NA
ATOM      4  N   UNL     1       6.133  -2.930   3.360  0.00  0.00    -0.226 NA
ATOM      5  C   UNL     1       7.072  -2.032   3.574  0.00  0.00    +0.089 A 
ATOM      6  C   UNL     1       7.940  -2.163   4.687  0.00  0.00    +0.030 A 
ATOM      7  C   UNL     1       8.905  -1.244   4.912  0.00  0.00    +0.002 A 
ATOM      8  C   UNL     1       9.103  -0.131   4.079  0.00  0.00    +0.002 A 
ATOM      9  C   UNL     1       8.332   0.088   2.991  0.00  0.00    +0.027 A 
ATOM     10  C   UNL     1       7.259  -0.866   2.676  0.00  0.00    +0.063 A 
ATOM     11  N   UNL     1       6.495  -0.687   1.636  0.00  0.00    -0.362 N 
ATOM     12  H   UNL     1       6.623   0.078   1.053  0.00  0.00    +0.162 HD
ENDROOT
BRANCH   3  13
ATOM     13  S   UNL     1       4.233  -5.010   3.174  0.00  0.00    +0.102 S 
ATOM     14  O   UNL     1       5.413  -5.789   3.031  0.00  0.00    -0.146 OA
ATOM     15  O   UNL     1       3.827  -4.464   4.422  0.00  0.00    -0.146 OA
BRANCH  13  16
ATOM     16  C   UNL     1       2.898  -6.008   2.603  0.00  0.00    +0.132 A 
ATOM     17  C   UNL     1       3.137  -7.297   2.165  0.00  0.00    +0.050 A 
ATOM     18  C   UNL     1       2.089  -8.081   1.717  0.00  0.00    +0.043 A 
ATOM     19  C   UNL     1       0.801  -7.575   1.707  0.00  0.00    +0.021 A 
ATOM     20  C   UNL     1       0.562  -6.287   2.145  0.00  0.00    +0.023 A 
ATOM     21  C   UNL     1       1.610  -5.504   2.599  0.00  0.00    +0.068 A 
ATOM     22 CL   UNL     1       1.308  -3.888   3.156  0.00  0.00    -0.082 Cl
ATOM     23 CL   UNL     1       2.390  -9.700   1.166  0.00  0.00    -0.083 Cl
ENDBRANCH  13  16
ENDBRANCH   3  13
BRANCH   1  24
ATOM     24  N   UNL     1       4.153  -0.953   1.342  0.00  0.00    -0.287 NA
ATOM     25  H   UNL     1       4.212  -0.090   1.862  0.00  0.00    +0.125 HD
BRANCH  24  26
ATOM     26  C   UNL     1       3.711  -0.707  -0.038  0.00  0.00    +0.118 C 
BRANCH  26  30
ATOM     27  C   UNL     1      -0.017   1.378   0.010  0.00  0.00    +0.000 A 
ATOM     28  C   UNL     1       1.171   2.086   0.002  0.00  0.00    +0.000 A 
ATOM     29  C   UNL     1       2.377   1.411  -0.013  0.00  0.00    +0.005 A 
ATOM     30  C   UNL     1       2.396   0.029  -0.020  0.00  0.00    -0.034 A 
ATOM     31  C   UNL     1       1.208  -0.679  -0.012  0.00  0.00    +0.005 A 
ATOM     32  C   UNL     1       0.002  -0.004   0.002  0.00  0.00    +0.000 A 
ENDBRANCH  26  30
ENDBRANCH  24  26
ENDBRANCH   1  24
TORSDOF 5
