REMARK  Name = ZINC20723000
REMARK  7 active torsions:
REMARK  status: ('A' for Active; 'I' for Inactive)
REMARK    1  A    between atoms: C_1  and  C_2
REMARK    2  A    between atoms: C_2  and  C_3
REMARK    3  A    between atoms: C_2  and  C_4
REMARK    4  A    between atoms: C_12  and  O_27
REMARK    5  A    between atoms: N_18  and  C_19
REMARK    6  A    between atoms: C_22  and  O_25
REMARK    7  A    between atoms: O_25  and  C_26
REMARK                            x       y       z     vdW  Elec       q    Type
REMARK                         _______ _______ _______ _____ _____    ______ ____
ROOT
ATOM      1  C   UNL     1      -1.412  -0.526   0.013  0.00  0.00    -0.044 A 
ATOM      2  C   UNL     1      -2.246  -0.196   1.062  0.00  0.00    +0.006 A 
ATOM      3  C   UNL     1      -3.555  -0.645   1.127  0.00  0.00    +0.024 A 
ATOM      4  C   UNL     1      -4.006  -1.452   0.082  0.00  0.00    +0.038 A 
ATOM      5  C   UNL     1      -3.150  -1.780  -0.977  0.00  0.00    -0.006 A 
ATOM      6  C   UNL     1      -1.851  -1.325  -1.038  0.00  0.00    +0.010 A 
ATOM      7  C   UNL     1      -3.944  -2.644  -1.903  0.00  0.00    +0.112 C 
ATOM      8  C   UNL     1      -4.072  -2.007  -3.285  0.00  0.00    +0.121 C 
ATOM      9  C   UNL     1      -2.855  -2.268  -4.126  0.00  0.00    +0.191 C 
ATOM     10  N   UNL     1      -2.139  -3.349  -4.037  0.00  0.00    -0.197 NA
ATOM     11  C   UNL     1      -2.459  -4.291  -3.105  0.00  0.00    +0.164 A 
ATOM     12  C   UNL     1      -3.323  -4.004  -2.053  0.00  0.00    +0.036 A 
ATOM     13  C   UNL     1      -3.447  -5.145  -1.284  0.00  0.00    +0.142 A 
ATOM     14  N   UNL     1      -2.698  -6.087  -1.811  0.00  0.00    -0.173 NA
ATOM     15  N   UNL     1      -2.059  -5.573  -2.952  0.00  0.00    -0.214 N 
ATOM     16  C   UNL     1      -5.303  -2.752  -1.248  0.00  0.00    +0.233 C 
ATOM     17  O   UNL     1      -6.259  -3.369  -1.667  0.00  0.00    -0.274 OA
ATOM     18  N   UNL     1      -5.248  -2.032  -0.107  0.00  0.00    -0.284 N 
ATOM     19  H   UNL     1      -5.992  -1.934   0.508  0.00  0.00    +0.155 HD
ENDROOT
BRANCH  15  20
ATOM     20  C   UNL     1      -1.167  -6.266  -3.783  0.00  0.00    +0.068 A 
ATOM     21  C   UNL     1      -1.152  -6.014  -5.148  0.00  0.00    +0.031 A 
ATOM     22  C   UNL     1      -0.273  -6.697  -5.966  0.00  0.00    +0.048 A 
ATOM     23  C   UNL     1       0.594  -7.634  -5.423  0.00  0.00    +0.120 A 
ATOM     24  C   UNL     1       0.580  -7.886  -4.059  0.00  0.00    +0.048 A 
ATOM     25  C   UNL     1      -0.294  -7.199  -3.239  0.00  0.00    +0.031 A 
BRANCH  23  26
ATOM     26  O   UNL     1       1.459  -8.306  -6.229  0.00  0.00    -0.495 OA
ATOM     27  C   UNL     1       2.324  -9.256  -5.603  0.00  0.00    +0.277 C 
ENDBRANCH  23  26
ENDBRANCH  15  20
BRANCH   1  29
ATOM     28  C   UNL     1      -0.019   1.526   0.010  0.00  0.00    +0.012 C 
ATOM     29  C   UNL     1       0.002  -0.004   0.002  0.00  0.00    +0.013 C 
ATOM     30  C   UNL     1       0.742  -0.511   1.242  0.00  0.00    +0.012 C 
ENDBRANCH   1  29
BRANCH   9  31
ATOM     31  O   UNL     1      -2.486  -1.331  -5.023  0.00  0.00    -0.495 OA
ATOM     32  H   UNL     1      -1.696  -1.561  -5.530  0.00  0.00    +0.293 HD
ENDBRANCH   9  31
TORSDOF 4
