REMARK  Name = ZINC39344675
REMARK  14 active torsions:
REMARK  status: ('A' for Active; 'I' for Inactive)
REMARK    1  A    between atoms: C_1  and  C_2
REMARK    2  A    between atoms: C_2  and  C_3
REMARK    3  A    between atoms: C_2  and  C_4
REMARK    4  A    between atoms: C_2  and  C_5
REMARK    5  A    between atoms: C_5  and  N_6
REMARK    6  A    between atoms: N_6  and  C_7
REMARK    7  A    between atoms: N_13  and  C_31
REMARK    8  A    between atoms: C_14  and  C_27
REMARK    9  A    between atoms: C_16  and  N_18
REMARK   10  A    between atoms: C_19  and  C_21
REMARK   11  A    between atoms: C_27  and  O_29
REMARK   12  A    between atoms: O_29  and  C_30
REMARK   13  A    between atoms: C_31  and  C_32
REMARK   14  A    between atoms: C_32  and  C_33
REMARK                            x       y       z     vdW  Elec       q    Type
REMARK                         _______ _______ _______ _____ _____    ______ ____
ROOT
ATOM      1  C   UNL     1       2.748  -0.946  -2.389  0.00  0.00    +0.044 A 
ATOM      2  C   UNL     1       3.970  -0.276  -2.353  0.00  0.00    +0.033 A 
ATOM      3  C   UNL     1       4.838  -0.433  -3.416  0.00  0.00    +0.015 A 
ATOM      4  C   UNL     1       4.487  -1.244  -4.486  0.00  0.00    +0.105 A 
ATOM      5  N   UNL     1       3.309  -1.866  -4.480  0.00  0.00    -0.348 N 
ATOM      6  C   UNL     1       2.457  -1.745  -3.483  0.00  0.00    +0.107 A 
ATOM      7  N   UNL     1       5.489  -1.275  -5.454  0.00  0.00    -0.301 N 
ATOM      8  C   UNL     1       6.617  -0.435  -5.041  0.00  0.00    +0.208 C 
ATOM      9  C   UNL     1       6.210   0.144  -3.676  0.00  0.00    +0.138 C 
ATOM     10  H   UNL     1       3.072  -2.431  -5.233  0.00  0.00    +0.167 HD
ENDROOT
BRANCH   9  11
ATOM     11  N   UNL     1       7.151  -0.284  -2.638  0.00  0.00    -0.306 N 
ATOM     12  C   UNL     1       7.257   0.419  -1.493  0.00  0.00    +0.219 C 
ATOM     13  O   UNL     1       6.573   1.407  -1.322  0.00  0.00    -0.275 OA
ATOM     14  H   UNL     1       7.697  -1.074  -2.774  0.00  0.00    +0.149 HD
BRANCH  12  15
ATOM     15  C   UNL     1       8.224  -0.021  -0.424  0.00  0.00    +0.103 C 
ATOM     16  C   UNL     1       8.199   0.965   0.769  0.00  0.00    +0.043 C 
ATOM     17  C   UNL     1       9.702   1.069   1.135  0.00  0.00    +0.160 C 
ATOM     18  O   UNL     1      10.365   1.027  -0.146  0.00  0.00    -0.379 OA
ATOM     19  C   UNL     1       9.672   0.049  -0.947  0.00  0.00    +0.172 C 
ENDBRANCH  12  15
ENDBRANCH   9  11
BRANCH   1  20
ATOM     20  N   UNL     1       1.833  -0.818  -1.336  0.00  0.00    -0.342 N 
ATOM     21  H   UNL     1       2.046  -0.256  -0.574  0.00  0.00    +0.146 HD
BRANCH  20  22
ATOM     22  C   UNL     1       0.555  -1.533  -1.384  0.00  0.00    +0.107 C 
BRANCH  22  24
ATOM     23  C   UNL     1      -0.512   0.282  -0.039  0.00  0.00    +0.012 C 
ATOM     24  C   UNL     1      -0.251  -1.224  -0.121  0.00  0.00    -0.022 C 
ATOM     25  C   UNL     1       0.538  -1.673   1.110  0.00  0.00    +0.012 C 
ATOM     26  C   UNL     1      -1.585  -1.970  -0.172  0.00  0.00    +0.012 C 
ENDBRANCH  22  24
ENDBRANCH  20  22
ENDBRANCH   1  20
BRANCH   8  27
ATOM     27  C   UNL     1       6.835   0.674  -6.038  0.00  0.00    +0.330 C 
ATOM     28  O   UNL     1       5.914   1.071  -6.711  0.00  0.00    -0.249 OA
BRANCH  27  29
ATOM     29  O   UNL     1       8.053   1.221  -6.177  0.00  0.00    -0.467 OA
ATOM     30  C   UNL     1       8.188   2.267  -7.141  0.00  0.00    +0.280 C 
ENDBRANCH  27  29
ENDBRANCH   8  27
BRANCH   7  31
ATOM     31  C   UNL     1       5.426  -2.038  -6.703  0.00  0.00    +0.112 C 
BRANCH  31  32
ATOM     32  C   UNL     1       5.946  -3.456  -6.461  0.00  0.00    +0.056 C 
BRANCH  32  33
ATOM     33  C   UNL     1       5.918  -4.229  -7.755  0.00  0.00    -0.021 A 
ATOM     34  C   UNL     1       6.954  -4.233  -8.790  0.00  0.00    +0.003 A 
ATOM     35  C   UNL     1       8.190  -3.599  -8.928  0.00  0.00    +0.010 A 
ATOM     36  C   UNL     1       8.943  -3.817 -10.048  0.00  0.00    +0.001 A 
ATOM     37  C   UNL     1       8.489  -4.665 -11.049  0.00  0.00    +0.002 A 
ATOM     38  C   UNL     1       7.272  -5.301 -10.932  0.00  0.00    +0.026 A 
ATOM     39  C   UNL     1       6.490  -5.093  -9.802  0.00  0.00    +0.047 A 
ATOM     40  N   UNL     1       5.262  -5.569  -9.398  0.00  0.00    -0.360 N 
ATOM     41  C   UNL     1       4.941  -5.048  -8.175  0.00  0.00    +0.087 A 
ATOM     42  H   UNL     1       4.709  -6.185  -9.904  0.00  0.00    +0.165 HD
ENDBRANCH  32  33
ENDBRANCH  31  32
ENDBRANCH   7  31
TORSDOF 10
