REMARK  Name = ZINC21329051
REMARK  7 active torsions:
REMARK  status: ('A' for Active; 'I' for Inactive)
REMARK    1  A    between atoms: C_1  and  C_2
REMARK    2  A    between atoms: C_2  and  C_4
REMARK    3  A    between atoms: C_2  and  N_11
REMARK    4  A    between atoms: N_11  and  C_12
REMARK    5  A    between atoms: N_11  and  C_13
REMARK    6  A    between atoms: C_13  and  C_14
REMARK    7  A    between atoms: C_27  and  C_29
REMARK                            x       y       z     vdW  Elec       q    Type
REMARK                         _______ _______ _______ _____ _____    ______ ____
ROOT
ATOM      1  C   UNL     1       3.478   0.923  -0.658  0.00  0.00    +0.204 C 
ATOM      2  O   UNL     1       3.949   1.203   0.424  0.00  0.00    -0.277 OA
ATOM      3  N   UNL     1       2.220   1.300  -0.964  0.00  0.00    -0.259 N 
ATOM      4  C   UNL     1       1.662   0.985  -2.210  0.00  0.00    +0.058 A 
ATOM      5  C   UNL     1       2.074   1.647  -3.355  0.00  0.00    +0.025 A 
ATOM      6  C   UNL     1       1.484   1.351  -4.570  0.00  0.00    +0.002 A 
ATOM      7  C   UNL     1       0.485   0.397  -4.647  0.00  0.00    +0.002 A 
ATOM      8  C   UNL     1       0.077  -0.277  -3.511  0.00  0.00    +0.025 A 
ATOM      9  C   UNL     1       0.671   0.007  -2.292  0.00  0.00    +0.055 A 
ATOM     10  N   UNL     1       0.295  -0.680  -1.131  0.00  0.00    -0.284 N 
ATOM     11  C   UNL     1       0.002  -0.004   0.002  0.00  0.00    +0.219 C 
ATOM     12  O   UNL     1      -0.246  -0.615   1.020  0.00  0.00    -0.275 OA
ATOM     13  C   UNL     1      -0.018   1.502   0.010  0.00  0.00    +0.128 C 
ATOM     14  C   UNL     1       1.411   2.047  -0.000  0.00  0.00    +0.194 C 
ATOM     15  H   UNL     1       0.236  -1.778  -1.137  0.00  0.00    +0.155 HD
ENDROOT
BRANCH  14  16
ATOM     16  C   UNL     1       1.387   3.526  -0.394  0.00  0.00    +0.409 C 
ATOM     17  F   UNL     1       0.620   4.243   0.531  0.00  0.00    -0.169 F 
ATOM     18  F   UNL     1       2.694   4.027  -0.404  0.00  0.00    -0.169 F 
ATOM     19  F   UNL     1       0.827   3.660  -1.669  0.00  0.00    -0.169 F 
ENDBRANCH  14  16
BRANCH   1  20
ATOM     20  C   UNL     1       4.298   0.154  -1.661  0.00  0.00    +0.020 C 
BRANCH  20  21
ATOM     21  N   UNL     1       5.621  -0.136  -1.093  0.00  0.00    +0.388 N 
ATOM     22  C   UNL     1       6.388   1.100  -0.888  0.00  0.00    -0.095 C 
ATOM     23  H   UNL     1       5.471  -0.607  -0.110  0.00  0.00    -0.081 HD
BRANCH  21  25
ATOM     24  C   UNL     1       5.578  -2.391  -2.047  0.00  0.00    -0.008 C 
ATOM     25  C   UNL     1       6.362  -1.081  -1.938  0.00  0.00    -0.041 C 
BRANCH  25  26
ATOM     26  C   UNL     1       7.711  -1.354  -1.324  0.00  0.00    -0.061 A 
ATOM     27  C   UNL     1       7.831  -1.493   0.046  0.00  0.00    +0.005 A 
ATOM     28  C   UNL     1       9.067  -1.749   0.610  0.00  0.00    +0.038 A 
ATOM     29  C   UNL     1      10.187  -1.853  -0.198  0.00  0.00    +0.123 A 
ATOM     30  C   UNL     1      10.067  -1.707  -1.569  0.00  0.00    +0.038 A 
ATOM     31  C   UNL     1       8.829  -1.458  -2.131  0.00  0.00    +0.005 A 
ATOM     32  F   UNL     1      11.397  -2.096   0.353  0.00  0.00    -0.205 F 
ENDBRANCH  25  26
ENDBRANCH  21  25
ENDBRANCH  20  21
ENDBRANCH   1  20
TORSDOF 5
