REMARK  Name = ZINC13638978
REMARK  2 active torsions:
REMARK  status: ('A' for Active; 'I' for Inactive)
REMARK    1  A    between atoms: C_1  and  C_2
REMARK    2  A    between atoms: C_8  and  C_13
REMARK                            x       y       z     vdW  Elec       q    Type
REMARK                         _______ _______ _______ _____ _____    ______ ____
ROOT
ATOM      1  C   UNL     1      -0.019   1.526   0.010  0.00  0.00    +0.008 C 
ATOM      2  C   UNL     1       0.002  -0.004   0.002  0.00  0.00    -0.001 C 
ATOM      3  C   UNL     1       0.718  -0.497  -1.252  0.00  0.00    +0.057 C 
ATOM      4  C   UNL     1       0.875  -1.996  -1.240  0.00  0.00    +0.030 A 
ATOM      5  C   UNL     1       0.855  -2.715  -0.056  0.00  0.00    +0.038 A 
ATOM      6  C   UNL     1       1.014  -4.116  -0.062  0.00  0.00    +0.033 A 
ATOM      7  C   UNL     1       1.185  -4.767  -1.279  0.00  0.00    +0.128 A 
ATOM      8  C   UNL     1       1.190  -3.958  -2.501  0.00  0.00    +0.263 A 
ATOM      9  O   UNL     1       1.334  -4.492  -3.587  0.00  0.00    -0.267 OA
ATOM     10  N   UNL     1       1.036  -2.626  -2.421  0.00  0.00    -0.325 N 
ATOM     11  H   UNL     1       1.041  -2.102  -3.237  0.00  0.00    +0.169 HD
ATOM     12  C   UNL     1       0.658  -2.025   1.230  0.00  0.00    +0.165 C 
ATOM     13  O   UNL     1       0.433  -2.647   2.247  0.00  0.00    -0.292 OA
ATOM     14  C   UNL     1       0.746  -0.513   1.244  0.00  0.00    +0.083 C 
ENDROOT
BRANCH   7  15
ATOM     15  C   UNL     1       1.354  -6.224  -1.337  0.00  0.00    +0.392 C 
ATOM     16  O   UNL     1       1.346  -6.883  -0.306  0.00  0.00    -0.240 OA
ATOM     17  O   UNL     1       1.504  -6.779  -2.418  0.00  0.00    -0.240 OA
ENDBRANCH   7  15
TORSDOF 1
