REMARK  Name = ZINC30678381
REMARK  9 active torsions:
REMARK  status: ('A' for Active; 'I' for Inactive)
REMARK    1  A    between atoms: C_1  and  C_2
REMARK    2  A    between atoms: C_7  and  C_8
REMARK    3  A    between atoms: C_8  and  C_9
REMARK    4  A    between atoms: C_8  and  C_10
REMARK    5  A    between atoms: C_11  and  C_14
REMARK    6  A    between atoms: C_14  and  C_15
REMARK    7  A    between atoms: N_17  and  C_18
REMARK    8  A    between atoms: C_21  and  S_24
REMARK    9  A    between atoms: S_24  and  N_27
REMARK                            x       y       z     vdW  Elec       q    Type
REMARK                         _______ _______ _______ _____ _____    ______ ____
ROOT
ATOM      1  C   UNL     1      -9.112   3.897   3.174  0.00  0.00    +0.222 C 
ATOM      2  O   UNL     1      -9.297   3.719   1.988  0.00  0.00    -0.275 OA
ATOM      3  N   UNL     1      -7.857   4.034   3.647  0.00  0.00    -0.285 N 
ATOM      4  H   UNL     1      -7.683   4.111   4.730  0.00  0.00    +0.155 HD
ENDROOT
BRANCH   3   5
ATOM      5  C   UNL     1      -6.776   4.079   2.759  0.00  0.00    +0.034 A 
ATOM      6  C   UNL     1      -6.928   4.657   1.506  0.00  0.00    +0.025 A 
ATOM      7  C   UNL     1      -5.859   4.699   0.632  0.00  0.00    +0.031 A 
ATOM      8  C   UNL     1      -4.639   4.167   1.004  0.00  0.00    +0.113 A 
ATOM      9  C   UNL     1      -4.486   3.586   2.250  0.00  0.00    +0.031 A 
ATOM     10  C   UNL     1      -5.549   3.545   3.130  0.00  0.00    +0.025 A 
BRANCH   8  11
ATOM     11  S   UNL     1      -3.278   4.222  -0.114  0.00  0.00    +0.100 S 
ATOM     12  O   UNL     1      -3.829   4.323  -1.419  0.00  0.00    -0.146 OA
ATOM     13  O   UNL     1      -2.399   3.171   0.264  0.00  0.00    -0.146 OA
BRANCH  11  14
ATOM     14  N   UNL     1      -2.469   5.639   0.169  0.00  0.00    -0.118 NA
ATOM     15  C   UNL     1      -1.417   5.933  -0.523  0.00  0.00    +0.117 C 
ATOM     16  C   UNL     1      -0.951   4.981  -1.570  0.00  0.00    +0.073 C 
ATOM     17  C   UNL     1       0.127   4.041  -0.990  0.00  0.00    +0.008 C 
ATOM     18  C   UNL     1       1.378   4.788  -0.727  0.00  0.00    +0.002 C 
ATOM     19  C   UNL     1       1.251   5.877   0.328  0.00  0.00    +0.019 C 
ATOM     20  C   UNL     1       0.727   7.150  -0.289  0.00  0.00    +0.102 C 
ATOM     21  N   UNL     1      -0.755   7.125  -0.272  0.00  0.00    -0.331 N 
ATOM     22  H   UNL     1      -1.318   8.046  -0.060  0.00  0.00    +0.147 HD
ENDBRANCH  11  14
ENDBRANCH   8  11
ENDBRANCH   3   5
BRANCH   1  23
ATOM     23  C   UNL     1     -10.284   3.966   4.118  0.00  0.00    +0.135 C 
BRANCH  23  31
ATOM     24  C   UNL     1     -14.757  -0.541   1.433  0.00  0.00    +0.044 C 
ATOM     25  C   UNL     1     -13.857   0.540   1.972  0.00  0.00    -0.044 A 
ATOM     26  C   UNL     1     -14.183   1.864   1.767  0.00  0.00    +0.050 A 
ATOM     27  C   UNL     1     -13.358   2.866   2.261  0.00  0.00    +0.135 A 
ATOM     28  C   UNL     1     -12.192   2.514   2.962  0.00  0.00    +0.024 A 
ATOM     29  C   UNL     1     -11.877   1.172   3.168  0.00  0.00    +0.016 A 
ATOM     30  C   UNL     1     -12.709   0.194   2.670  0.00  0.00    -0.041 A 
ATOM     31  C   UNL     1     -11.564   3.785   3.343  0.00  0.00    +0.007 A 
ATOM     32  C   UNL     1     -12.355   4.752   2.858  0.00  0.00    +0.200 A 
ATOM     33  O   UNL     1     -13.410   4.213   2.222  0.00  0.00    -0.463 OA
BRANCH  30  34
ATOM     34  C   UNL     1     -12.371  -1.260   2.884  0.00  0.00    +0.013 C 
ATOM     35  C   UNL     1     -10.956  -1.535   2.370  0.00  0.00    +0.012 C 
ATOM     36  C   UNL     1     -12.444  -1.586   4.376  0.00  0.00    +0.012 C 
ENDBRANCH  30  34
ENDBRANCH  23  31
ENDBRANCH   1  23
TORSDOF 6
