REMARK  Name = ZINC63907478
REMARK  7 active torsions:
REMARK  status: ('A' for Active; 'I' for Inactive)
REMARK    1  A    between atoms: C_1  and  C_2
REMARK    2  A    between atoms: C_2  and  N_3
REMARK    3  A    between atoms: C_7  and  C_9
REMARK    4  A    between atoms: C_9  and  C_11
REMARK    5  A    between atoms: C_9  and  S_17
REMARK    6  A    between atoms: S_17  and  C_18
REMARK    7  A    between atoms: C_23  and  C_28
REMARK                            x       y       z     vdW  Elec       q    Type
REMARK                         _______ _______ _______ _____ _____    ______ ____
ROOT
ATOM      1  C   UNL     1       2.378  -4.084   3.911  0.00  0.00    +0.170 C 
ENDROOT
BRANCH   1   6
ATOM      2  N   UNL     1       0.711  -0.489   1.189  0.00  0.00    -0.299 N 
ATOM      3  C   UNL     1       0.854  -1.814   1.394  0.00  0.00    +0.306 C 
ATOM      4  O   UNL     1       0.395  -2.606   0.594  0.00  0.00    -0.252 OA
ATOM      5  N   UNL     1       1.506  -2.260   2.486  0.00  0.00    -0.239 N 
ATOM      6  C   UNL     1       1.649  -3.585   2.690  0.00  0.00    +0.238 C 
ATOM      7  O   UNL     1       1.191  -4.374   1.893  0.00  0.00    -0.274 OA
ATOM      8  H   UNL     1       1.077   0.142   1.827  0.00  0.00    +0.150 HD
ATOM      9  H   UNL     1       1.872  -1.628   3.124  0.00  0.00    +0.159 HD
BRANCH   2  11
ATOM     10  C   UNL     1      -0.019   1.526   0.010  0.00  0.00    +0.024 C 
ATOM     11  C   UNL     1       0.002  -0.004   0.002  0.00  0.00    +0.102 C 
ENDBRANCH   2  11
ENDBRANCH   1   6
BRANCH   1  12
ATOM     12  C   UNL     1       3.864  -3.997   3.679  0.00  0.00    -0.025 A 
ATOM     13  C   UNL     1       4.442  -4.691   2.633  0.00  0.00    +0.005 A 
ATOM     14  C   UNL     1       5.806  -4.612   2.420  0.00  0.00    +0.000 A 
ATOM     15  C   UNL     1       6.591  -3.838   3.253  0.00  0.00    +0.000 A 
ATOM     16  C   UNL     1       6.013  -3.143   4.300  0.00  0.00    +0.000 A 
ATOM     17  C   UNL     1       4.649  -3.219   4.510  0.00  0.00    +0.005 A 
ENDBRANCH   1  12
BRANCH   1  18
ATOM     18  S   UNL     1       1.915  -5.809   4.229  0.00  0.00    -0.071 S 
BRANCH  18  19
ATOM     19  C   UNL     1       2.721  -6.194   5.747  0.00  0.00    +0.183 C 
ATOM     20  N   UNL     1       3.446  -5.260   6.342  0.00  0.00    -0.151 NA
ATOM     21  C   UNL     1       4.080  -5.487   7.492  0.00  0.00    +0.272 C 
ATOM     22  O   UNL     1       4.744  -4.609   8.022  0.00  0.00    -0.268 OA
ATOM     23  C   UNL     1       3.962  -6.835   8.116  0.00  0.00    +0.076 C 
ATOM     24  C   UNL     1       4.541  -7.263   9.299  0.00  0.00    -0.009 C 
ATOM     25  C   UNL     1       4.261  -8.691   9.713  0.00  0.00    +0.113 C 
ATOM     26  S   UNL     1       3.184  -9.259   8.336  0.00  0.00    -0.100 S 
ATOM     27  C   UNL     1       3.158  -7.757   7.388  0.00  0.00    +0.112 C 
ATOM     28  N   UNL     1       2.576  -7.412   6.262  0.00  0.00    -0.217 NA
BRANCH  24  29
ATOM     29  C   UNL     1       5.346  -6.417  10.073  0.00  0.00    +0.017 A 
ATOM     30  C   UNL     1       5.124  -5.926  11.364  0.00  0.00    +0.016 A 
ATOM     31  C   UNL     1       6.104  -5.110  11.862  0.00  0.00    +0.008 A 
ATOM     32  C   UNL     1       7.194  -4.838  11.095  0.00  0.00    +0.046 A 
ATOM     33  S   UNL     1       6.925  -5.691   9.673  0.00  0.00    -0.097 S 
ENDBRANCH  24  29
ENDBRANCH  18  19
ENDBRANCH   1  18
TORSDOF 6
