REMARK  Name = ZINC63791074
REMARK  7 active torsions:
REMARK  status: ('A' for Active; 'I' for Inactive)
REMARK    1  A    between atoms: C_1  and  C_2
REMARK    2  A    between atoms: C_4  and  C_9
REMARK    3  A    between atoms: C_5  and  C_8
REMARK    4  A    between atoms: N_11  and  C_12
REMARK    5  A    between atoms: C_12  and  C_13
REMARK    6  A    between atoms: C_13  and  C_15
REMARK    7  A    between atoms: C_13  and  C_22
REMARK                            x       y       z     vdW  Elec       q    Type
REMARK                         _______ _______ _______ _____ _____    ______ ____
ROOT
ATOM      1  C   UNL     1      -2.341   1.534  -4.323  0.00  0.00    +0.066 C 
ENDROOT
BRANCH   1   2
ATOM      2  C   UNL     1      -2.788   1.671  -5.756  0.00  0.00    -0.033 C 
ATOM      3  C   UNL     1      -3.973   1.282  -6.279  0.00  0.00    -0.000 A 
ATOM      4  C   UNL     1      -5.155   0.639  -5.693  0.00  0.00    +0.010 A 
ATOM      5  C   UNL     1      -6.215   0.366  -6.488  0.00  0.00    +0.001 A 
ATOM      6  C   UNL     1      -6.213   0.681  -7.854  0.00  0.00    +0.002 A 
ATOM      7  C   UNL     1      -5.164   1.273  -8.463  0.00  0.00    +0.026 A 
ATOM      8  C   UNL     1      -3.996   1.605  -7.723  0.00  0.00    +0.043 A 
ATOM      9  N   UNL     1      -2.868   2.172  -8.079  0.00  0.00    -0.380 N 
ATOM     10  C   UNL     1      -2.004   2.277  -6.898  0.00  0.00    +0.145 C 
ATOM     11  H   UNL     1      -2.644   2.474  -8.973  0.00  0.00    +0.160 HD
ENDBRANCH   1   2
BRANCH   1  12
ATOM     12  C   UNL     1      -2.054   2.899  -3.753  0.00  0.00    -0.020 A 
ATOM     13  C   UNL     1      -1.088   3.700  -4.333  0.00  0.00    +0.006 A 
ATOM     14  C   UNL     1      -0.824   4.953  -3.811  0.00  0.00    +0.000 A 
ATOM     15  C   UNL     1      -1.525   5.404  -2.708  0.00  0.00    +0.001 A 
ATOM     16  C   UNL     1      -2.490   4.603  -2.127  0.00  0.00    +0.020 A 
ATOM     17  C   UNL     1      -2.759   3.352  -2.653  0.00  0.00    +0.045 A 
ATOM     18 CL   UNL     1      -3.976   2.348  -1.928  0.00  0.00    -0.083 Cl
ENDBRANCH   1  12
BRANCH   1  19
ATOM     19  C   UNL     1      -1.074   0.679  -4.264  0.00  0.00    +0.117 C 
BRANCH  19  22
ATOM     20  C   UNL     1       0.384  -0.288  -2.567  0.00  0.00    +0.244 C 
ATOM     21  O   UNL     1       1.065  -0.757  -3.462  0.00  0.00    -0.270 OA
ATOM     22  N   UNL     1      -0.707   0.445  -2.865  0.00  0.00    -0.311 N 
ATOM     23  H   UNL     1      -1.249   0.819  -2.152  0.00  0.00    +0.149 HD
BRANCH  20  26
ATOM     24  C   UNL     1      -0.019   1.526   0.010  0.00  0.00    +0.046 C 
ATOM     25  C   UNL     1       0.002  -0.004   0.002  0.00  0.00    +0.182 C 
ATOM     26  C   UNL     1       0.738  -0.513  -1.217  0.00  0.00    +0.066 C 
ATOM     27  C   UNL     1       1.795  -1.222  -0.774  0.00  0.00    +0.046 C 
ATOM     28  N   UNL     1       1.836  -1.236   0.585  0.00  0.00    -0.269 N 
ATOM     29  O   UNL     1       0.750  -0.499   1.122  0.00  0.00    -0.266 OA
ATOM     30  C   UNL     1       2.797  -1.908  -1.666  0.00  0.00    +0.066 C 
ATOM     31  H   UNL     1       2.513  -1.687   1.113  0.00  0.00    +0.194 HD
ENDBRANCH  20  26
ENDBRANCH  19  22
ENDBRANCH   1  19
TORSDOF 5
