REMARK  Name = ZINC15036302
REMARK  6 active torsions:
REMARK  status: ('A' for Active; 'I' for Inactive)
REMARK    1  A    between atoms: C_7  and  C_11
REMARK    2  A    between atoms: N_15  and  C_19
REMARK    3  A    between atoms: C_19  and  C_20
REMARK    4  A    between atoms: N_22  and  C_23
REMARK    5  A    between atoms: C_26  and  S_29
REMARK    6  A    between atoms: S_29  and  N_32
REMARK                            x       y       z     vdW  Elec       q    Type
REMARK                         _______ _______ _______ _____ _____    ______ ____
ROOT
ATOM      1  C   UNL     1      -1.834   0.707   0.188  0.00  0.00    +0.030 C 
ATOM      2  C   UNL     1      -2.302  -0.559   0.006  0.00  0.00    +0.077 C 
ATOM      3  C   UNL     1      -3.647  -1.023  -0.103  0.00  0.00    +0.259 C 
ATOM      4  O   UNL     1      -4.585  -0.249  -0.035  0.00  0.00    -0.269 OA
ATOM      5  N   UNL     1      -3.845  -2.317  -0.284  0.00  0.00    -0.246 N 
ATOM      6  C   UNL     1      -2.804  -3.177  -0.351  0.00  0.00    +0.121 C 
ATOM      7  S   UNL     1      -2.827  -4.875  -0.570  0.00  0.00    -0.027 S 
ATOM      8  S   UNL     1      -1.398  -2.093  -0.154  0.00  0.00    -0.061 S 
ENDROOT
BRANCH   1  15
ATOM      9  C   UNL     1       0.763   4.578  -0.232  0.00  0.00    +0.001 A 
ATOM     10  C   UNL     1       2.121   4.316  -0.109  0.00  0.00    +0.002 A 
ATOM     11  C   UNL     1       2.571   3.034   0.114  0.00  0.00    +0.026 A 
ATOM     12  C   UNL     1       1.661   1.986   0.219  0.00  0.00    +0.047 A 
ATOM     13  C   UNL     1       0.288   2.253   0.094  0.00  0.00    +0.007 A 
ATOM     14  C   UNL     1      -0.153   3.554  -0.131  0.00  0.00    +0.010 A 
ATOM     15  C   UNL     1      -0.393   0.953   0.246  0.00  0.00    +0.001 A 
ATOM     16  C   UNL     1       0.588   0.025   0.454  0.00  0.00    +0.091 A 
ATOM     17  N   UNL     1       1.803   0.631   0.434  0.00  0.00    -0.360 N 
ATOM     18  H   UNL     1       2.651   0.176   0.556  0.00  0.00    +0.165 HD
ENDBRANCH   1  15
BRANCH   5  19
ATOM     19  C   UNL     1      -5.212  -2.828  -0.407  0.00  0.00    +0.211 C 
BRANCH  19  20
ATOM     20  C   UNL     1      -5.740  -3.184   0.959  0.00  0.00    +0.235 C 
ATOM     21  O   UNL     1      -5.043  -3.027   1.939  0.00  0.00    -0.274 OA
ATOM     22  N   UNL     1      -6.987  -3.678   1.092  0.00  0.00    -0.284 N 
ATOM     23  H   UNL     1      -7.518  -3.873   0.304  0.00  0.00    +0.155 HD
BRANCH  22  24
ATOM     24  C   UNL     1      -7.516  -3.909   2.366  0.00  0.00    +0.034 A 
ATOM     25  C   UNL     1      -8.375  -4.979   2.580  0.00  0.00    +0.025 A 
ATOM     26  C   UNL     1      -8.892  -5.207   3.840  0.00  0.00    +0.030 A 
ATOM     27  C   UNL     1      -8.562  -4.365   4.887  0.00  0.00    +0.105 A 
ATOM     28  C   UNL     1      -7.711  -3.296   4.676  0.00  0.00    +0.030 A 
ATOM     29  C   UNL     1      -7.187  -3.065   3.419  0.00  0.00    +0.025 A 
BRANCH  27  30
ATOM     30  S   UNL     1      -9.229  -4.655   6.492  0.00  0.00    +0.056 S 
ATOM     31  O   UNL     1      -9.564  -6.035   6.549  0.00  0.00    -0.153 OA
ATOM     32  O   UNL     1      -8.337  -4.049   7.418  0.00  0.00    -0.153 OA
BRANCH  30  33
ATOM     33  N   UNL     1     -10.654  -3.818   6.589  0.00  0.00    -0.204 NA
ATOM     34  H   UNL     1     -11.373  -4.147   7.152  0.00  0.00    +0.144 HD
ATOM     35  H   UNL     1     -10.770  -2.998   6.084  0.00  0.00    +0.144 HD
ENDBRANCH  30  33
ENDBRANCH  27  30
ENDBRANCH  22  24
ENDBRANCH  19  20
ENDBRANCH   5  19
TORSDOF 6
