REMARK  Name = ZINC00718421
REMARK  8 active torsions:
REMARK  status: ('A' for Active; 'I' for Inactive)
REMARK    1  A    between atoms: C_1  and  C_2
REMARK    2  A    between atoms: C_11  and  C_22
REMARK    3  A    between atoms: C_17  and  N_21
REMARK    4  A    between atoms: C_18  and  C_19
REMARK    5  A    between atoms: C_25  and  O_30
REMARK    6  A    between atoms: C_26  and  O_28
REMARK    7  A    between atoms: O_28  and  C_29
REMARK    8  A    between atoms: O_30  and  C_31
REMARK                            x       y       z     vdW  Elec       q    Type
REMARK                         _______ _______ _______ _____ _____    ______ ____
ROOT
ATOM      1  C   UNL     1       0.882   0.832  -0.116  0.00  0.00    +0.045 C 
ATOM      2  C   UNL     1       0.653  -0.655  -0.032  0.00  0.00    -0.036 A 
ATOM      3  C   UNL     1       0.609  -1.399  -1.193  0.00  0.00    +0.006 A 
ATOM      4  C   UNL     1       0.402  -2.769  -1.180  0.00  0.00    +0.024 A 
ATOM      5  C   UNL     1       0.239  -3.378   0.066  0.00  0.00    +0.039 A 
ATOM      6  C   UNL     1       0.287  -2.613   1.238  0.00  0.00    +0.013 A 
ATOM      7  C   UNL     1       0.498  -1.250   1.216  0.00  0.00    +0.027 A 
ATOM      8 BR   UNL     1       0.567  -0.236   2.811  0.00  0.00    -0.050 Br
ATOM      9  C   UNL     1       0.079  -3.569   2.368  0.00  0.00    +0.146 C 
ATOM     10  C   UNL     1      -1.150  -3.226   3.160  0.00  0.00    +0.066 A 
ATOM     11  C   UNL     1      -2.498  -3.303   2.795  0.00  0.00    +0.101 A 
ATOM     12  N   UNL     1      -3.221  -2.897   3.822  0.00  0.00    -0.171 NA
ATOM     13  N   UNL     1      -2.350  -2.550   4.866  0.00  0.00    -0.246 N 
ATOM     14  H   UNL     1      -2.611  -2.219   5.740  0.00  0.00    +0.192 HD
ATOM     15  C   UNL     1      -1.087  -2.758   4.442  0.00  0.00    +0.224 A 
ATOM     16  O   UNL     1       0.088  -2.569   5.093  0.00  0.00    -0.423 OA
ATOM     17  C   UNL     1       1.203  -3.103   4.554  0.00  0.00    +0.201 C 
ATOM     18  C   UNL     1       1.267  -3.587   3.291  0.00  0.00    +0.110 C 
ATOM     19  C   UNL     1      -0.085  -4.916   1.699  0.00  0.00    +0.238 C 
ATOM     20  O   UNL     1      -0.276  -5.978   2.253  0.00  0.00    -0.274 OA
ATOM     21  N   UNL     1       0.021  -4.711   0.369  0.00  0.00    -0.284 N 
ATOM     22  H   UNL     1      -0.047  -5.414  -0.295  0.00  0.00    +0.155 HD
ENDROOT
BRANCH  11  23
ATOM     23  C   UNL     1      -3.022  -3.760   1.484  0.00  0.00    +0.006 A 
ATOM     24  C   UNL     1      -2.514  -3.223   0.304  0.00  0.00    +0.014 A 
ATOM     25  C   UNL     1      -3.001  -3.649  -0.915  0.00  0.00    +0.050 A 
ATOM     26  C   UNL     1      -3.998  -4.612  -0.968  0.00  0.00    +0.162 A 
ATOM     27  C   UNL     1      -4.510  -5.152   0.209  0.00  0.00    +0.162 A 
ATOM     28  C   UNL     1      -4.020  -4.732   1.433  0.00  0.00    +0.059 A 
BRANCH  27  29
ATOM     29  O   UNL     1      -5.488  -6.095   0.156  0.00  0.00    -0.491 OA
ATOM     30  C   UNL     1      -5.967  -6.605   1.402  0.00  0.00    +0.277 C 
ENDBRANCH  27  29
BRANCH  26  31
ATOM     31  O   UNL     1      -4.476  -5.029  -2.170  0.00  0.00    -0.491 OA
ATOM     32  C   UNL     1      -3.906  -4.433  -3.337  0.00  0.00    +0.277 C 
ENDBRANCH  26  31
ENDBRANCH  11  23
BRANCH  17  33
ATOM     33  N   UNL     1       2.335  -3.157   5.327  0.00  0.00    -0.328 N 
ATOM     34  H   UNL     1       2.319  -2.817   6.236  0.00  0.00    +0.145 HD
ATOM     35  H   UNL     1       3.152  -3.536   4.966  0.00  0.00    +0.145 HD
ENDBRANCH  17  33
BRANCH  18  36
ATOM     36  C   UNL     1       2.503  -4.135   2.820  0.00  0.00    +0.102 C 
ATOM     37  N   UNL     1       3.484  -4.570   2.447  0.00  0.00    -0.191 NA
ENDBRANCH  18  36
TORSDOF 5
