REMARK  Name = ZINC39228325
REMARK  4 active torsions:
REMARK  status: ('A' for Active; 'I' for Inactive)
REMARK    1  A    between atoms: C_15  and  C_17
REMARK    2  A    between atoms: C_23  and  C_25
REMARK    3  A    between atoms: N_27  and  C_28
REMARK    4  A    between atoms: C_28  and  C_29
REMARK                            x       y       z     vdW  Elec       q    Type
REMARK                         _______ _______ _______ _____ _____    ______ ____
ROOT
ATOM      1  C   UNL     1      -8.043   2.198  -6.384  0.00  0.00    +0.001 A 
ATOM      2  C   UNL     1      -7.553   3.482  -6.579  0.00  0.00    +0.002 A 
ATOM      3  C   UNL     1      -7.009   4.193  -5.532  0.00  0.00    +0.026 A 
ATOM      4  C   UNL     1      -6.947   3.620  -4.266  0.00  0.00    +0.047 A 
ATOM      5  N   UNL     1      -6.475   4.062  -3.049  0.00  0.00    -0.356 N 
ATOM      6  C   UNL     1      -6.652   3.094  -2.103  0.00  0.00    +0.038 A 
ATOM      7  H   UNL     1      -6.075   4.931  -2.889  0.00  0.00    +0.166 HD
ATOM      8  C   UNL     1      -6.265   3.171  -0.642  0.00  0.00    +0.161 C 
ATOM      9  N   UNL     1      -6.885   2.023   0.040  0.00  0.00    -0.295 N 
ATOM     10  C   UNL     1      -6.811   0.703  -0.606  0.00  0.00    +0.113 C 
ATOM     11  C   UNL     1      -7.593   0.749  -1.925  0.00  0.00    +0.056 C 
ATOM     12  C   UNL     1      -7.236   2.015  -2.659  0.00  0.00    -0.016 A 
ATOM     13  C   UNL     1      -7.444   2.317  -4.073  0.00  0.00    +0.003 A 
ATOM     14  C   UNL     1      -7.997   1.618  -5.148  0.00  0.00    +0.010 A 
ATOM     15  C   UNL     1      -7.506   2.177   1.226  0.00  0.00    +0.220 C 
ATOM     16  O   UNL     1      -7.478   3.250   1.791  0.00  0.00    -0.275 OA
ENDROOT
BRANCH  15  17
ATOM     17  C   UNL     1      -8.236   1.016   1.851  0.00  0.00    +0.087 C 
ATOM     18  C   UNL     1      -7.269   0.216   2.726  0.00  0.00    +0.013 C 
ATOM     19  C   UNL     1      -8.010  -0.962   3.360  0.00  0.00    +0.001 C 
ATOM     20  C   UNL     1      -9.161  -0.438   4.221  0.00  0.00    +0.001 C 
ATOM     21  C   UNL     1     -10.129   0.362   3.345  0.00  0.00    +0.013 C 
ATOM     22  C   UNL     1      -9.388   1.540   2.711  0.00  0.00    +0.087 C 
BRANCH  22  23
ATOM     23  C   UNL     1     -10.340   2.328   1.849  0.00  0.00    +0.217 C 
ATOM     24  O   UNL     1     -10.120   2.457   0.663  0.00  0.00    -0.275 OA
ATOM     25  N   UNL     1     -11.437   2.889   2.396  0.00  0.00    -0.310 N 
ATOM     26  H   UNL     1     -11.613   2.786   3.344  0.00  0.00    +0.149 HD
BRANCH  25  27
ATOM     27  C   UNL     1     -12.363   3.654   1.558  0.00  0.00    +0.146 C 
BRANCH  27  28
ATOM     28  C   UNL     1     -13.497   4.171   2.405  0.00  0.00    +0.007 A 
ATOM     29  C   UNL     1     -13.595   5.344   3.077  0.00  0.00    +0.013 A 
ATOM     30  C   UNL     1     -14.744   5.611   3.798  0.00  0.00    +0.008 A 
ATOM     31  C   UNL     1     -15.739   4.691   3.812  0.00  0.00    +0.045 A 
ATOM     32  S   UNL     1     -15.064   3.401   2.778  0.00  0.00    -0.100 S 
ENDBRANCH  27  28
ENDBRANCH  25  27
ENDBRANCH  22  23
ENDBRANCH  15  17
TORSDOF 4
