REMARK  Name = ZINC38074219
REMARK  5 active torsions:
REMARK  status: ('A' for Active; 'I' for Inactive)
REMARK    1  A    between atoms: C_1  and  O_2
REMARK    2  A    between atoms: O_2  and  C_3
REMARK    3  A    between atoms: C_6  and  C_10
REMARK    4  A    between atoms: C_12  and  C_15
REMARK    5  A    between atoms: C_19  and  N_21
REMARK                            x       y       z     vdW  Elec       q    Type
REMARK                         _______ _______ _______ _____ _____    ______ ____
ROOT
ATOM      1  C   UNL     1       2.491  -2.491  -4.362  0.00  0.00    +0.259 A 
ATOM      2  N   UNL     1       2.600  -3.786  -4.552  0.00  0.00    -0.187 NA
ATOM      3  C   UNL     1       3.253  -4.027  -5.699  0.00  0.00    +0.202 A 
ATOM      4  N   UNL     1       3.570  -2.882  -6.255  0.00  0.00    -0.056 NA
ATOM      5  O   UNL     1       3.075  -1.864  -5.399  0.00  0.00    -0.332 OA
ENDROOT
BRANCH   1   9
ATOM      6  C   UNL     1       0.605  -0.607  -1.055  0.00  0.00    +0.134 A 
ATOM      7  C   UNL     1       1.172   0.165  -2.061  0.00  0.00    +0.047 A 
ATOM      8  C   UNL     1       1.785  -0.442  -3.136  0.00  0.00    +0.017 A 
ATOM      9  C   UNL     1       1.836  -1.836  -3.212  0.00  0.00    +0.041 A 
ATOM     10  C   UNL     1       1.266  -2.609  -2.198  0.00  0.00    +0.032 A 
ATOM     11  C   UNL     1       0.659  -1.994  -1.124  0.00  0.00    +0.060 A 
ATOM     12 BR   UNL     1      -0.108  -3.038   0.253  0.00  0.00    -0.046 Br
BRANCH   6  14
ATOM     13  C   UNL     1      -0.017   1.425   0.010  0.00  0.00    +0.277 C 
ATOM     14  O   UNL     1       0.002  -0.004   0.002  0.00  0.00    -0.494 OA
ENDBRANCH   6  14
ENDBRANCH   1   9
BRANCH   3  15
ATOM     15  C   UNL     1       3.567  -5.370  -6.248  0.00  0.00    +0.024 A 
ATOM     16  C   UNL     1       3.171  -6.516  -5.561  0.00  0.00    +0.012 A 
ATOM     17  C   UNL     1       3.463  -7.764  -6.073  0.00  0.00    +0.002 A 
ATOM     18  C   UNL     1       4.149  -7.883  -7.267  0.00  0.00    +0.023 A 
ATOM     19  C   UNL     1       4.548  -6.745  -7.959  0.00  0.00    +0.025 A 
ATOM     20  C   UNL     1       4.254  -5.488  -7.453  0.00  0.00    +0.034 A 
BRANCH  19  21
ATOM     21  N   UNL     1       5.242  -6.869  -9.165  0.00  0.00    -0.358 N 
ATOM     22  H   UNL     1       5.445  -7.749  -9.520  0.00  0.00    +0.142 HD
ATOM     23  H   UNL     1       5.521  -6.075  -9.648  0.00  0.00    +0.142 HD
ENDBRANCH  19  21
ENDBRANCH   3  15
TORSDOF 4
