REMARK  Name = ZINC16399047
REMARK  3 active torsions:
REMARK  status: ('A' for Active; 'I' for Inactive)
REMARK    1  A    between atoms: C_3  and  C_8
REMARK    2  A    between atoms: C_9  and  C_14
REMARK    3  A    between atoms: N_18  and  C_19
REMARK                            x       y       z     vdW  Elec       q    Type
REMARK                         _______ _______ _______ _____ _____    ______ ____
ROOT
ATOM      1  C   UNL     1       3.677   1.925   0.167  0.00  0.00    +0.077 A 
ATOM      2  C   UNL     1       4.723   1.824  -0.745  0.00  0.00    +0.066 A 
ATOM      3  C   UNL     1       5.617   2.877  -0.471  0.00  0.00    +0.146 A 
ATOM      4  N   UNL     1       5.149   3.568   0.533  0.00  0.00    -0.181 NA
ATOM      5  N   UNL     1       3.938   3.005   0.953  0.00  0.00    -0.276 N 
ATOM      6  H   UNL     1       3.382   3.329   1.679  0.00  0.00    +0.189 HD
ENDROOT
BRANCH   1   9
ATOM      7  C   UNL     1       0.132   0.732   0.499  0.00  0.00    +0.002 A 
ATOM      8  C   UNL     1       1.224   1.570   0.412  0.00  0.00    +0.010 A 
ATOM      9  C   UNL     1       2.503   1.032   0.261  0.00  0.00    +0.002 A 
ATOM     10  C   UNL     1       2.669  -0.353   0.199  0.00  0.00    +0.030 A 
ATOM     11  C   UNL     1       1.568  -1.181   0.286  0.00  0.00    +0.042 A 
ATOM     12  C   UNL     1       0.302  -0.640   0.436  0.00  0.00    +0.020 A 
ATOM     13 CL   UNL     1       1.770  -2.903   0.208  0.00  0.00    -0.084 Cl
ENDBRANCH   1   9
BRANCH   2  14
ATOM     14  C   UNL     1       4.869   0.802  -1.801  0.00  0.00    +0.190 A 
ATOM     15  N   UNL     1       3.941   0.419  -2.656  0.00  0.00    -0.108 NA
ATOM     16  N   UNL     1       4.400  -0.488  -3.441  0.00  0.00    -0.022 NA
ATOM     17  N   UNL     1       5.630  -0.752  -3.159  0.00  0.00    -0.039 NA
ATOM     18  N   UNL     1       5.991   0.079  -2.084  0.00  0.00    -0.193 N 
BRANCH  18  19
ATOM     19  C   UNL     1       7.234   0.148  -1.440  0.00  0.00    +0.070 A 
ATOM     20  C   UNL     1       7.296   0.235  -0.056  0.00  0.00    +0.029 A 
ATOM     21  C   UNL     1       8.523   0.303   0.576  0.00  0.00    +0.022 A 
ATOM     22  C   UNL     1       9.688   0.284  -0.169  0.00  0.00    +0.041 A 
ATOM     23  C   UNL     1       9.629   0.198  -1.549  0.00  0.00    +0.022 A 
ATOM     24  C   UNL     1       8.406   0.123  -2.185  0.00  0.00    +0.029 A 
ATOM     25 CL   UNL     1      11.228   0.370   0.628  0.00  0.00    -0.084 Cl
ENDBRANCH  18  19
ENDBRANCH   2  14
TORSDOF 3
