REMARK  Name = ZINC24574558
REMARK  4 active torsions:
REMARK  status: ('A' for Active; 'I' for Inactive)
REMARK    1  A    between atoms: C_1  and  C_2
REMARK    2  A    between atoms: N_11  and  C_15
REMARK    3  A    between atoms: C_15  and  N_16
REMARK    4  A    between atoms: C_19  and  C_22
REMARK                            x       y       z     vdW  Elec       q    Type
REMARK                         _______ _______ _______ _____ _____    ______ ____
ROOT
ATOM      1  C   UNL     1       5.409   2.510   1.464  0.00  0.00    +0.010 C 
ATOM      2  C   UNL     1       5.950   3.808   0.863  0.00  0.00    +0.018 C 
ATOM      3  C   UNL     1       6.904   4.473   1.859  0.00  0.00    +0.006 C 
ATOM      4  C   UNL     1       7.429   5.781   1.265  0.00  0.00    +0.000 C 
ATOM      5  C   UNL     1       6.256   6.724   0.989  0.00  0.00    +0.003 C 
ATOM      6  C   UNL     1       5.300   6.069  -0.010  0.00  0.00    +0.035 C 
ATOM      7  C   UNL     1       4.790   4.750   0.560  0.00  0.00    +0.115 C 
ATOM      8  C   UNL     1       3.821   4.100  -0.402  0.00  0.00    +0.248 C 
ATOM      9  O   UNL     1       4.049   3.729  -1.533  0.00  0.00    -0.273 OA
ATOM     10  N   UNL     1       2.651   4.021   0.264  0.00  0.00    -0.211 N 
ATOM     11  C   UNL     1       2.750   4.532   1.498  0.00  0.00    +0.310 C 
ATOM     12  O   UNL     1       1.827   4.577   2.286  0.00  0.00    -0.252 OA
ATOM     13  N   UNL     1       3.989   4.986   1.767  0.00  0.00    -0.285 N 
ATOM     14  H   UNL     1       4.449   5.454   2.650  0.00  0.00    +0.151 HD
ENDROOT
BRANCH  10  15
ATOM     15  C   UNL     1       1.422   3.451  -0.295  0.00  0.00    +0.205 C 
BRANCH  15  16
ATOM     16  N   UNL     1       1.371   2.013  -0.000  0.00  0.00    -0.282 NA
ATOM     17  C   UNL     1      -0.019   1.526   0.010  0.00  0.00    +0.091 C 
ATOM     18  C   UNL     1       0.002  -0.004   0.002  0.00  0.00    +0.051 C 
ATOM     19  C   UNL     1       0.944  -0.504   1.062  0.00  0.00    -0.042 C 
ATOM     20  C   UNL     1       1.847   0.265   1.629  0.00  0.00    -0.007 C 
ATOM     21  C   UNL     1       2.023   1.715   1.281  0.00  0.00    +0.113 C 
BRANCH  19  22
ATOM     22  C   UNL     1       0.850  -1.917   1.484  0.00  0.00    -0.022 A 
ATOM     23  C   UNL     1       1.140  -2.940   0.580  0.00  0.00    +0.008 A 
ATOM     24  C   UNL     1       1.056  -4.257   0.982  0.00  0.00    +0.001 A 
ATOM     25  C   UNL     1       0.674  -4.565   2.276  0.00  0.00    +0.000 A 
ATOM     26  C   UNL     1       0.380  -3.556   3.175  0.00  0.00    +0.001 A 
ATOM     27  C   UNL     1       0.465  -2.235   2.787  0.00  0.00    +0.008 A 
ENDBRANCH  19  22
ENDBRANCH  15  16
ENDBRANCH  10  15
TORSDOF 3
