REMARK  Name = ZINC16757286
REMARK  6 active torsions:
REMARK  status: ('A' for Active; 'I' for Inactive)
REMARK    1  A    between atoms: C_1  and  C_2
REMARK    2  A    between atoms: C_2  and  C_3
REMARK    3  A    between atoms: C_6  and  C_9
REMARK    4  A    between atoms: C_13  and  C_25
REMARK    5  A    between atoms: C_28  and  O_31
REMARK    6  A    between atoms: O_31  and  C_32
REMARK                            x       y       z     vdW  Elec       q    Type
REMARK                         _______ _______ _______ _____ _____    ______ ____
ROOT
ATOM      1  C   UNL     1       1.144  -2.268  -0.322  0.00  0.00    +0.065 C 
ATOM      2  C   UNL     1       1.929  -2.865  -1.497  0.00  0.00    +0.094 C 
ATOM      3  N   UNL     1       2.236  -4.275  -1.215  0.00  0.00    -0.304 NA
ATOM      4  C   UNL     1       3.256  -4.403  -0.162  0.00  0.00    +0.131 C 
ATOM      5  C   UNL     1       2.823  -3.577   1.027  0.00  0.00    +0.043 A 
ATOM      6  C   UNL     1       1.872  -2.619   0.951  0.00  0.00    -0.009 A 
ATOM      7  C   UNL     1       1.730  -2.053   2.274  0.00  0.00    +0.004 A 
ATOM      8  C   UNL     1       0.912  -1.044   2.794  0.00  0.00    +0.010 A 
ATOM      9  C   UNL     1       1.050  -0.760   4.130  0.00  0.00    +0.001 A 
ATOM     10  C   UNL     1       1.953  -1.433   4.937  0.00  0.00    +0.002 A 
ATOM     11  C   UNL     1       2.774  -2.435   4.449  0.00  0.00    +0.026 A 
ATOM     12  C   UNL     1       2.656  -2.746   3.096  0.00  0.00    +0.047 A 
ATOM     13  N   UNL     1       3.297  -3.659   2.308  0.00  0.00    -0.356 N 
ATOM     14  H   UNL     1       4.081  -4.388   2.559  0.00  0.00    +0.166 HD
ATOM     15  H   UNL     1       1.322  -4.789  -0.880  0.00  0.00    +0.123 HD
ENDROOT
BRANCH   1  19
ATOM     16  C   UNL     1       0.926   1.978  -0.737  0.00  0.00    -0.048 A 
ATOM     17  C   UNL     1      -0.234   1.226  -0.701  0.00  0.00    +0.004 A 
ATOM     18  C   UNL     1      -0.164  -0.148  -0.567  0.00  0.00    +0.004 A 
ATOM     19  C   UNL     1       1.067  -0.770  -0.469  0.00  0.00    -0.039 A 
ATOM     20  C   UNL     1       2.226  -0.019  -0.506  0.00  0.00    +0.004 A 
ATOM     21  C   UNL     1       2.156   1.355  -0.641  0.00  0.00    +0.004 A 
BRANCH  16  23
ATOM     22  C   UNL     1       0.778   4.121   0.502  0.00  0.00    +0.009 C 
ATOM     23  C   UNL     1       0.849   3.476  -0.884  0.00  0.00    +0.032 C 
ENDBRANCH  16  23
ENDBRANCH   1  19
BRANCH   4  24
ATOM     24  C   UNL     1       4.579  -3.897  -0.675  0.00  0.00    -0.024 A 
ATOM     25  C   UNL     1       4.912  -4.063  -2.006  0.00  0.00    +0.009 A 
ATOM     26  C   UNL     1       6.123  -3.595  -2.481  0.00  0.00    +0.046 A 
ATOM     27  C   UNL     1       7.009  -2.969  -1.617  0.00  0.00    +0.127 A 
ATOM     28  C   UNL     1       6.675  -2.808  -0.280  0.00  0.00    +0.046 A 
ATOM     29  C   UNL     1       5.461  -3.272   0.188  0.00  0.00    +0.009 A 
BRANCH  27  30
ATOM     30  O   UNL     1       8.203  -2.514  -2.079  0.00  0.00    -0.434 OA
BRANCH  30  31
ATOM     31  C   UNL     1       8.480  -2.713  -3.467  0.00  0.00    +0.541 C 
ATOM     32  F   UNL     1       8.464  -4.083  -3.753  0.00  0.00    -0.166 F 
ATOM     33  F   UNL     1       7.508  -2.064  -4.235  0.00  0.00    -0.166 F 
ENDBRANCH  30  31
ENDBRANCH  27  30
ENDBRANCH   4  24
TORSDOF 5
