REMARK  Name = ZINC39689313
REMARK  7 active torsions:
REMARK  status: ('A' for Active; 'I' for Inactive)
REMARK    1  A    between atoms: C_1  and  C_2
REMARK    2  A    between atoms: C_6  and  C_8
REMARK    3  A    between atoms: C_8  and  C_9
REMARK    4  A    between atoms: C_9  and  N_10
REMARK    5  A    between atoms: C_11  and  C_13
REMARK    6  A    between atoms: C_24  and  C_26
REMARK    7  A    between atoms: C_32  and  C_34
REMARK                            x       y       z     vdW  Elec       q    Type
REMARK                         _______ _______ _______ _____ _____    ______ ____
ROOT
ATOM      1  C   UNL     1       2.709  -4.908   6.063  0.00  0.00    +0.100 C 
ATOM      2  C   UNL     1       1.957  -6.249   5.911  0.00  0.00    +0.121 C 
ATOM      3  N   UNL     1       3.016  -7.240   5.606  0.00  0.00    -0.299 N 
ATOM      4  C   UNL     1       4.152  -6.843   6.472  0.00  0.00    +0.115 C 
ATOM      5  C   UNL     1       4.148  -5.302   6.434  0.00  0.00    -0.004 C 
ATOM      6  C   UNL     1       4.513  -4.739   7.805  0.00  0.00    -0.010 C 
ATOM      7  C   UNL     1       5.967  -5.094   8.127  0.00  0.00    -0.082 C 
ATOM      8  N   UNL     1       6.849  -4.535   7.095  0.00  0.00    +0.379 N 
ATOM      9  C   UNL     1       6.553  -5.151   5.796  0.00  0.00    -0.082 C 
ATOM     10  C   UNL     1       5.124  -4.798   5.375  0.00  0.00    -0.010 C 
ATOM     11  C   UNL     1       2.959  -8.269   4.739  0.00  0.00    +0.236 C 
ATOM     12  O   UNL     1       3.918  -8.999   4.599  0.00  0.00    -0.274 OA
ATOM     13  H   UNL     1       6.704  -3.538   7.035  0.00  0.00    -0.086 HD
ATOM     14  H   UNL     1       7.811  -4.717   7.342  0.00  0.00    -0.086 HD
ENDROOT
BRANCH  11  15
ATOM     15  C   UNL     1       1.704  -8.514   3.941  0.00  0.00    +0.162 C 
ATOM     16  C   UNL     1       0.666  -9.255   4.809  0.00  0.00    +0.033 C 
ATOM     17  C   UNL     1       0.017 -10.244   3.805  0.00  0.00    +0.021 C 
ATOM     18  C   UNL     1       1.225 -10.621   2.913  0.00  0.00    +0.109 C 
ATOM     19  N   UNL     1       2.005  -9.373   2.786  0.00  0.00    -0.283 N 
ATOM     20  C   UNL     1       2.851  -9.070   1.781  0.00  0.00    +0.320 C 
ATOM     21  O   UNL     1       3.439  -8.009   1.783  0.00  0.00    -0.266 OA
BRANCH  20  22
ATOM     22  C   UNL     1       3.065 -10.049   0.656  0.00  0.00    +0.470 C 
ATOM     23  F   UNL     1       3.979  -9.515  -0.259  0.00  0.00    -0.162 F 
ATOM     24  F   UNL     1       3.568 -11.248   1.171  0.00  0.00    -0.162 F 
ATOM     25  F   UNL     1       1.848 -10.292   0.011  0.00  0.00    -0.162 F 
ENDBRANCH  20  22
ENDBRANCH  11  15
BRANCH   1  27
ATOM     26  N   UNL     1       2.753  -2.801   4.768  0.00  0.00    -0.315 N 
ATOM     27  C   UNL     1       2.692  -4.147   4.762  0.00  0.00    +0.218 C 
ATOM     28  O   UNL     1       2.624  -4.747   3.710  0.00  0.00    -0.275 OA
ATOM     29  H   UNL     1       2.807  -2.322   5.609  0.00  0.00    +0.149 HD
BRANCH  26  30
ATOM     30  C   UNL     1       2.737  -2.062   3.503  0.00  0.00    +0.109 C 
BRANCH  30  31
ATOM     31  C   UNL     1       2.815  -0.561   3.788  0.00  0.00    +0.054 C 
BRANCH  31  37
ATOM     32  C   UNL     1       5.266   1.517  -0.048  0.00  0.00    +0.044 C 
ATOM     33  C   UNL     1       3.972   1.194   0.652  0.00  0.00    -0.050 A 
ATOM     34  C   UNL     1       2.769   1.596   0.102  0.00  0.00    +0.003 A 
ATOM     35  C   UNL     1       1.581   1.300   0.744  0.00  0.00    +0.001 A 
ATOM     36  C   UNL     1       1.597   0.602   1.938  0.00  0.00    +0.004 A 
ATOM     37  C   UNL     1       2.799   0.200   2.488  0.00  0.00    -0.046 A 
ATOM     38  C   UNL     1       3.986   0.492   1.843  0.00  0.00    +0.007 A 
ENDBRANCH  31  37
ENDBRANCH  30  31
ENDBRANCH  26  30
ENDBRANCH   1  27
TORSDOF 6
