REMARK  Name = ZINC42867087
REMARK  5 active torsions:
REMARK  status: ('A' for Active; 'I' for Inactive)
REMARK    1  A    between atoms: C_1  and  C_2
REMARK    2  A    between atoms: C_8  and  C_10
REMARK    3  A    between atoms: C_10  and  N_11
REMARK    4  A    between atoms: C_12  and  C_16
REMARK    5  A    between atoms: C_21  and  N_22
REMARK                            x       y       z     vdW  Elec       q    Type
REMARK                         _______ _______ _______ _____ _____    ______ ____
ROOT
ATOM      1  N   UNL     1       2.708  -0.433   2.545  0.00  0.00    -0.225 N 
ATOM      2  C   UNL     1       2.969   0.368   3.608  0.00  0.00    +0.184 A 
ATOM      3  N   UNL     1       3.783  -0.297   4.402  0.00  0.00    -0.108 NA
ATOM      4  N   UNL     1       4.046  -1.453   3.909  0.00  0.00    -0.023 NA
ATOM      5  N   UNL     1       3.429  -1.615   2.789  0.00  0.00    -0.044 NA
ENDROOT
BRANCH   2   6
ATOM      6  C   UNL     1       2.440   1.730   3.833  0.00  0.00    +0.043 A 
ATOM      7  C   UNL     1       2.501   2.683   2.816  0.00  0.00    +0.033 A 
ATOM      8  C   UNL     1       2.006   3.953   3.031  0.00  0.00    +0.042 A 
ATOM      9  C   UNL     1       1.447   4.287   4.254  0.00  0.00    +0.022 A 
ATOM     10  C   UNL     1       1.380   3.353   5.269  0.00  0.00    +0.025 A 
ATOM     11  C   UNL     1       1.868   2.069   5.067  0.00  0.00    +0.035 A 
ATOM     12 CL   UNL     1       2.084   5.138   1.765  0.00  0.00    -0.084 Cl
BRANCH  11  13
ATOM     13  N   UNL     1       1.796   1.124   6.088  0.00  0.00    -0.357 N 
ATOM     14  H   UNL     1       2.141   0.229   5.945  0.00  0.00    +0.142 HD
ATOM     15  H   UNL     1       1.400   1.361   6.941  0.00  0.00    +0.142 HD
ENDBRANCH  11  13
ENDBRANCH   2   6
BRANCH   1  16
ATOM     16  C   UNL     1       1.854  -0.134   1.393  0.00  0.00    +0.151 C 
BRANCH  16  23
ATOM     17  C   UNL     1      -0.428   1.401   0.382  0.00  0.00    +0.008 C 
ATOM     18  C   UNL     1      -0.500  -0.118   0.556  0.00  0.00    -0.009 C 
ATOM     19  C   UNL     1      -1.941  -0.527   0.869  0.00  0.00    +0.003 C 
ATOM     20  C   UNL     1      -2.013  -2.046   1.043  0.00  0.00    +0.000 C 
ATOM     21  C   UNL     1      -1.099  -2.471   2.194  0.00  0.00    +0.000 C 
ATOM     22  C   UNL     1       0.341  -2.062   1.881  0.00  0.00    +0.005 C 
ATOM     23  C   UNL     1       0.413  -0.543   1.707  0.00  0.00    +0.013 C 
ENDBRANCH  16  23
ENDBRANCH   1  16
TORSDOF 4
