REMARK  Name = ZINC36818918
REMARK  5 active torsions:
REMARK  status: ('A' for Active; 'I' for Inactive)
REMARK    1  A    between atoms: C_1  and  C_2
REMARK    2  A    between atoms: N_10  and  N_14
REMARK    3  A    between atoms: C_15  and  C_17
REMARK    4  A    between atoms: C_17  and  S_18
REMARK    5  A    between atoms: S_18  and  C_19
REMARK                            x       y       z     vdW  Elec       q    Type
REMARK                         _______ _______ _______ _____ _____    ______ ____
ROOT
ATOM      1  N   UNL     1       2.453  -6.069  -0.337  0.00  0.00    -0.223 N 
ATOM      2  C   UNL     1       3.103  -6.522  -1.427  0.00  0.00    +0.240 C 
ATOM      3  O   UNL     1       3.111  -5.865  -2.446  0.00  0.00    -0.273 OA
ATOM      4  H   UNL     1       2.447  -6.595   0.478  0.00  0.00    +0.174 HD
ENDROOT
BRANCH   1  14
ATOM      5  C   UNL     1      -1.808   0.617  -0.611  0.00  0.00    +0.007 C 
ATOM      6  C   UNL     1      -1.580  -0.895  -0.591  0.00  0.00    -0.014 C 
ATOM      7  C   UNL     1      -0.722  -1.297  -1.793  0.00  0.00    +0.006 C 
ATOM      8  C   UNL     1      -0.503  -2.813  -1.778  0.00  0.00    +0.035 C 
ATOM      9  C   UNL     1       0.188  -3.215  -0.480  0.00  0.00    +0.114 C 
ATOM     10  C   UNL     1      -0.647  -2.801   0.727  0.00  0.00    +0.035 C 
ATOM     11  C   UNL     1      -0.865  -1.286   0.703  0.00  0.00    +0.006 C 
ATOM     12  C   UNL     1       0.445  -4.704  -0.459  0.00  0.00    +0.263 C 
ATOM     13  O   UNL     1      -0.380  -5.592  -0.502  0.00  0.00    -0.271 OA
ATOM     14  N   UNL     1       1.785  -4.838  -0.381  0.00  0.00    -0.137 N 
ATOM     15  C   UNL     1       2.398  -3.648  -0.352  0.00  0.00    +0.326 C 
ATOM     16  O   UNL     1       3.604  -3.510  -0.283  0.00  0.00    -0.251 OA
ATOM     17  N   UNL     1       1.529  -2.621  -0.406  0.00  0.00    -0.284 N 
ATOM     18  H   UNL     1       1.745  -1.675  -0.398  0.00  0.00    +0.151 HD
ENDBRANCH   1  14
BRANCH   2  19
ATOM     19  C   UNL     1       3.821  -7.846  -1.379  0.00  0.00    +0.174 C 
BRANCH  19  20
ATOM     20  S   UNL     1       4.592  -8.174  -2.988  0.00  0.00    -0.077 S 
BRANCH  20  21
ATOM     21  C   UNL     1       5.381  -9.735  -2.772  0.00  0.00    +0.191 A 
ATOM     22  N   UNL     1       5.290 -10.355  -1.601  0.00  0.00    -0.207 NA
ATOM     23  C   UNL     1       5.860 -11.527  -1.380  0.00  0.00    +0.129 A 
ATOM     24  C   UNL     1       6.596 -12.151  -2.427  0.00  0.00    +0.051 A 
ATOM     25  C   UNL     1       7.305 -13.432  -2.409  0.00  0.00    -0.025 A 
ATOM     26  C   UNL     1       7.932 -13.801  -3.544  0.00  0.00    -0.004 A 
ATOM     27  S   UNL     1       7.623 -12.485  -4.691  0.00  0.00    -0.073 S 
ATOM     28  C   UNL     1       6.650 -11.438  -3.640  0.00  0.00    +0.115 A 
ATOM     29  N   UNL     1       6.049 -10.272  -3.784  0.00  0.00    -0.214 NA
ATOM     30  C   UNL     1       8.720 -15.053  -3.780  0.00  0.00    +0.043 C 
ATOM     31  C   UNL     1       9.029 -15.696  -2.421  0.00  0.00    +0.005 C 
ATOM     32  C   UNL     1       7.739 -15.741  -1.596  0.00  0.00    +0.005 C 
ATOM     33  C   UNL     1       7.345 -14.325  -1.171  0.00  0.00    +0.037 C 
ATOM     34  N   UNL     1       5.743 -12.140  -0.146  0.00  0.00    -0.343 N 
ATOM     35  H   UNL     1       5.063 -11.845   0.479  0.00  0.00    +0.144 HD
ATOM     36  H   UNL     1       6.340 -12.866   0.094  0.00  0.00    +0.144 HD
ENDBRANCH  20  21
ENDBRANCH  19  20
ENDBRANCH   2  19
TORSDOF 4
