REMARK  Name = ZINC09789132
REMARK  5 active torsions:
REMARK  status: ('A' for Active; 'I' for Inactive)
REMARK    1  A    between atoms: C_8  and  C_32
REMARK    2  A    between atoms: C_11  and  C_12
REMARK    3  A    between atoms: C_11  and  N_56
REMARK    4  A    between atoms: C_15  and  C_27
REMARK    5  A    between atoms: C_18  and  C_20
REMARK                            x       y       z     vdW  Elec       q    Type
REMARK                         _______ _______ _______ _____ _____    ______ ____
ROOT
ATOM      1  C   UNL     1      -1.903   3.874  -2.741  0.00  0.00    +0.219 C 
ATOM      2  O   UNL     1      -2.422   4.296  -3.753  0.00  0.00    -0.276 OA
ATOM      3  N   UNL     1      -0.583   3.603  -2.723  0.00  0.00    -0.184 N 
ATOM      4  C   UNL     1       0.341   3.774  -3.856  0.00  0.00    +0.172 C 
ATOM      5  C   UNL     1       1.700   3.322  -3.285  0.00  0.00    +0.090 C 
ATOM      6  C   UNL     1       1.388   2.938  -1.856  0.00  0.00    +0.069 C 
ATOM      7  N   UNL     1       0.130   3.117  -1.630  0.00  0.00    -0.181 NA
ENDROOT
BRANCH   6   8
ATOM      8  C   UNL     1       2.370   2.435  -0.877  0.00  0.00    -0.002 A 
ATOM      9  C   UNL     1       3.709   2.276  -1.244  0.00  0.00    +0.011 A 
ATOM     10  C   UNL     1       4.622   1.810  -0.323  0.00  0.00    +0.020 A 
ATOM     11  C   UNL     1       4.214   1.490   0.962  0.00  0.00    +0.041 A 
ATOM     12  C   UNL     1       2.887   1.641   1.330  0.00  0.00    +0.020 A 
ATOM     13  C   UNL     1       1.964   2.110   0.419  0.00  0.00    +0.011 A 
ATOM     14 CL   UNL     1       5.369   0.898   2.114  0.00  0.00    -0.084 Cl
ENDBRANCH   6   8
BRANCH   4  15
ATOM     15  C   UNL     1       0.398   5.219  -4.280  0.00  0.00    +0.128 A 
ATOM     16  C   UNL     1       0.565   5.663  -5.539  0.00  0.00    +0.046 A 
ATOM     17  C   UNL     1       0.555   7.076  -5.480  0.00  0.00    +0.041 A 
ATOM     18  C   UNL     1       0.392   7.410  -4.187  0.00  0.00    +0.195 A 
ATOM     19  O   UNL     1       0.297   6.282  -3.466  0.00  0.00    -0.466 OA
ENDBRANCH   4  15
BRANCH   1  20
ATOM     20  C   UNL     1      -2.735   3.651  -1.504  0.00  0.00    +0.022 C 
BRANCH  20  30
ATOM     21  C   UNL     1      -8.690   4.330  -3.825  0.00  0.00    +0.000 A 
ATOM     22  C   UNL     1      -8.229   3.065  -4.142  0.00  0.00    +0.000 A 
ATOM     23  C   UNL     1      -6.943   2.697  -3.804  0.00  0.00    +0.002 A 
ATOM     24  C   UNL     1      -6.108   3.589  -3.147  0.00  0.00    -0.061 A 
ATOM     25  C   UNL     1      -6.568   4.849  -2.829  0.00  0.00    -0.047 A 
ATOM     26  C   UNL     1      -7.860   5.218  -3.171  0.00  0.00    +0.004 A 
ATOM     27  C   UNL     1      -5.700   5.850  -2.111  0.00  0.00    +0.029 C 
ATOM     28  C   UNL     1      -4.234   5.426  -2.195  0.00  0.00    +0.024 C 
ATOM     29  C   UNL     1      -4.711   3.143  -2.803  0.00  0.00    -0.041 C 
ATOM     30  N   UNL     1      -4.146   4.017  -1.761  0.00  0.00    +0.396 N 
ATOM     31  H   UNL     1      -4.685   3.898  -0.895  0.00  0.00    -0.080 HD
BRANCH  28  32
ATOM     32  C   UNL     1      -3.400   6.286  -1.281  0.00  0.00    +0.197 C 
ATOM     33  O   UNL     1      -3.291   5.997  -0.108  0.00  0.00    -0.278 OA
ATOM     34  N   UNL     1      -2.775   7.377  -1.767  0.00  0.00    -0.331 N 
ATOM     35  H   UNL     1      -2.863   7.608  -2.705  0.00  0.00    +0.145 HD
ATOM     36  H   UNL     1      -2.239   7.931  -1.179  0.00  0.00    +0.145 HD
ENDBRANCH  28  32
ENDBRANCH  20  30
ENDBRANCH   1  20
TORSDOF 5
