REMARK  Name = ZINC55325474
REMARK  5 active torsions:
REMARK  status: ('A' for Active; 'I' for Inactive)
REMARK    1  A    between atoms: C_1  and  N_2
REMARK    2  A    between atoms: C_5  and  C_7
REMARK    3  A    between atoms: C_12  and  C_14
REMARK    4  A    between atoms: C_23  and  O_24
REMARK    5  A    between atoms: O_24  and  C_25
REMARK                            x       y       z     vdW  Elec       q    Type
REMARK                         _______ _______ _______ _____ _____    ______ ____
ROOT
ATOM      1  C   UNL     1       0.052   1.461   0.010  0.00  0.00    +0.174 C 
ATOM      2  N   UNL     1       0.034  -0.004   0.002  0.00  0.00    -0.248 N 
ATOM      3  C   UNL     1       0.028  -0.804  -1.110  0.00  0.00    +0.177 A 
ATOM      4  C   UNL     1       0.009  -2.120  -0.657  0.00  0.00    +0.109 A 
ATOM      5  C   UNL     1       0.005  -2.083   0.743  0.00  0.00    +0.092 A 
ATOM      6  N   UNL     1       0.025  -0.834   1.130  0.00  0.00    -0.172 NA
ATOM      7  N   UNL     1       0.003  -2.921  -1.787  0.00  0.00    -0.335 N 
ATOM      8  H   UNL     1      -0.009  -3.890  -1.808  0.00  0.00    +0.167 HD
ATOM      9  C   UNL     1       0.017  -2.082  -2.869  0.00  0.00    +0.145 A 
ATOM     10  N   UNL     1       0.032  -0.835  -2.451  0.00  0.00    -0.208 NA
ENDROOT
BRANCH   9  11
ATOM     11  C   UNL     1       0.017  -2.509  -4.279  0.00  0.00    +0.067 A 
ATOM     12  C   UNL     1      -0.101  -1.552  -5.318  0.00  0.00    -0.004 A 
ATOM     13  C   UNL     1      -0.220  -0.184  -5.036  0.00  0.00    +0.009 A 
ATOM     14  C   UNL     1      -0.332   0.709  -6.058  0.00  0.00    +0.001 A 
ATOM     15  C   UNL     1      -0.330   0.283  -7.384  0.00  0.00    +0.001 A 
ATOM     16  C   UNL     1      -0.217  -1.038  -7.695  0.00  0.00    +0.008 A 
ATOM     17  C   UNL     1      -0.099  -1.987  -6.665  0.00  0.00    -0.017 A 
ATOM     18  C   UNL     1       0.021  -3.359  -6.953  0.00  0.00    +0.012 A 
ATOM     19  C   UNL     1       0.134  -4.263  -5.942  0.00  0.00    +0.047 A 
ATOM     20  C   UNL     1       0.139  -3.856  -4.607  0.00  0.00    +0.131 A 
BRANCH  20  21
ATOM     21  O   UNL     1       0.259  -4.781  -3.622  0.00  0.00    -0.494 OA
ATOM     22  C   UNL     1       0.381  -6.147  -4.025  0.00  0.00    +0.277 C 
ENDBRANCH  20  21
ENDBRANCH   9  11
BRANCH   5  23
ATOM     23  C   UNL     1      -0.013  -3.284   1.653  0.00  0.00    +0.042 C 
ATOM     24  C   UNL     1      -0.218  -3.034   3.149  0.00  0.00    +0.010 C 
ATOM     25  C   UNL     1       1.157  -3.452   2.624  0.00  0.00    +0.010 C 
ENDBRANCH   5  23
TORSDOF 3
