REMARK  Name = ZINC20464372
REMARK  5 active torsions:
REMARK  status: ('A' for Active; 'I' for Inactive)
REMARK    1  A    between atoms: C_1  and  C_2
REMARK    2  A    between atoms: C_2  and  C_4
REMARK    3  A    between atoms: C_2  and  N_18
REMARK    4  A    between atoms: C_8  and  N_9
REMARK    5  A    between atoms: N_21  and  C_22
REMARK                            x       y       z     vdW  Elec       q    Type
REMARK                         _______ _______ _______ _____ _____    ______ ____
ROOT
ATOM      1  C   UNL     1      -2.995  -3.960  -1.225  0.00  0.00    +0.033 C 
ATOM      2  C   UNL     1      -3.054  -3.538   0.244  0.00  0.00    +0.104 C 
ENDROOT
BRANCH   2   3
ATOM      3  C   UNL     1      -4.378  -3.950   0.833  0.00  0.00    +0.007 A 
ATOM      4  C   UNL     1      -5.540  -3.259   0.488  0.00  0.00    -0.030 A 
ATOM      5  C   UNL     1      -6.698  -3.692   1.057  0.00  0.00    -0.005 A 
ATOM      6  S   UNL     1      -6.188  -5.048   2.079  0.00  0.00    -0.075 S 
ATOM      7  C   UNL     1      -4.443  -4.991   1.703  0.00  0.00    +0.090 A 
ATOM      8  C   UNL     1      -8.072  -3.139   0.861  0.00  0.00    +0.043 C 
ATOM      9  C   UNL     1      -7.948  -1.764   0.187  0.00  0.00    +0.005 C 
ATOM     10  C   UNL     1      -6.982  -1.882  -0.996  0.00  0.00    +0.005 C 
ATOM     11  C   UNL     1      -5.555  -2.086  -0.487  0.00  0.00    +0.036 C 
BRANCH   7  12
ATOM     12  N   UNL     1      -3.410  -5.806   2.181  0.00  0.00    -0.317 N 
ATOM     13  C   UNL     1      -2.449  -6.403   1.417  0.00  0.00    +0.092 A 
ATOM     14  C   UNL     1      -1.634  -7.101   2.235  0.00  0.00    +0.019 A 
ATOM     15  C   UNL     1      -2.113  -6.937   3.550  0.00  0.00    +0.019 A 
ATOM     16  C   UNL     1      -3.200  -6.140   3.488  0.00  0.00    +0.092 A 
ENDBRANCH   7  12
ENDBRANCH   2   3
BRANCH   2  17
ATOM     17  N   UNL     1      -2.907  -2.083   0.341  0.00  0.00    -0.293 N 
ATOM     18  C   UNL     1      -1.693  -1.517   0.192  0.00  0.00    +0.300 C 
ATOM     19  O   UNL     1      -0.720  -2.213  -0.022  0.00  0.00    -0.253 OA
ATOM     20  N   UNL     1      -1.559  -0.179   0.281  0.00  0.00    -0.294 N 
ATOM     21  H   UNL     1      -3.788  -1.454   0.534  0.00  0.00    +0.151 HD
ATOM     22  H   UNL     1      -2.440   0.451   0.474  0.00  0.00    +0.151 HD
BRANCH  20  23
ATOM     23  C   UNL     1      -0.239   0.437   0.120  0.00  0.00    +0.037 C 
ATOM     24  C   UNL     1      -0.364   1.955   0.265  0.00  0.00    +0.029 C 
ATOM     25  C   UNL     1       1.014   2.598   0.096  0.00  0.00    -0.008 C 
ATOM     26  C   UNL     1       1.568   2.262  -1.290  0.00  0.00    +0.007 C 
ATOM     27  C   UNL     1       1.692   0.744  -1.435  0.00  0.00    -0.008 C 
ATOM     28  C   UNL     1       0.314   0.101  -1.266  0.00  0.00    +0.029 C 
ATOM     29  C   UNL     1       2.641   0.205  -0.362  0.00  0.00    +0.007 C 
ATOM     30  C   UNL     1       2.087   0.541   1.024  0.00  0.00    -0.008 C 
ATOM     31  C   UNL     1       1.963   2.059   1.169  0.00  0.00    +0.007 C 
ATOM     32  C   UNL     1       0.710  -0.102   1.192  0.00  0.00    +0.029 C 
ENDBRANCH  20  23
ENDBRANCH   2  17
TORSDOF 4
