REMARK  Name = ZINC54733572
REMARK  7 active torsions:
REMARK  status: ('A' for Active; 'I' for Inactive)
REMARK    1  A    between atoms: C_1  and  C_2
REMARK    2  A    between atoms: C_5  and  C_7
REMARK    3  A    between atoms: C_7  and  C_9
REMARK    4  A    between atoms: C_7  and  N_10
REMARK    5  A    between atoms: N_13  and  N_14
REMARK    6  A    between atoms: C_15  and  C_17
REMARK    7  A    between atoms: C_17  and  C_18
REMARK                            x       y       z     vdW  Elec       q    Type
REMARK                         _______ _______ _______ _____ _____    ______ ____
ROOT
ATOM      1  N   UNL     1       4.362  -4.231  -2.575  0.00  0.00    -0.233 N 
ATOM      2  C   UNL     1       5.427  -4.300  -3.397  0.00  0.00    +0.234 C 
ATOM      3  O   UNL     1       5.731  -5.357  -3.908  0.00  0.00    -0.274 OA
ATOM      4  H   UNL     1       4.119  -3.386  -2.166  0.00  0.00    +0.173 HD
ENDROOT
BRANCH   1   8
ATOM      5  N   UNL     1       2.201  -4.137  -0.921  0.00  0.00    -0.291 N 
ATOM      6  C   UNL     1       2.539  -5.311  -1.489  0.00  0.00    +0.316 C 
ATOM      7  O   UNL     1       1.883  -6.309  -1.260  0.00  0.00    -0.251 OA
ATOM      8  N   UNL     1       3.605  -5.380  -2.311  0.00  0.00    -0.218 N 
ATOM      9  H   UNL     1       2.725  -3.341  -1.103  0.00  0.00    +0.151 HD
ATOM     10  H   UNL     1       3.848  -6.226  -2.720  0.00  0.00    +0.174 HD
BRANCH   5  11
ATOM     11  C   UNL     1       1.043  -4.062  -0.027  0.00  0.00    +0.108 C 
ATOM     12  C   UNL     1       1.465  -4.458   1.389  0.00  0.00    +0.033 C 
BRANCH  11  17
ATOM     13  C   UNL     1      -0.018   1.503   0.010  0.00  0.00    +0.051 C 
ATOM     14  C   UNL     1       0.002  -0.004   0.002  0.00  0.00    -0.013 A 
ATOM     15  C   UNL     1      -1.039  -0.872   0.002  0.00  0.00    +0.011 A 
ATOM     16  C   UNL     1      -0.780  -2.230  -0.007  0.00  0.00    +0.013 A 
ATOM     17  C   UNL     1       0.507  -2.653  -0.016  0.00  0.00    +0.010 A 
ATOM     18  S   UNL     1       1.404  -1.109  -0.018  0.00  0.00    -0.097 S 
ENDBRANCH  11  17
ENDBRANCH   5  11
ENDBRANCH   1   8
BRANCH   2  19
ATOM     19  C   UNL     1       6.241  -3.064  -3.681  0.00  0.00    +0.134 C 
BRANCH  19  20
ATOM     20  C   UNL     1       7.367  -3.409  -4.622  0.00  0.00    -0.014 A 
ATOM     21  C   UNL     1       8.624  -3.732  -4.279  0.00  0.00    +0.087 A 
ATOM     22  N   UNL     1       9.364  -3.981  -5.402  0.00  0.00    -0.360 N 
ATOM     23  H   UNL     1      10.301  -4.234  -5.407  0.00  0.00    +0.165 HD
ATOM     24  C   UNL     1       8.582  -3.821  -6.524  0.00  0.00    +0.047 A 
ATOM     25  C   UNL     1       7.295  -3.462  -6.084  0.00  0.00    +0.003 A 
ATOM     26  C   UNL     1       6.279  -3.237  -7.015  0.00  0.00    +0.010 A 
ATOM     27  C   UNL     1       6.539  -3.371  -8.349  0.00  0.00    +0.001 A 
ATOM     28  C   UNL     1       7.806  -3.729  -8.788  0.00  0.00    +0.002 A 
ATOM     29  C   UNL     1       8.826  -3.947  -7.887  0.00  0.00    +0.026 A 
ENDBRANCH  19  20
ENDBRANCH   2  19
TORSDOF 5
