REMARK  Name = ZINC02785948
REMARK  8 active torsions:
REMARK  status: ('A' for Active; 'I' for Inactive)
REMARK    1  A    between atoms: C_1  and  C_2
REMARK    2  A    between atoms: C_2  and  N_3
REMARK    3  A    between atoms: N_3  and  C_4
REMARK    4  A    between atoms: N_3  and  C_6
REMARK    5  A    between atoms: C_4  and  C_5
REMARK    6  A    between atoms: C_18  and  N_31
REMARK    7  A    between atoms: C_19  and  C_29
REMARK    8  A    between atoms: C_20  and  C_22
REMARK                            x       y       z     vdW  Elec       q    Type
REMARK                         _______ _______ _______ _____ _____    ______ ____
ROOT
ATOM      1  C   UNL     1      -3.864   8.264   4.808  0.00  0.00    +0.033 A 
ATOM      2  C   UNL     1      -4.577   8.335   3.611  0.00  0.00    +0.024 A 
ATOM      3  C   UNL     1      -4.007   7.919   2.443  0.00  0.00    +0.017 A 
ATOM      4  C   UNL     1      -2.701   7.419   2.446  0.00  0.00    +0.060 A 
ATOM      5  C   UNL     1      -1.976   7.346   3.648  0.00  0.00    +0.144 A 
ATOM      6  C   UNL     1      -2.568   7.771   4.827  0.00  0.00    +0.070 A 
ATOM      7  O   UNL     1      -0.714   6.864   3.643  0.00  0.00    -0.422 OA
ATOM      8  C   UNL     1      -0.124   6.446   2.511  0.00  0.00    +0.345 A 
ATOM      9  O   UNL     1       1.017   6.021   2.561  0.00  0.00    -0.245 OA
ATOM     10  C   UNL     1      -0.784   6.486   1.273  0.00  0.00    +0.092 A 
ATOM     11  C   UNL     1      -2.062   6.962   1.204  0.00  0.00    +0.152 A 
ATOM     12  O   UNL     1      -2.732   7.018   0.037  0.00  0.00    -0.440 OA
ATOM     13  C   UNL     1      -2.058   6.970  -1.126  0.00  0.00    +0.199 C 
ATOM     14  C   UNL     1      -0.791   6.498  -1.194  0.00  0.00    +0.098 C 
ATOM     15  C   UNL     1      -0.079   6.003   0.034  0.00  0.00    +0.105 C 
ENDROOT
BRANCH  15  16
ATOM     16  C   UNL     1      -0.059   4.497   0.026  0.00  0.00    -0.034 A 
ATOM     17  C   UNL     1       1.148   3.822   0.012  0.00  0.00    +0.006 A 
ATOM     18  C   UNL     1       1.167   2.440   0.004  0.00  0.00    +0.020 A 
ATOM     19  C   UNL     1      -0.021   1.732   0.012  0.00  0.00    +0.041 A 
ATOM     20  C   UNL     1      -1.229   2.407   0.021  0.00  0.00    +0.020 A 
ATOM     21  C   UNL     1      -1.247   3.789   0.034  0.00  0.00    +0.006 A 
ATOM     22 CL   UNL     1       0.002  -0.004   0.002  0.00  0.00    -0.084 Cl
ENDBRANCH  15  16
BRANCH  13  23
ATOM     23  N   UNL     1      -2.671   7.411  -2.272  0.00  0.00    -0.328 N 
ATOM     24  H   UNL     1      -2.133   7.378  -3.231  0.00  0.00    +0.145 HD
ATOM     25  H   UNL     1      -3.700   7.797  -2.232  0.00  0.00    +0.145 HD
ENDBRANCH  13  23
BRANCH  14  26
ATOM     26  C   UNL     1      -0.117   6.471  -2.457  0.00  0.00    +0.101 C 
ATOM     27  N   UNL     1       0.418   6.449  -3.459  0.00  0.00    -0.191 NA
ENDBRANCH  14  26
BRANCH   1  28
ATOM     28  N   UNL     1      -4.459   8.692   5.992  0.00  0.00    -0.330 N 
BRANCH  28  30
ATOM     29  C   UNL     1      -6.813   8.063   6.197  0.00  0.00    +0.024 C 
ATOM     30  C   UNL     1      -5.828   9.213   5.978  0.00  0.00    +0.102 C 
ENDBRANCH  28  30
BRANCH  28  31
ATOM     31  C   UNL     1      -3.715   8.620   7.252  0.00  0.00    +0.102 C 
ATOM     32  C   UNL     1      -2.947   9.926   7.467  0.00  0.00    +0.024 C 
ENDBRANCH  28  31
ENDBRANCH   1  28
TORSDOF 6
