REMARK  Name = ZINC11954020
REMARK  8 active torsions:
REMARK  status: ('A' for Active; 'I' for Inactive)
REMARK    1  A    between atoms: C_4  and  O_25
REMARK    2  A    between atoms: C_5  and  C_7
REMARK    3  A    between atoms: C_7  and  N_8
REMARK    4  A    between atoms: C_9  and  C_11
REMARK    5  A    between atoms: C_11  and  C_12
REMARK    6  A    between atoms: C_19  and  C_20
REMARK    7  A    between atoms: C_19  and  N_49
REMARK    8  A    between atoms: O_25  and  C_26
REMARK                            x       y       z     vdW  Elec       q    Type
REMARK                         _______ _______ _______ _____ _____    ______ ____
ROOT
ATOM      1  N   UNL     1      -0.036   1.365   2.495  0.00  0.00    -0.311 N 
ATOM      2  C   UNL     1      -0.639   1.629   1.319  0.00  0.00    +0.212 C 
ATOM      3  O   UNL     1      -1.669   2.269   1.296  0.00  0.00    -0.276 OA
ATOM      4  H   UNL     1       0.788   0.854   2.513  0.00  0.00    +0.149 HD
ENDROOT
BRANCH   1   5
ATOM      5  C   UNL     1      -0.624   1.851   3.745  0.00  0.00    +0.143 C 
BRANCH   5  10
ATOM      6  C   UNL     1       0.671  -0.066   6.729  0.00  0.00    +0.001 A 
ATOM      7  C   UNL     1       1.820   0.640   7.037  0.00  0.00    +0.004 A 
ATOM      8  C   UNL     1       2.181   1.738   6.282  0.00  0.00    +0.046 A 
ATOM      9  C   UNL     1       1.389   2.134   5.213  0.00  0.00    +0.135 A 
ATOM     10  C   UNL     1       0.238   1.424   4.906  0.00  0.00    +0.012 A 
ATOM     11  C   UNL     1      -0.122   0.329   5.668  0.00  0.00    +0.009 A 
BRANCH   9  12
ATOM     12  O   UNL     1       1.742   3.215   4.468  0.00  0.00    -0.405 OA
BRANCH  12  13
ATOM     13  C   UNL     1       2.941   3.897   4.842  0.00  0.00    +0.575 C 
ATOM     14  F   UNL     1       4.024   3.015   4.761  0.00  0.00    -0.133 F 
ATOM     15  F   UNL     1       3.152   4.976   3.977  0.00  0.00    -0.133 F 
ATOM     16  F   UNL     1       2.819   4.367   6.154  0.00  0.00    -0.133 F 
ENDBRANCH  12  13
ENDBRANCH   9  12
ENDBRANCH   5  10
ENDBRANCH   1   5
BRANCH   2  17
ATOM     17  C   UNL     1      -0.033   1.130   0.033  0.00  0.00    +0.089 C 
BRANCH  17  18
ATOM     18  C   UNL     1      -0.850   1.651  -1.152  0.00  0.00    +0.028 C 
ATOM     19  C   UNL     1      -2.243   1.092  -1.081  0.00  0.00    +0.200 C 
ATOM     20  O   UNL     1      -2.386  -0.077  -0.792  0.00  0.00    -0.278 OA
ATOM     21  N   UNL     1      -3.332   1.829  -1.324  0.00  0.00    -0.318 N 
ATOM     22  C   UNL     1      -3.271   3.252  -1.645  0.00  0.00    +0.085 C 
ATOM     23  C   UNL     1      -1.857   3.628  -2.095  0.00  0.00    -0.058 C 
ATOM     24  H   UNL     1      -4.200   1.399  -1.286  0.00  0.00    +0.149 HD
ATOM     25  N   UNL     1      -0.907   3.123  -1.085  0.00  0.00    +0.392 N 
ATOM     26  H   UNL     1      -1.228   3.404  -0.151  0.00  0.00    -0.080 HD
BRANCH  25  27
ATOM     27  C   UNL     1       0.439   3.693  -1.323  0.00  0.00    -0.034 C 
BRANCH  27  28
ATOM     28  C   UNL     1       0.338   5.196  -1.365  0.00  0.00    -0.027 A 
ATOM     29  C   UNL     1       0.433   6.087  -0.348  0.00  0.00    +0.009 A 
ATOM     30  C   UNL     1       0.307   7.436  -0.625  0.00  0.00    +0.008 A 
ATOM     31  C   UNL     1       0.092   7.827  -1.904  0.00  0.00    +0.045 A 
ATOM     32  S   UNL     1       0.068   6.266  -2.769  0.00  0.00    -0.103 S 
ENDBRANCH  27  28
ENDBRANCH  25  27
ENDBRANCH  17  18
ENDBRANCH   2  17
TORSDOF 8
