REMARK  Name = ZINC08581566
REMARK  11 active torsions:
REMARK  status: ('A' for Active; 'I' for Inactive)
REMARK    1  A    between atoms: C_4  and  C_7
REMARK    2  A    between atoms: C_9  and  C_17
REMARK    3  A    between atoms: C_17  and  C_19
REMARK    4  A    between atoms: C_17  and  O_26
REMARK    5  A    between atoms: C_19  and  N_50
REMARK    6  A    between atoms: C_20  and  C_21
REMARK    7  A    between atoms: C_20  and  N_50
REMARK    8  A    between atoms: C_21  and  O_22
REMARK    9  A    between atoms: C_23  and  C_24
REMARK   10  A    between atoms: C_23  and  N_50
REMARK   11  A    between atoms: C_24  and  O_25
REMARK                            x       y       z     vdW  Elec       q    Type
REMARK                         _______ _______ _______ _____ _____    ______ ____
ROOT
ATOM      1  C   UNL     1      -1.598   6.415  -0.327  0.00  0.00    +0.072 A 
ATOM      2  C   UNL     1      -2.768   5.646  -0.237  0.00  0.00    +0.035 A 
ATOM      3  C   UNL     1      -2.691   4.285  -0.279  0.00  0.00    -0.010 A 
ATOM      4  C   UNL     1      -1.420   3.692  -0.412  0.00  0.00    +0.006 A 
ATOM      5  C   UNL     1      -1.269   2.298  -0.467  0.00  0.00    +0.010 A 
ATOM      6  C   UNL     1      -0.025   1.759  -0.591  0.00  0.00    +0.001 A 
ATOM      7  C   UNL     1       1.102   2.574  -0.675  0.00  0.00    +0.002 A 
ATOM      8  C   UNL     1       0.993   3.930  -0.631  0.00  0.00    +0.028 A 
ATOM      9  C   UNL     1      -0.276   4.524  -0.498  0.00  0.00    +0.072 A 
ATOM     10  N   UNL     1      -0.411   5.852  -0.452  0.00  0.00    -0.247 NA
ENDROOT
BRANCH   1  14
ATOM     11  C   UNL     1      -1.882  10.655  -0.196  0.00  0.00    +0.000 A 
ATOM     12  C   UNL     1      -0.644  10.051  -0.326  0.00  0.00    +0.001 A 
ATOM     13  C   UNL     1      -0.546   8.675  -0.369  0.00  0.00    +0.010 A 
ATOM     14  C   UNL     1      -1.697   7.894  -0.281  0.00  0.00    +0.000 A 
ATOM     15  C   UNL     1      -2.942   8.508  -0.154  0.00  0.00    +0.010 A 
ATOM     16  C   UNL     1      -3.027   9.884  -0.107  0.00  0.00    +0.001 A 
ENDBRANCH   1  14
BRANCH   3  17
ATOM     17  C   UNL     1      -3.934   3.438  -0.184  0.00  0.00    +0.129 C 
BRANCH  17  18
ATOM     18  O   UNL     1      -5.061   4.193  -0.632  0.00  0.00    -0.389 OA
ATOM     19  H   UNL     1      -5.224   4.997  -0.120  0.00  0.00    +0.210 HD
ENDBRANCH  17  18
BRANCH  17  20
ATOM     20  C   UNL     1      -4.151   3.010   1.269  0.00  0.00    -0.042 C 
BRANCH  20  21
ATOM     21  N   UNL     1      -5.313   2.100   1.329  0.00  0.00    +0.385 N 
ATOM     22  H   UNL     1      -6.109   2.542   0.854  0.00  0.00    -0.082 HD
BRANCH  21  23
ATOM     23  C   UNL     1      -4.994   0.827   0.648  0.00  0.00    -0.050 C 
BRANCH  23  24
ATOM     24  C   UNL     1      -6.297   0.068   0.390  0.00  0.00    +0.137 C 
BRANCH  24  25
ATOM     25  O   UNL     1      -7.118   0.821  -0.505  0.00  0.00    -0.397 OA
ATOM     26  H   UNL     1      -7.963   0.399  -0.714  0.00  0.00    +0.209 HD
ENDBRANCH  24  25
ENDBRANCH  23  24
ENDBRANCH  21  23
BRANCH  21  27
ATOM     27  C   UNL     1      -5.680   1.841   2.738  0.00  0.00    -0.050 C 
BRANCH  27  28
ATOM     28  C   UNL     1      -6.447   3.051   3.275  0.00  0.00    +0.137 C 
BRANCH  28  29
ATOM     29  O   UNL     1      -7.679   3.187   2.565  0.00  0.00    -0.397 OA
ATOM     30  H   UNL     1      -8.183   3.978   2.800  0.00  0.00    +0.209 HD
ENDBRANCH  28  29
ENDBRANCH  27  28
ENDBRANCH  21  27
ENDBRANCH  20  21
ENDBRANCH  17  20
ENDBRANCH   3  17
TORSDOF 11
