REMARK  Name = ZINC63134388
REMARK  11 active torsions:
REMARK  status: ('A' for Active; 'I' for Inactive)
REMARK    1  A    between atoms: C_1  and  C_2
REMARK    2  A    between atoms: C_7  and  O_16
REMARK    3  A    between atoms: C_13  and  C_15
REMARK    4  A    between atoms: O_16  and  C_17
REMARK    5  A    between atoms: C_17  and  C_19
REMARK    6  A    between atoms: C_19  and  C_21
REMARK    7  A    between atoms: C_19  and  N_31
REMARK    8  A    between atoms: C_21  and  C_22
REMARK    9  A    between atoms: C_32  and  O_34
REMARK   10  A    between atoms: O_34  and  C_35
REMARK   11  A    between atoms: C_35  and  C_36
REMARK                            x       y       z     vdW  Elec       q    Type
REMARK                         _______ _______ _______ _____ _____    ______ ____
ROOT
ATOM      1  C   UNL     1      -7.681  -1.524  -0.728  0.00  0.00    +0.189 C 
ENDROOT
BRANCH   1   2
ATOM      2  N   UNL     1      -8.453  -0.580  -1.539  0.00  0.00    -0.268 N 
ATOM      3  C   UNL     1      -9.763  -0.388  -1.287  0.00  0.00    +0.401 C 
ATOM      4  O   UNL     1     -10.304  -0.998  -0.386  0.00  0.00    -0.226 OA
ATOM      5  H   UNL     1      -8.022  -0.092  -2.258  0.00  0.00    +0.153 HD
BRANCH   3   6
ATOM      6  O   UNL     1     -10.473   0.480  -2.033  0.00  0.00    -0.446 OA
BRANCH   6   7
ATOM      7  C   UNL     1     -11.856   0.633  -1.709  0.00  0.00    +0.269 C 
BRANCH   7   8
ATOM      8  C   UNL     1     -12.482   1.637  -2.643  0.00  0.00    -0.010 A 
ATOM      9  C   UNL     1     -12.488   2.979  -2.312  0.00  0.00    +0.007 A 
ATOM     10  C   UNL     1     -13.062   3.900  -3.168  0.00  0.00    +0.000 A 
ATOM     11  C   UNL     1     -13.629   3.479  -4.356  0.00  0.00    +0.000 A 
ATOM     12  C   UNL     1     -13.622   2.137  -4.688  0.00  0.00    +0.000 A 
ATOM     13  C   UNL     1     -13.045   1.217  -3.834  0.00  0.00    +0.007 A 
ENDBRANCH   7   8
ENDBRANCH   6   7
ENDBRANCH   3   6
ENDBRANCH   1   2
BRANCH   1  14
ATOM     14  C   UNL     1      -6.225  -1.138  -0.757  0.00  0.00    +0.333 C 
ATOM     15  O   UNL     1      -5.868  -0.173  -1.392  0.00  0.00    -0.248 OA
BRANCH  14  16
ATOM     16  O   UNL     1      -5.323  -1.866  -0.079  0.00  0.00    -0.424 OA
BRANCH  16  22
ATOM     17  C   UNL     1       0.259   0.562   1.530  0.00  0.00    +0.013 C 
ATOM     18  C   UNL     1      -0.020   0.051   0.116  0.00  0.00    +0.033 C 
ATOM     19  C   UNL     1      -1.425  -0.493   0.048  0.00  0.00    -0.001 A 
ATOM     20  C   UNL     1      -2.429   0.186   0.722  0.00  0.00    +0.011 A 
ATOM     21  C   UNL     1      -3.730  -0.270   0.683  0.00  0.00    +0.047 A 
ATOM     22  C   UNL     1      -4.042  -1.416  -0.036  0.00  0.00    +0.135 A 
ATOM     23  C   UNL     1      -3.042  -2.099  -0.708  0.00  0.00    +0.093 A 
ATOM     24  C   UNL     1      -1.731  -1.640  -0.664  0.00  0.00    +0.139 A 
ATOM     25  O   UNL     1      -0.776  -2.351  -1.323  0.00  0.00    -0.425 OA
ATOM     26  C   UNL     1       0.445  -1.792  -1.444  0.00  0.00    +0.316 C 
ATOM     27  O   UNL     1       1.081  -1.877  -2.468  0.00  0.00    -0.250 OA
ATOM     28  C   UNL     1       0.981  -1.054  -0.234  0.00  0.00    +0.102 C 
ATOM     29  C   UNL     1       1.121  -2.020   0.945  0.00  0.00    +0.020 C 
ENDBRANCH  16  22
ENDBRANCH  14  16
ENDBRANCH   1  14
BRANCH   1  30
ATOM     30  C   UNL     1      -7.846  -2.936  -1.292  0.00  0.00    +0.067 C 
BRANCH  30  31
ATOM     31  C   UNL     1      -9.283  -3.369  -1.150  0.00  0.00    -0.039 C 
ATOM     32  C   UNL     1     -10.257  -3.277  -2.084  0.00  0.00    -0.001 A 
ATOM     33  C   UNL     1     -10.270  -2.764  -3.459  0.00  0.00    +0.010 A 
ATOM     34  C   UNL     1     -11.424  -2.805  -4.164  0.00  0.00    +0.001 A 
ATOM     35  C   UNL     1     -12.604  -3.323  -3.614  0.00  0.00    +0.002 A 
ATOM     36  C   UNL     1     -12.671  -3.812  -2.358  0.00  0.00    +0.026 A 
ATOM     37  C   UNL     1     -11.517  -3.819  -1.527  0.00  0.00    +0.043 A 
ATOM     38  N   UNL     1     -11.329  -4.231  -0.297  0.00  0.00    -0.380 N 
ATOM     39  C   UNL     1      -9.926  -4.001   0.065  0.00  0.00    +0.144 C 
ATOM     40  H   UNL     1     -12.004  -4.624   0.278  0.00  0.00    +0.160 HD
ENDBRANCH  30  31
ENDBRANCH   1  30
TORSDOF 9
