REMARK  Name = ZINC22281189
REMARK  11 active torsions:
REMARK  status: ('A' for Active; 'I' for Inactive)
REMARK    1  A    between atoms: C_1  and  C_2
REMARK    2  A    between atoms: C_2  and  C_3
REMARK    3  A    between atoms: C_2  and  N_4
REMARK    4  A    between atoms: C_5  and  C_7
REMARK    5  A    between atoms: C_7  and  N_8
REMARK    6  A    between atoms: N_11  and  C_14
REMARK    7  A    between atoms: C_14  and  N_15
REMARK    8  A    between atoms: N_18  and  C_32
REMARK    9  A    between atoms: C_19  and  C_21
REMARK   10  A    between atoms: C_21  and  S_22
REMARK   11  A    between atoms: S_22  and  C_23
REMARK                            x       y       z     vdW  Elec       q    Type
REMARK                         _______ _______ _______ _____ _____    ______ ____
ROOT
ATOM      1  N   UNL     1      -5.129  -8.199  -1.825  0.00  0.00    -0.257 N 
ATOM      2  C   UNL     1      -5.685  -9.154  -1.050  0.00  0.00    +0.176 A 
ATOM      3  S   UNL     1      -4.912 -10.009   0.216  0.00  0.00    -0.011 S 
ATOM      4  N   UNL     1      -6.960  -9.311  -1.456  0.00  0.00    -0.309 N 
ATOM      5  C   UNL     1      -7.194  -8.441  -2.494  0.00  0.00    +0.142 A 
ATOM      6  N   UNL     1      -6.114  -7.766  -2.723  0.00  0.00    -0.157 NA
ATOM      7  C   UNL     1      -7.932 -10.248  -0.888  0.00  0.00    +0.152 C 
ENDROOT
BRANCH   1   8
ATOM      8  C   UNL     1      -3.753  -7.702  -1.738  0.00  0.00    +0.072 C 
BRANCH   8  12
ATOM      9  N   UNL     1      -3.087  -3.600  -1.067  0.00  0.00    -0.298 NA
ATOM     10  C   UNL     1      -2.359  -4.562  -0.227  0.00  0.00    +0.066 C 
ATOM     11  C   UNL     1      -2.364  -5.933  -0.907  0.00  0.00    -0.061 C 
ATOM     12  N   UNL     1      -3.750  -6.378  -1.102  0.00  0.00    +0.394 N 
ATOM     13  C   UNL     1      -4.457  -5.420  -1.962  0.00  0.00    -0.061 C 
ATOM     14  C   UNL     1      -4.470  -4.045  -1.291  0.00  0.00    +0.066 C 
ATOM     15  H   UNL     1      -4.214  -6.434  -0.208  0.00  0.00    -0.079 HD
BRANCH   9  16
ATOM     16  C   UNL     1      -3.057  -2.256  -0.474  0.00  0.00    +0.180 C 
BRANCH  16  18
ATOM     17  N   UNL     1      -1.372  -0.511   0.012  0.00  0.00    -0.312 N 
ATOM     18  C   UNL     1      -1.643  -1.734  -0.485  0.00  0.00    +0.227 C 
ATOM     19  O   UNL     1      -0.749  -2.415  -0.941  0.00  0.00    -0.274 OA
ATOM     20  H   UNL     1      -2.087   0.033   0.377  0.00  0.00    +0.149 HD
BRANCH  17  22
ATOM     21  C   UNL     1      -0.019   1.526   0.010  0.00  0.00    +0.027 C 
ATOM     22  C   UNL     1       0.002  -0.004   0.002  0.00  0.00    +0.067 C 
ATOM     23  C   UNL     1       0.742  -0.511   1.242  0.00  0.00    +0.027 C 
ENDBRANCH  17  22
ENDBRANCH  16  18
ENDBRANCH   9  16
ENDBRANCH   8  12
ENDBRANCH   1   8
BRANCH   5  24
ATOM     24  C   UNL     1      -8.495  -8.294  -3.239  0.00  0.00    +0.152 C 
BRANCH  24  25
ATOM     25  S   UNL     1      -8.317  -7.023  -4.521  0.00  0.00    -0.091 S 
BRANCH  25  26
ATOM     26  C   UNL     1      -9.901  -6.971  -5.291  0.00  0.00    +0.136 A 
ATOM     27  N   UNL     1     -10.977  -7.674  -5.014  0.00  0.00    -0.233 NA
ATOM     28  C   UNL     1     -12.134  -7.526  -5.694  0.00  0.00    +0.079 A 
ATOM     29  C   UNL     1     -13.355  -8.214  -5.499  0.00  0.00    +0.029 A 
ATOM     30  C   UNL     1     -14.445  -7.942  -6.285  0.00  0.00    +0.002 A 
ATOM     31  C   UNL     1     -14.393  -6.991  -7.293  0.00  0.00    +0.001 A 
ATOM     32  C   UNL     1     -13.215  -6.300  -7.511  0.00  0.00    +0.017 A 
ATOM     33  C   UNL     1     -12.118  -6.564  -6.730  0.00  0.00    +0.040 A 
ATOM     34  S   UNL     1     -10.456  -5.943  -6.644  0.00  0.00    -0.061 S 
ENDBRANCH  25  26
ENDBRANCH  24  25
ENDBRANCH   5  24
TORSDOF 8
