REMARK  Name = ZINC22450860
REMARK  4 active torsions:
REMARK  status: ('A' for Active; 'I' for Inactive)
REMARK    1  A    between atoms: C_1  and  C_2
REMARK    2  A    between atoms: C_15  and  C_17
REMARK    3  A    between atoms: C_20  and  O_23
REMARK    4  A    between atoms: O_23  and  C_24
REMARK                            x       y       z     vdW  Elec       q    Type
REMARK                         _______ _______ _______ _____ _____    ______ ____
ROOT
ATOM      1  C   UNL     1       3.676   2.269  -0.544  0.00  0.00    +0.028 C 
ATOM      2  C   UNL     1       2.340   1.640  -0.944  0.00  0.00    +0.073 C 
ATOM      3  C   UNL     1       2.208   0.264  -0.287  0.00  0.00    +0.022 C 
ATOM      4  C   UNL     1       0.860  -0.353  -0.674  0.00  0.00    +0.003 C 
ATOM      5  C   UNL     1      -0.266   0.590  -0.241  0.00  0.00    +0.019 C 
ATOM      6  C   UNL     1      -0.062   1.956  -0.899  0.00  0.00    +0.108 C 
ATOM      7  N   UNL     1       1.239   2.505  -0.498  0.00  0.00    -0.298 N 
ATOM      8  C   UNL     1       1.399   3.782  -0.965  0.00  0.00    +0.199 A 
ATOM      9  N   UNL     1       0.677   4.791  -0.404  0.00  0.00    -0.295 N 
ATOM     10  H   UNL     1      -0.029   4.574   0.411  0.00  0.00    +0.172 HD
ATOM     11  C   UNL     1       0.824   6.057  -0.847  0.00  0.00    +0.253 A 
ATOM     12  O   UNL     1       0.183   6.968  -0.346  0.00  0.00    -0.268 OA
ATOM     13  C   UNL     1       1.720   6.308  -1.895  0.00  0.00    +0.098 A 
ATOM     14  C   UNL     1       2.428   5.243  -2.435  0.00  0.00    +0.080 A 
ATOM     15  N   UNL     1       2.242   4.008  -1.949  0.00  0.00    -0.216 NA
ENDROOT
BRANCH  14  16
ATOM     16  C   UNL     1       3.383   5.470  -3.543  0.00  0.00    +0.001 A 
ATOM     17  C   UNL     1       4.097   4.399  -4.082  0.00  0.00    +0.013 A 
ATOM     18  C   UNL     1       4.981   4.614  -5.117  0.00  0.00    +0.046 A 
ATOM     19  C   UNL     1       5.170   5.896  -5.617  0.00  0.00    +0.120 A 
ATOM     20  C   UNL     1       4.464   6.965  -5.080  0.00  0.00    +0.046 A 
ATOM     21  C   UNL     1       3.575   6.757  -4.048  0.00  0.00    +0.013 A 
BRANCH  19  22
ATOM     22  O   UNL     1       6.046   6.105  -6.633  0.00  0.00    -0.495 OA
ATOM     23  C   UNL     1       6.738   4.961  -7.138  0.00  0.00    +0.277 C 
ENDBRANCH  19  22
ENDBRANCH  14  16
TORSDOF 2
