REMARK  Name = ZINC52094451
REMARK  4 active torsions:
REMARK  status: ('A' for Active; 'I' for Inactive)
REMARK    1  A    between atoms: C_1  and  N_2
REMARK    2  A    between atoms: N_2  and  C_3
REMARK    3  A    between atoms: C_3  and  C_5
REMARK    4  A    between atoms: C_3  and  C_11
REMARK                            x       y       z     vdW  Elec       q    Type
REMARK                         _______ _______ _______ _____ _____    ______ ____
ROOT
ATOM      1  C   UNL     1       0.603  -1.981  -1.277  0.00  0.00    -0.038 A 
ATOM      2  C   UNL     1       0.326  -2.708  -0.136  0.00  0.00    +0.031 A 
ATOM      3  C   UNL     1       0.247  -4.090  -0.201  0.00  0.00    +0.067 A 
ATOM      4  C   UNL     1       0.447  -4.742  -1.420  0.00  0.00    +0.068 A 
ATOM      5  C   UNL     1       0.724  -4.005  -2.560  0.00  0.00    +0.043 A 
ATOM      6  C   UNL     1       0.796  -2.626  -2.487  0.00  0.00    +0.022 A 
ATOM      7 BR   UNL     1       1.166  -1.619  -4.044  0.00  0.00    -0.050 Br
ATOM      8  N   UNL     1       0.306  -6.106  -1.175  0.00  0.00    -0.306 N 
ATOM      9  H   UNL     1       0.391  -6.813  -1.834  0.00  0.00    +0.170 HD
ATOM     10  C   UNL     1       0.033  -6.277   0.133  0.00  0.00    +0.325 A 
ATOM     11  O   UNL     1      -0.147  -7.350   0.677  0.00  0.00    -0.247 OA
ATOM     12  N   UNL     1      -0.009  -5.079   0.747  0.00  0.00    -0.306 N 
ATOM     13  H   UNL     1      -0.187  -4.930   1.688  0.00  0.00    +0.170 HD
ENDROOT
BRANCH   1  14
ATOM     14  C   UNL     1       0.690  -0.478  -1.207  0.00  0.00    +0.027 C 
BRANCH  14  15
ATOM     15  C   UNL     1       2.137  -0.060  -1.158  0.00  0.00    +0.097 A 
ATOM     16  C   UNL     1       2.860   0.395  -2.197  0.00  0.00    +0.044 A 
ATOM     17  C   UNL     1       4.157   0.666  -1.706  0.00  0.00    +0.057 A 
ATOM     18  C   UNL     1       4.150   0.361  -0.395  0.00  0.00    +0.170 A 
ATOM     19  O   UNL     1       2.922  -0.072  -0.068  0.00  0.00    -0.454 OA
ATOM     20 BR   UNL     1       5.617   0.524   0.787  0.00  0.00    -0.008 Br
ENDBRANCH  14  15
BRANCH  14  22
ATOM     21  C   UNL     1      -0.018   1.465   0.010  0.00  0.00    -0.099 C 
ATOM     22  N   UNL     1       0.002  -0.004   0.002  0.00  0.00    +0.386 N 
ATOM     23  H   UNL     1       0.490  -0.338   0.820  0.00  0.00    -0.085 HD
ATOM     24  H   UNL     1      -0.945  -0.353   0.009  0.00  0.00    -0.085 HD
ENDBRANCH  14  22
ENDBRANCH   1  14
TORSDOF 3
