REMARK  Name = ZINC09242702
REMARK  3 active torsions:
REMARK  status: ('A' for Active; 'I' for Inactive)
REMARK    1  A    between atoms: C_1  and  C_2
REMARK    2  A    between atoms: C_22  and  C_30
REMARK    3  A    between atoms: C_30  and  C_32
REMARK                            x       y       z     vdW  Elec       q    Type
REMARK                         _______ _______ _______ _____ _____    ______ ____
ROOT
ATOM      1  C   UNL     1      -0.186   1.395  -0.162  0.00  0.00    +0.045 C 
ATOM      2  C   UNL     1      -0.150  -0.111  -0.124  0.00  0.00    -0.029 A 
ATOM      3  C   UNL     1      -0.179  -0.830  -1.302  0.00  0.00    +0.005 A 
ATOM      4  C   UNL     1      -0.147  -2.212  -1.278  0.00  0.00    +0.001 A 
ATOM      5  C   UNL     1      -0.085  -2.878  -0.066  0.00  0.00    +0.004 A 
ATOM      6  C   UNL     1      -0.056  -2.165   1.111  0.00  0.00    -0.026 A 
ATOM      7  C   UNL     1      -0.083  -0.774   1.099  0.00  0.00    +0.039 A 
ATOM      8  N   UNL     1      -0.038  -0.279   2.404  0.00  0.00    -0.286 N 
ATOM      9  C   UNL     1       0.023  -1.264   3.319  0.00  0.00    +0.212 C 
ATOM     10  O   UNL     1       0.070  -1.130   4.523  0.00  0.00    -0.277 OA
ATOM     11  C   UNL     1       0.008  -2.567   2.560  0.00  0.00    +0.060 C 
ATOM     12  C   UNL     1       1.262  -3.381   2.857  0.00  0.00    +0.085 C 
ATOM     13  C   UNL     1       2.159  -2.692   3.847  0.00  0.00    -0.011 A 
ATOM     14  C   UNL     1       1.980  -2.248   5.138  0.00  0.00    +0.006 A 
ATOM     15  C   UNL     1       3.023  -1.635   5.810  0.00  0.00    +0.000 A 
ATOM     16  C   UNL     1       4.244  -1.470   5.182  0.00  0.00    +0.002 A 
ATOM     17  C   UNL     1       4.427  -1.912   3.888  0.00  0.00    +0.023 A 
ATOM     18  C   UNL     1       3.382  -2.530   3.205  0.00  0.00    +0.038 A 
ATOM     19  N   UNL     1       3.322  -3.054   1.911  0.00  0.00    -0.285 N 
ATOM     20  C   UNL     1       2.111  -3.571   1.629  0.00  0.00    +0.228 C 
ATOM     21  O   UNL     1       1.770  -4.091   0.587  0.00  0.00    -0.275 OA
ATOM     22  C   UNL     1       0.767  -4.731   3.402  0.00  0.00    +0.066 C 
ATOM     23  C   UNL     1      -0.687  -4.808   2.877  0.00  0.00    -0.055 C 
ATOM     24  N   UNL     1      -1.158  -3.389   2.929  0.00  0.00    +0.395 N 
ATOM     25  C   UNL     1      -1.481  -3.153   4.356  0.00  0.00    -0.076 C 
ATOM     26  C   UNL     1      -2.091  -4.476   4.860  0.00  0.00    -0.020 C 
ATOM     27  C   UNL     1      -1.550  -5.572   3.897  0.00  0.00    -0.016 C 
ATOM     28  H   UNL     1      -0.049   0.665   2.625  0.00  0.00    +0.155 HD
ATOM     29  H   UNL     1       4.066  -3.046   1.289  0.00  0.00    +0.155 HD
ATOM     30  H   UNL     1      -1.944  -3.228   2.317  0.00  0.00    -0.079 HD
ENDROOT
BRANCH  22  31
ATOM     31  C   UNL     1       1.596  -5.863   2.853  0.00  0.00    +0.166 C 
ATOM     32  O   UNL     1       1.245  -6.438   1.844  0.00  0.00    -0.292 OA
BRANCH  31  33
ATOM     33  C   UNL     1       2.832  -6.271   3.539  0.00  0.00    +0.018 A 
ATOM     34  C   UNL     1       3.171  -5.686   4.775  0.00  0.00    +0.012 A 
ATOM     35  C   UNL     1       4.305  -6.046   5.426  0.00  0.00    +0.009 A 
ATOM     36  C   UNL     1       5.161  -7.015   4.869  0.00  0.00    -0.018 A 
ATOM     37  C   UNL     1       6.340  -7.403   5.526  0.00  0.00    +0.008 A 
ATOM     38  C   UNL     1       7.148  -8.343   4.964  0.00  0.00    +0.001 A 
ATOM     39  C   UNL     1       6.825  -8.930   3.742  0.00  0.00    +0.001 A 
ATOM     40  C   UNL     1       5.692  -8.580   3.075  0.00  0.00    +0.008 A 
ATOM     41  C   UNL     1       4.831  -7.612   3.625  0.00  0.00    -0.017 A 
ATOM     42  C   UNL     1       3.652  -7.234   2.967  0.00  0.00    +0.020 A 
ENDBRANCH  31  33
ENDBRANCH  22  31
TORSDOF 2
