REMARK  Name = ZINC36316258
REMARK  16 active torsions:
REMARK  status: ('A' for Active; 'I' for Inactive)
REMARK    1  A    between atoms: C_1  and  C_2
REMARK    2  A    between atoms: C_2  and  C_3
REMARK    3  A    between atoms: C_4  and  C_21
REMARK    4  A    between atoms: C_5  and  O_14
REMARK    5  A    between atoms: N_6  and  C_8
REMARK    6  A    between atoms: O_14  and  C_15
REMARK    7  A    between atoms: C_21  and  N_22
REMARK    8  A    between atoms: N_22  and  C_23
REMARK    9  A    between atoms: N_22  and  C_35
REMARK   10  A    between atoms: C_23  and  C_24
REMARK   11  A    between atoms: C_24  and  C_26
REMARK   12  A    between atoms: C_24  and  O_34
REMARK   13  A    between atoms: C_26  and  O_27
REMARK   14  A    between atoms: O_27  and  C_28
REMARK   15  A    between atoms: C_35  and  C_36
REMARK   16  A    between atoms: C_35  and  C_37
REMARK                            x       y       z     vdW  Elec       q    Type
REMARK                         _______ _______ _______ _____ _____    ______ ____
ROOT
ATOM      1  C   UNL     1       0.385   1.495  -0.591  0.00  0.00    +0.068 A 
ATOM      2  C   UNL     1      -0.151   0.571  -1.492  0.00  0.00    +0.021 A 
ATOM      3  C   UNL     1       0.826  -0.321  -1.807  0.00  0.00    +0.225 A 
ATOM      4  N   UNL     1       1.943   0.037  -1.119  0.00  0.00    -0.200 N 
ATOM      5  N   UNL     1       1.637   1.182  -0.371  0.00  0.00    -0.168 NA
ENDROOT
BRANCH   4   6
ATOM      6  C   UNL     1       3.182  -0.618  -1.156  0.00  0.00    +0.069 A 
ATOM      7  C   UNL     1       3.236  -2.005  -1.116  0.00  0.00    +0.028 A 
ATOM      8  C   UNL     1       4.458  -2.647  -1.153  0.00  0.00    +0.002 A 
ATOM      9  C   UNL     1       5.626  -1.911  -1.229  0.00  0.00    +0.000 A 
ATOM     10  C   UNL     1       5.575  -0.530  -1.268  0.00  0.00    +0.002 A 
ATOM     11  C   UNL     1       4.356   0.118  -1.238  0.00  0.00    +0.028 A 
ENDBRANCH   4   6
BRANCH   1  13
ATOM     12  C   UNL     1      -0.197   3.888  -0.879  0.00  0.00    +0.010 C 
ATOM     13  C   UNL     1      -0.351   2.660   0.019  0.00  0.00    +0.054 C 
ENDBRANCH   1  13
BRANCH   3  14
ATOM     14  O   UNL     1       0.707  -1.377  -2.651  0.00  0.00    -0.438 OA
BRANCH  14  15
ATOM     15  C   UNL     1       0.215  -2.541  -2.153  0.00  0.00    +0.130 A 
ATOM     16  C   UNL     1      -0.077  -2.650  -0.800  0.00  0.00    +0.046 A 
ATOM     17  C   UNL     1      -0.577  -3.834  -0.296  0.00  0.00    +0.004 A 
ATOM     18  C   UNL     1      -0.785  -4.912  -1.137  0.00  0.00    +0.000 A 
ATOM     19  C   UNL     1      -0.495  -4.807  -2.485  0.00  0.00    +0.004 A 
ATOM     20  C   UNL     1      -0.001  -3.622  -2.995  0.00  0.00    +0.046 A 
ENDBRANCH  14  15
ENDBRANCH   3  14
BRANCH   2  21
ATOM     21  C   UNL     1      -1.562   0.564  -2.022  0.00  0.00    -0.035 C 
BRANCH  21  22
ATOM     22  N   UNL     1      -1.798   1.786  -2.802  0.00  0.00    +0.386 N 
ATOM     23  H   UNL     1      -1.533   2.591  -2.255  0.00  0.00    -0.081 HD
BRANCH  22  24
ATOM     24  C   UNL     1      -0.997   1.744  -4.032  0.00  0.00    -0.074 C 
ATOM     25  C   UNL     1       0.488   1.846  -3.678  0.00  0.00    -0.014 C 
ATOM     26  C   UNL     1      -1.257   0.426  -4.766  0.00  0.00    -0.014 C 
ENDBRANCH  22  24
BRANCH  22  27
ATOM     27  C   UNL     1      -3.223   1.878  -3.148  0.00  0.00    -0.043 C 
BRANCH  27  28
ATOM     28  C   UNL     1      -3.498   3.223  -3.824  0.00  0.00    +0.135 C 
BRANCH  28  29
ATOM     29  O   UNL     1      -3.187   4.283  -2.919  0.00  0.00    -0.390 OA
ATOM     30  H   UNL     1      -3.701   4.265  -2.100  0.00  0.00    +0.210 HD
ENDBRANCH  28  29
BRANCH  28  31
ATOM     31  C   UNL     1      -4.974   3.304  -4.217  0.00  0.00    +0.258 C 
BRANCH  31  32
ATOM     32  O   UNL     1      -5.206   4.508  -4.951  0.00  0.00    -0.489 OA
BRANCH  32  33
ATOM     33  C   UNL     1      -6.476   4.736  -5.378  0.00  0.00    +0.121 A 
ATOM     34  C   UNL     1      -7.480   3.821  -5.091  0.00  0.00    +0.045 A 
ATOM     35  C   UNL     1      -8.770   4.055  -5.525  0.00  0.00    +0.004 A 
ATOM     36  C   UNL     1      -9.062   5.199  -6.245  0.00  0.00    +0.000 A 
ATOM     37  C   UNL     1      -8.064   6.111  -6.533  0.00  0.00    +0.004 A 
ATOM     38  C   UNL     1      -6.773   5.885  -6.096  0.00  0.00    +0.045 A 
ENDBRANCH  32  33
ENDBRANCH  31  32
ENDBRANCH  28  31
ENDBRANCH  27  28
ENDBRANCH  22  27
ENDBRANCH  21  22
ENDBRANCH   2  21
TORSDOF 13
