REMARK  Name = ZINC14376819
REMARK  6 active torsions:
REMARK  status: ('A' for Active; 'I' for Inactive)
REMARK    1  A    between atoms: C_1  and  C_2
REMARK    2  A    between atoms: C_2  and  C_3
REMARK    3  A    between atoms: C_3  and  C_26
REMARK    4  A    between atoms: N_6  and  C_10
REMARK    5  A    between atoms: C_10  and  C_11
REMARK    6  A    between atoms: C_16  and  C_19
REMARK                            x       y       z     vdW  Elec       q    Type
REMARK                         _______ _______ _______ _____ _____    ______ ____
ROOT
ATOM      1  C   UNL     1       2.453   1.438  -0.013  0.00  0.00    +0.214 C 
ENDROOT
BRANCH   1   2
ATOM      2  C   UNL     1       2.908   1.264  -1.439  0.00  0.00    +0.237 C 
ATOM      3  O   UNL     1       2.165   1.554  -2.353  0.00  0.00    -0.274 OA
ATOM      4  N   UNL     1       4.140   0.784  -1.699  0.00  0.00    -0.263 N 
ATOM      5  C   UNL     1       4.560   0.623  -3.014  0.00  0.00    +0.165 A 
ATOM      6  N   UNL     1       5.713   0.175  -3.473  0.00  0.00    -0.225 NA
ATOM      7  C   UNL     1       5.948   0.086  -4.774  0.00  0.00    +0.080 A 
ATOM      8  C   UNL     1       4.977   0.466  -5.658  0.00  0.00    +0.076 A 
ATOM      9  S   UNL     1       3.679   0.961  -4.532  0.00  0.00    -0.060 S 
ATOM     10  H   UNL     1       4.734   0.552  -0.968  0.00  0.00    +0.157 HD
BRANCH   7  11
ATOM     11  C   UNL     1       7.252  -0.420  -5.266  0.00  0.00    +0.001 A 
ATOM     12  C   UNL     1       7.492  -0.517  -6.636  0.00  0.00    +0.013 A 
ATOM     13  C   UNL     1       8.709  -0.984  -7.090  0.00  0.00    +0.039 A 
ATOM     14  C   UNL     1       9.687  -1.366  -6.186  0.00  0.00    +0.123 A 
ATOM     15  C   UNL     1       9.451  -1.277  -4.824  0.00  0.00    +0.039 A 
ATOM     16  C   UNL     1       8.239  -0.806  -4.361  0.00  0.00    +0.013 A 
ATOM     17  F   UNL     1      10.874  -1.828  -6.635  0.00  0.00    -0.205 F 
ENDBRANCH   7  11
ENDBRANCH   1   2
BRANCH   1  21
ATOM     18  C   UNL     1      -0.727   3.357   0.027  0.00  0.00    +0.138 C 
ATOM     19  C   UNL     1       0.787   3.284   0.012  0.00  0.00    +0.251 C 
ATOM     20  O   UNL     1       1.565   4.213   0.010  0.00  0.00    -0.272 OA
ATOM     21  N   UNL     1       1.087   1.970   0.002  0.00  0.00    -0.215 N 
ATOM     22  C   UNL     1      -0.014   1.211   0.009  0.00  0.00    +0.310 C 
ATOM     23  O   UNL     1       0.002  -0.004   0.002  0.00  0.00    -0.252 OA
ATOM     24  N   UNL     1      -1.143   1.944   0.018  0.00  0.00    -0.281 N 
ATOM     25  H   UNL     1      -2.052   1.607   0.019  0.00  0.00    +0.152 HD
BRANCH  18  26
ATOM     26  C   UNL     1      -1.236   4.066  -1.202  0.00  0.00    -0.015 A 
ATOM     27  C   UNL     1      -1.432   5.434  -1.179  0.00  0.00    +0.006 A 
ATOM     28  C   UNL     1      -1.894   6.084  -2.308  0.00  0.00    +0.000 A 
ATOM     29  C   UNL     1      -2.169   5.365  -3.457  0.00  0.00    +0.000 A 
ATOM     30  C   UNL     1      -1.979   3.997  -3.477  0.00  0.00    +0.000 A 
ATOM     31  C   UNL     1      -1.512   3.347  -2.350  0.00  0.00    +0.006 A 
ENDBRANCH  18  26
BRANCH  18  33
ATOM     32  C   UNL     1      -0.735   3.291   2.525  0.00  0.00    +0.007 C 
ATOM     33  C   UNL     1      -1.220   4.059   1.294  0.00  0.00    +0.037 C 
ENDBRANCH  18  33
ENDBRANCH   1  21
TORSDOF 5
