REMARK  Name = ZINC33261400
REMARK  12 active torsions:
REMARK  status: ('A' for Active; 'I' for Inactive)
REMARK    1  A    between atoms: C_1  and  C_2
REMARK    2  A    between atoms: C_5  and  N_14
REMARK    3  A    between atoms: N_6  and  C_8
REMARK    4  A    between atoms: N_21  and  C_23
REMARK    5  A    between atoms: C_23  and  C_24
REMARK    6  A    between atoms: C_24  and  C_25
REMARK    7  A    between atoms: C_25  and  C_26
REMARK    8  A    between atoms: N_28  and  C_29
REMARK    9  A    between atoms: C_29  and  C_30
REMARK   10  A    between atoms: C_30  and  N_31
REMARK   11  A    between atoms: N_31  and  C_32
REMARK   12  A    between atoms: N_31  and  C_33
REMARK                            x       y       z     vdW  Elec       q    Type
REMARK                         _______ _______ _______ _____ _____    ______ ____
ROOT
ATOM      1  C   UNL     1       3.075   3.765  -0.007  0.00  0.00    +0.070 C 
ATOM      2  C   UNL     1       1.656   3.258   0.004  0.00  0.00    +0.086 A 
ATOM      3  C   UNL     1       1.391   1.815  -0.002  0.00  0.00    +0.123 A 
ATOM      4  C   UNL     1      -0.017   1.378   0.010  0.00  0.00    +0.112 A 
ATOM      5  C   UNL     1       0.002  -0.004   0.002  0.00  0.00    +0.154 A 
ATOM      6  N   UNL     1       1.294  -0.394  -0.012  0.00  0.00    -0.215 N 
ATOM      7  N   UNL     1       2.128   0.731  -0.014  0.00  0.00    -0.162 NA
ATOM      8  C   UNL     1      -1.050   2.412   0.030  0.00  0.00    +0.280 A 
ATOM      9  O   UNL     1      -2.230   2.110   0.046  0.00  0.00    -0.265 OA
ATOM     10  N   UNL     1      -0.672   3.707   0.029  0.00  0.00    -0.229 N 
ATOM     11  N   UNL     1       0.665   4.096   0.018  0.00  0.00    -0.171 NA
ENDROOT
BRANCH   6  12
ATOM     12  C   UNL     1       1.735  -1.723  -0.024  0.00  0.00    +0.068 A 
ATOM     13  C   UNL     1       1.029  -2.696   0.671  0.00  0.00    +0.028 A 
ATOM     14  C   UNL     1       1.463  -4.007   0.653  0.00  0.00    +0.002 A 
ATOM     15  C   UNL     1       2.606  -4.349  -0.047  0.00  0.00    +0.000 A 
ATOM     16  C   UNL     1       3.314  -3.381  -0.736  0.00  0.00    +0.002 A 
ATOM     17  C   UNL     1       2.882  -2.070  -0.726  0.00  0.00    +0.028 A 
ENDBRANCH   6  12
BRANCH   5  18
ATOM     18  N   UNL     1      -1.108  -0.841   0.008  0.00  0.00    -0.307 N 
ATOM     19  C   UNL     1      -2.208  -0.702   0.808  0.00  0.00    +0.092 A 
ATOM     20  C   UNL     1      -3.067  -1.699   0.520  0.00  0.00    +0.019 A 
ATOM     21  C   UNL     1      -2.477  -2.490  -0.487  0.00  0.00    +0.019 A 
ATOM     22  C   UNL     1      -1.280  -1.944  -0.782  0.00  0.00    +0.092 A 
ENDBRANCH   5  18
BRANCH  10  23
ATOM     23  C   UNL     1      -1.707   4.743   0.045  0.00  0.00    +0.148 C 
BRANCH  23  24
ATOM     24  C   UNL     1      -2.054   5.095   1.493  0.00  0.00    +0.033 C 
BRANCH  24  25
ATOM     25  C   UNL     1      -3.135   6.177   1.510  0.00  0.00    +0.097 C 
BRANCH  25  26
ATOM     26  C   UNL     1      -3.477   6.525   2.936  0.00  0.00    +0.213 C 
ATOM     27  O   UNL     1      -2.911   5.962   3.849  0.00  0.00    -0.276 OA
ATOM     28  N   UNL     1      -4.411   7.460   3.196  0.00  0.00    -0.317 N 
ATOM     29  H   UNL     1      -4.925   7.971   2.368  0.00  0.00    +0.149 HD
BRANCH  28  30
ATOM     30  C   UNL     1      -4.743   7.798   4.583  0.00  0.00    +0.085 C 
BRANCH  30  31
ATOM     31  C   UNL     1      -5.824   8.880   4.599  0.00  0.00    -0.060 C 
BRANCH  31  32
ATOM     32  N   UNL     1      -6.157   9.219   5.989  0.00  0.00    +0.381 N 
ATOM     33  C   UNL     1      -6.790   8.082   6.671  0.00  0.00    -0.096 C 
ATOM     34  H   UNL     1      -5.219   9.448   6.515  0.00  0.00    -0.082 HD
BRANCH  32  35
ATOM     35  C   UNL     1      -7.012  10.411   6.051  0.00  0.00    -0.069 C 
ATOM     36  C   UNL     1      -6.280  11.597   5.419  0.00  0.00    -0.015 C 
ATOM     37  C   UNL     1      -7.171  12.839   5.483  0.00  0.00    -0.002 C 
ATOM     38  C   UNL     1      -7.495  13.160   6.943  0.00  0.00    -0.000 C 
ATOM     39  C   UNL     1      -8.228  11.974   7.575  0.00  0.00    -0.002 C 
ATOM     40  C   UNL     1      -7.337  10.732   7.511  0.00  0.00    -0.015 C 
ENDBRANCH  32  35
ENDBRANCH  31  32
ENDBRANCH  30  31
ENDBRANCH  28  30
ENDBRANCH  25  26
ENDBRANCH  24  25
ENDBRANCH  23  24
ENDBRANCH  10  23
TORSDOF 10
