REMARK  Name = ZINC08707004
REMARK  10 active torsions:
REMARK  status: ('A' for Active; 'I' for Inactive)
REMARK    1  A    between atoms: C_1  and  C_2
REMARK    2  A    between atoms: C_2  and  C_3
REMARK    3  A    between atoms: C_3  and  C_5
REMARK    4  A    between atoms: C_3  and  C_6
REMARK    5  A    between atoms: C_6  and  C_7
REMARK    6  A    between atoms: C_8  and  C_34
REMARK    7  A    between atoms: C_16  and  S_18
REMARK    8  A    between atoms: S_18  and  C_19
REMARK    9  A    between atoms: C_19  and  C_20
REMARK   10  A    between atoms: N_22  and  C_23
REMARK                            x       y       z     vdW  Elec       q    Type
REMARK                         _______ _______ _______ _____ _____    ______ ____
ROOT
ATOM      1  C   UNL     1      -1.591   3.568   0.111  0.00  0.00    -0.023 A 
ATOM      2  C   UNL     1      -2.908   3.769   0.262  0.00  0.00    -0.007 A 
ATOM      3  S   UNL     1      -3.426   4.345  -1.344  0.00  0.00    -0.073 S 
ATOM      4  C   UNL     1      -1.858   4.299  -2.172  0.00  0.00    +0.117 A 
ATOM      5  C   UNL     1      -0.974   3.843  -1.176  0.00  0.00    +0.075 A 
ATOM      6  C   UNL     1       0.393   3.701  -1.574  0.00  0.00    +0.261 A 
ATOM      7  O   UNL     1       1.230   3.309  -0.779  0.00  0.00    -0.267 OA
ATOM      8  N   UNL     1       0.744   4.013  -2.835  0.00  0.00    -0.301 N 
ATOM      9  H   UNL     1       1.670   3.922  -3.107  0.00  0.00    +0.171 HD
ATOM     10  C   UNL     1      -0.179   4.454  -3.738  0.00  0.00    +0.170 A 
ATOM     11  N   UNL     1      -1.446   4.589  -3.400  0.00  0.00    -0.216 NA
ATOM     12  C   UNL     1      -3.749   3.558   1.494  0.00  0.00    +0.052 C 
ENDROOT
BRANCH   1  13
ATOM     13  C   UNL     1      -0.758   3.069   1.264  0.00  0.00    +0.040 C 
BRANCH  13  14
ATOM     14  C   UNL     1      -0.730   1.539   1.248  0.00  0.00    -0.010 C 
ATOM     15  C   UNL     1      -0.008   1.056  -0.012  0.00  0.00    +0.008 C 
BRANCH  14  17
ATOM     16  C   UNL     1      -0.070  -0.497   2.536  0.00  0.00    +0.004 C 
ATOM     17  C   UNL     1       0.009   1.030   2.487  0.00  0.00    +0.000 C 
ENDBRANCH  14  17
ENDBRANCH  13  14
ENDBRANCH   1  13
BRANCH  10  18
ATOM     18  S   UNL     1       0.329   4.849  -5.378  0.00  0.00    -0.078 S 
BRANCH  18  19
ATOM     19  C   UNL     1      -1.257   5.356  -6.086  0.00  0.00    +0.173 C 
BRANCH  19  20
ATOM     20  C   UNL     1      -1.062   5.750  -7.528  0.00  0.00    +0.227 C 
ATOM     21  O   UNL     1       0.042   5.693  -8.027  0.00  0.00    -0.275 OA
ATOM     22  N   UNL     1      -2.113   6.165  -8.261  0.00  0.00    -0.285 N 
ATOM     23  H   UNL     1      -3.006   6.147  -7.883  0.00  0.00    +0.155 HD
BRANCH  22  24
ATOM     24  C   UNL     1      -1.916   6.623  -9.571  0.00  0.00    +0.037 A 
ATOM     25  C   UNL     1      -2.701   7.653 -10.070  0.00  0.00    +0.027 A 
ATOM     26  C   UNL     1      -2.507   8.111 -11.361  0.00  0.00    +0.051 A 
ATOM     27  C   UNL     1      -1.533   7.532 -12.157  0.00  0.00    +0.162 A 
ATOM     28  C   UNL     1      -0.750   6.499 -11.662  0.00  0.00    +0.164 A 
ATOM     29  C   UNL     1      -0.940   6.042 -10.370  0.00  0.00    +0.072 A 
ATOM     30  O   UNL     1       0.207   5.938 -12.457  0.00  0.00    -0.488 OA
ATOM     31  C   UNL     1      -0.271   5.182 -13.572  0.00  0.00    +0.232 C 
ATOM     32  C   UNL     1      -0.562   6.091 -14.755  0.00  0.00    +0.082 C 
ATOM     33  C   UNL     1      -1.697   7.063 -14.474  0.00  0.00    +0.232 C 
ATOM     34  O   UNL     1      -1.337   7.975 -13.434  0.00  0.00    -0.488 OA
ENDBRANCH  22  24
ENDBRANCH  19  20
ENDBRANCH  18  19
ENDBRANCH  10  18
TORSDOF 7
