REMARK  Name = ZINC39668825
REMARK  7 active torsions:
REMARK  status: ('A' for Active; 'I' for Inactive)
REMARK    1  A    between atoms: C_1  and  C_2
REMARK    2  A    between atoms: C_2  and  C_4
REMARK    3  A    between atoms: C_2  and  O_30
REMARK    4  A    between atoms: C_4  and  N_5
REMARK    5  A    between atoms: C_6  and  C_8
REMARK    6  A    between atoms: C_19  and  C_21
REMARK    7  A    between atoms: O_30  and  C_31
REMARK                            x       y       z     vdW  Elec       q    Type
REMARK                         _______ _______ _______ _____ _____    ______ ____
ROOT
ATOM      1  C   UNL     1      -3.162  -3.786  -0.496  0.00  0.00    +0.100 C 
ATOM      2  C   UNL     1      -2.530  -4.210  -1.841  0.00  0.00    +0.121 C 
ATOM      3  N   UNL     1      -3.439  -5.254  -2.369  0.00  0.00    -0.296 N 
ATOM      4  C   UNL     1      -4.798  -4.764  -2.033  0.00  0.00    +0.115 C 
ATOM      5  C   UNL     1      -4.650  -4.150  -0.627  0.00  0.00    -0.004 C 
ATOM      6  C   UNL     1      -5.514  -2.899  -0.505  0.00  0.00    -0.010 C 
ATOM      7  C   UNL     1      -6.991  -3.294  -0.579  0.00  0.00    -0.082 C 
ATOM      8  N   UNL     1      -7.303  -4.235   0.503  0.00  0.00    +0.379 N 
ATOM      9  C   UNL     1      -6.536  -5.474   0.326  0.00  0.00    -0.082 C 
ATOM     10  C   UNL     1      -5.039  -5.171   0.439  0.00  0.00    -0.010 C 
ATOM     11  C   UNL     1      -3.106  -6.392  -3.009  0.00  0.00    +0.252 C 
ATOM     12  O   UNL     1      -3.975  -7.155  -3.385  0.00  0.00    -0.270 OA
ATOM     13  H   UNL     1      -7.064  -3.817   1.390  0.00  0.00    -0.086 HD
ATOM     14  H   UNL     1      -8.289  -4.447   0.490  0.00  0.00    -0.086 HD
ENDROOT
BRANCH  11  15
ATOM     15  C   UNL     1      -1.687  -6.713  -3.254  0.00  0.00    +0.108 A 
ATOM     16  C   UNL     1      -0.960  -7.452  -2.314  0.00  0.00    +0.138 A 
ATOM     17  C   UNL     1       0.368  -7.749  -2.551  0.00  0.00    +0.041 A 
ATOM     18  C   UNL     1       0.981  -7.317  -3.714  0.00  0.00    +0.026 A 
ATOM     19  C   UNL     1       0.271  -6.586  -4.649  0.00  0.00    +0.077 A 
ATOM     20  C   UNL     1      -1.062  -6.285  -4.430  0.00  0.00    +0.156 A 
ATOM     21  F   UNL     1      -1.756  -5.576  -5.347  0.00  0.00    -0.203 F 
ATOM     22 CL   UNL     1       1.051  -6.049  -6.104  0.00  0.00    -0.081 Cl
ATOM     23  F   UNL     1      -1.556  -7.874  -1.177  0.00  0.00    -0.205 F 
ENDBRANCH  11  15
BRANCH   1  25
ATOM     24  N   UNL     1      -2.932  -1.802   0.964  0.00  0.00    -0.312 N 
ATOM     25  C   UNL     1      -3.002  -2.302  -0.286  0.00  0.00    +0.218 C 
ATOM     26  O   UNL     1      -2.936  -1.558  -1.241  0.00  0.00    -0.275 OA
ATOM     27  H   UNL     1      -2.984  -2.397   1.728  0.00  0.00    +0.149 HD
BRANCH  24  28
ATOM     28  C   UNL     1      -2.776  -0.360   1.168  0.00  0.00    +0.148 C 
BRANCH  28  30
ATOM     29  C   UNL     1      -2.561   1.446   2.881  0.00  0.00    +0.053 C 
ATOM     30  C   UNL     1      -2.724  -0.060   2.667  0.00  0.00    +0.187 C 
BRANCH  30  31
ATOM     31  O   UNL     1      -3.935  -0.500   3.284  0.00  0.00    -0.486 OA
BRANCH  31  32
ATOM     32  C   UNL     1      -3.877  -0.814   4.605  0.00  0.00    +0.139 A 
ATOM     33  C   UNL     1      -2.710  -0.596   5.331  0.00  0.00    +0.049 A 
ATOM     34  C   UNL     1      -2.698  -0.932   6.675  0.00  0.00    +0.023 A 
ATOM     35  C   UNL     1      -3.837  -1.469   7.246  0.00  0.00    +0.111 A 
ATOM     36  N   UNL     1      -4.927  -1.663   6.530  0.00  0.00    -0.260 NA
ATOM     37  C   UNL     1      -4.981  -1.351   5.250  0.00  0.00    +0.156 A 
ENDBRANCH  31  32
ENDBRANCH  30  31
ENDBRANCH  28  30
ENDBRANCH  24  28
ENDBRANCH   1  25
TORSDOF 6
