REMARK  Name = ZINC23483054
REMARK  16 active torsions:
REMARK  status: ('A' for Active; 'I' for Inactive)
REMARK    1  A    between atoms: C_1  and  C_2
REMARK    2  A    between atoms: C_2  and  C_3
REMARK    3  A    between atoms: C_3  and  C_4
REMARK    4  A    between atoms: C_4  and  O_5
REMARK    5  A    between atoms: O_5  and  C_6
REMARK    6  A    between atoms: C_6  and  C_8
REMARK    7  A    between atoms: C_11  and  N_14
REMARK    8  A    between atoms: C_15  and  C_17
REMARK    9  A    between atoms: C_17  and  S_18
REMARK   10  A    between atoms: S_18  and  C_19
REMARK   11  A    between atoms: C_22  and  C_31
REMARK   12  A    between atoms: N_23  and  C_24
REMARK   13  A    between atoms: C_31  and  C_33
REMARK   14  A    between atoms: C_31  and  N_34
REMARK   15  A    between atoms: N_34  and  C_35
REMARK   16  A    between atoms: N_34  and  C_36
REMARK                            x       y       z     vdW  Elec       q    Type
REMARK                         _______ _______ _______ _____ _____    ______ ____
ROOT
ATOM      1  S   UNL     1      -2.234   5.907   5.533  0.00  0.00    -0.076 S 
ENDROOT
BRANCH   1   2
ATOM      2  C   UNL     1      -2.170   4.794   4.168  0.00  0.00    +0.197 A 
ATOM      3  N   UNL     1      -2.956   3.761   3.966  0.00  0.00    -0.122 NA
ATOM      4  N   UNL     1      -2.631   3.173   2.870  0.00  0.00    -0.135 NA
ATOM      5  C   UNL     1      -1.623   3.783   2.315  0.00  0.00    +0.125 A 
ATOM      6  N   UNL     1      -1.293   4.841   3.120  0.00  0.00    -0.275 N 
BRANCH   6   7
ATOM      7  C   UNL     1      -0.270   5.778   2.913  0.00  0.00    +0.050 A 
ATOM      8  C   UNL     1       1.058   5.373   2.934  0.00  0.00    +0.029 A 
ATOM      9  C   UNL     1       2.064   6.296   2.725  0.00  0.00    +0.040 A 
ATOM     10  C   UNL     1       1.750   7.626   2.504  0.00  0.00    +0.124 A 
ATOM     11  C   UNL     1       0.426   8.033   2.487  0.00  0.00    +0.040 A 
ATOM     12  C   UNL     1      -0.583   7.112   2.691  0.00  0.00    +0.029 A 
ATOM     13  F   UNL     1       2.735   8.528   2.304  0.00  0.00    -0.205 F 
ENDBRANCH   6   7
BRANCH   5  14
ATOM     14  C   UNL     1      -0.948   3.400   1.023  0.00  0.00    -0.003 C 
ATOM     15  C   UNL     1      -1.840   3.794  -0.155  0.00  0.00    -0.005 C 
BRANCH  14  16
ATOM     16  N   UNL     1      -0.721   1.949   1.001  0.00  0.00    +0.382 N 
ATOM     17  C   UNL     1      -0.063   1.538  -0.247  0.00  0.00    -0.096 C 
ATOM     18  C   UNL     1       0.056   1.520   2.172  0.00  0.00    -0.096 C 
ATOM     19  H   UNL     1      -1.701   1.452   1.045  0.00  0.00    -0.082 HD
ENDBRANCH  14  16
ENDBRANCH   5  14
ENDBRANCH   1   2
BRANCH   1  20
ATOM     20  C   UNL     1      -3.620   5.195   6.454  0.00  0.00    +0.173 C 
BRANCH  20  22
ATOM     21  N   UNL     1      -4.855   5.662   8.546  0.00  0.00    -0.285 N 
ATOM     22  C   UNL     1      -3.865   6.008   7.700  0.00  0.00    +0.227 C 
ATOM     23  O   UNL     1      -3.171   6.973   7.941  0.00  0.00    -0.275 OA
ATOM     24  H   UNL     1      -5.539   4.841   8.286  0.00  0.00    +0.155 HD
BRANCH  21  28
ATOM     25  C   UNL     1      -5.325   7.702  12.147  0.00  0.00    +0.059 A 
ATOM     26  C   UNL     1      -6.444   7.209  11.470  0.00  0.00    +0.017 A 
ATOM     27  C   UNL     1      -6.285   6.535  10.280  0.00  0.00    +0.024 A 
ATOM     28  C   UNL     1      -5.012   6.345   9.751  0.00  0.00    +0.033 A 
ATOM     29  C   UNL     1      -3.896   6.830  10.425  0.00  0.00    +0.024 A 
ATOM     30  C   UNL     1      -4.047   7.509  11.613  0.00  0.00    +0.017 A 
BRANCH  25  31
ATOM     31  C   UNL     1      -5.491   8.424  13.422  0.00  0.00    +0.339 C 
ATOM     32  O   UNL     1      -6.602   8.592  13.885  0.00  0.00    -0.245 OA
BRANCH  31  33
ATOM     33  O   UNL     1      -4.411   8.899  14.073  0.00  0.00    -0.461 OA
BRANCH  33  34
ATOM     34  C   UNL     1      -4.650   9.600  15.322  0.00  0.00    +0.232 C 
BRANCH  34  35
ATOM     35  C   UNL     1      -3.315  10.061  15.912  0.00  0.00    +0.041 C 
BRANCH  35  37
ATOM     36  C   UNL     1      -2.232  11.261  17.817  0.00  0.00    +0.004 C 
ATOM     37  C   UNL     1      -3.567  10.800  17.228  0.00  0.00    -0.000 C 
ENDBRANCH  35  37
ENDBRANCH  34  35
ENDBRANCH  33  34
ENDBRANCH  31  33
ENDBRANCH  25  31
ENDBRANCH  21  28
ENDBRANCH  20  22
ENDBRANCH   1  20
TORSDOF 12
