REMARK  Name = ZINC18524937
REMARK  14 active torsions:
REMARK  status: ('A' for Active; 'I' for Inactive)
REMARK    1  A    between atoms: C_1  and  C_2
REMARK    2  A    between atoms: C_2  and  O_3
REMARK    3  A    between atoms: O_3  and  C_4
REMARK    4  A    between atoms: C_4  and  C_6
REMARK    5  A    between atoms: C_7  and  C_34
REMARK    6  A    between atoms: C_9  and  N_14
REMARK    7  A    between atoms: C_10  and  C_11
REMARK    8  A    between atoms: C_15  and  C_17
REMARK    9  A    between atoms: C_17  and  S_18
REMARK   10  A    between atoms: S_18  and  C_19
REMARK   11  A    between atoms: C_22  and  C_25
REMARK   12  A    between atoms: N_23  and  N_24
REMARK   13  A    between atoms: C_25  and  O_26
REMARK   14  A    between atoms: O_26  and  C_27
REMARK                            x       y       z     vdW  Elec       q    Type
REMARK                         _______ _______ _______ _____ _____    ______ ____
ROOT
ATOM      1  N   UNL     1      -1.371   6.390   0.044  0.00  0.00    -0.255 N 
ATOM      2  C   UNL     1      -1.724   5.089   0.038  0.00  0.00    +0.230 C 
ATOM      3  O   UNL     1      -2.897   4.779   0.042  0.00  0.00    -0.274 OA
ATOM      4  H   UNL     1      -0.434   6.638   0.040  0.00  0.00    +0.158 HD
ENDROOT
BRANCH   1   8
ATOM      5  C   UNL     1      -3.467   9.352   0.070  0.00  0.00    +0.114 A 
ATOM      6  C   UNL     1      -4.346   8.315   0.069  0.00  0.00    +0.119 A 
ATOM      7  O   UNL     1      -3.669   7.160   0.060  0.00  0.00    -0.445 OA
ATOM      8  C   UNL     1      -2.346   7.370   0.054  0.00  0.00    +0.206 A 
ATOM      9  C   UNL     1      -2.120   8.734   0.066  0.00  0.00    +0.111 A 
ATOM     10  C   UNL     1      -5.848   8.445   0.078  0.00  0.00    +0.087 C 
BRANCH   9  11
ATOM     11  C   UNL     1      -0.826   9.422   0.070  0.00  0.00    +0.247 C 
ATOM     12  O   UNL     1      -0.290   9.717  -0.982  0.00  0.00    -0.270 OA
ATOM     13  N   UNL     1      -0.230   9.728   1.240  0.00  0.00    -0.325 N 
ATOM     14  H   UNL     1      -0.657   9.492   2.078  0.00  0.00    +0.145 HD
ATOM     15  H   UNL     1       0.627  10.183   1.243  0.00  0.00    +0.145 HD
ENDBRANCH   9  11
BRANCH   5  16
ATOM     16  C   UNL     1      -3.786  10.787   0.078  0.00  0.00    +0.343 C 
ATOM     17  O   UNL     1      -3.913  11.376   1.134  0.00  0.00    -0.245 OA
BRANCH  16  18
ATOM     18  O   UNL     1      -3.939  11.451  -1.085  0.00  0.00    -0.461 OA
BRANCH  18  20
ATOM     19  C   UNL     1      -4.387  13.443  -2.412  0.00  0.00    +0.048 C 
ATOM     20  C   UNL     1      -4.253  12.866  -1.001  0.00  0.00    +0.229 C 
ENDBRANCH  18  20
ENDBRANCH  16  18
ENDBRANCH   5  16
ENDBRANCH   1   8
BRANCH   2  21
ATOM     21  C   UNL     1      -0.662   4.020   0.027  0.00  0.00    +0.173 C 
BRANCH  21  22
ATOM     22  S   UNL     1      -1.447   2.389   0.022  0.00  0.00    -0.075 S 
BRANCH  22  23
ATOM     23  C   UNL     1      -0.016   1.361   0.009  0.00  0.00    +0.209 A 
ATOM     24  N   UNL     1       1.233   1.763  -0.000  0.00  0.00    -0.121 NA
ATOM     25  N   UNL     1       2.019   0.745  -0.013  0.00  0.00    -0.128 NA
ATOM     26  C   UNL     1       1.323  -0.356  -0.013  0.00  0.00    +0.189 A 
ATOM     27  N   UNL     1       0.002  -0.004   0.002  0.00  0.00    -0.225 N 
BRANCH  27  28
ATOM     28  N   UNL     1      -1.075  -0.844   0.008  0.00  0.00    -0.295 N 
ATOM     29  H   UNL     1      -1.370  -1.060  -0.933  0.00  0.00    +0.163 HD
ATOM     30  H   UNL     1      -0.875  -1.685   0.527  0.00  0.00    +0.163 HD
ENDBRANCH  27  28
BRANCH  26  31
ATOM     31  C   UNL     1       1.873  -1.760  -0.025  0.00  0.00    +0.306 C 
BRANCH  31  32
ATOM     32  O   UNL     1       2.034  -2.196  -1.377  0.00  0.00    -0.481 OA
BRANCH  32  33
ATOM     33  C   UNL     1       2.524  -3.450  -1.566  0.00  0.00    +0.156 A 
ATOM     34  C   UNL     1       2.849  -4.241  -0.475  0.00  0.00    +0.048 A 
ATOM     35  C   UNL     1       3.343  -5.517  -0.669  0.00  0.00    +0.004 A 
ATOM     36  C   UNL     1       3.524  -6.002  -1.952  0.00  0.00    +0.003 A 
ATOM     37  C   UNL     1       3.206  -5.215  -3.043  0.00  0.00    +0.042 A 
ATOM     38  C   UNL     1       2.706  -3.938  -2.853  0.00  0.00    +0.165 A 
ATOM     39  F   UNL     1       2.397  -3.168  -3.920  0.00  0.00    -0.202 F 
ENDBRANCH  32  33
ENDBRANCH  31  32
ENDBRANCH  26  31
ENDBRANCH  22  23
ENDBRANCH  21  22
ENDBRANCH   2  21
TORSDOF 12
