REMARK  Name = ZINC59266119
REMARK  7 active torsions:
REMARK  status: ('A' for Active; 'I' for Inactive)
REMARK    1  A    between atoms: C_4  and  C_7
REMARK    2  A    between atoms: C_10  and  S_13
REMARK    3  A    between atoms: N_11  and  N_12
REMARK    4  A    between atoms: S_13  and  C_14
REMARK    5  A    between atoms: C_14  and  C_15
REMARK    6  A    between atoms: C_15  and  C_16
REMARK    7  A    between atoms: N_18  and  C_19
REMARK                            x       y       z     vdW  Elec       q    Type
REMARK                         _______ _______ _______ _____ _____    ______ ____
ROOT
ATOM      1  C   UNL     1       3.696  -0.684  -0.033  0.00  0.00    +0.182 A 
ATOM      2  N   UNL     1       4.870  -0.171  -0.319  0.00  0.00    -0.127 NA
ATOM      3  N   UNL     1       5.776  -1.079  -0.238  0.00  0.00    -0.121 NA
ATOM      4  C   UNL     1       5.236  -2.227   0.104  0.00  0.00    +0.209 A 
ATOM      5  N   UNL     1       3.895  -2.016   0.251  0.00  0.00    -0.224 N 
ENDROOT
BRANCH   1   9
ATOM      6  C   UNL     1      -0.016   1.380   0.018  0.00  0.00    +0.000 A 
ATOM      7  C   UNL     1       1.169   2.094   0.001  0.00  0.00    +0.001 A 
ATOM      8  C   UNL     1       2.378   1.430  -0.015  0.00  0.00    +0.011 A 
ATOM      9  C   UNL     1       2.404   0.034  -0.015  0.00  0.00    +0.021 A 
ATOM     10  C   UNL     1       1.205  -0.680   0.003  0.00  0.00    +0.011 A 
ATOM     11  C   UNL     1       0.003  -0.003   0.019  0.00  0.00    +0.001 A 
ENDBRANCH   1   9
BRANCH   5  12
ATOM     12  N   UNL     1       2.948  -2.935   0.605  0.00  0.00    -0.295 N 
ATOM     13  H   UNL     1       2.566  -3.392  -0.210  0.00  0.00    +0.163 HD
ATOM     14  H   UNL     1       3.324  -3.609   1.255  0.00  0.00    +0.163 HD
ENDBRANCH   5  12
BRANCH   4  15
ATOM     15  S   UNL     1       6.085  -3.754   0.335  0.00  0.00    -0.084 S 
BRANCH  15  16
ATOM     16  C   UNL     1       7.820  -3.347  -0.005  0.00  0.00    +0.086 C 
BRANCH  16  17
ATOM     17  C   UNL     1       8.680  -4.601   0.162  0.00  0.00    +0.107 C 
BRANCH  17  18
ATOM     18  C   UNL     1      10.121  -4.263  -0.120  0.00  0.00    +0.218 C 
ATOM     19  O   UNL     1      10.430  -3.131  -0.425  0.00  0.00    -0.275 OA
ATOM     20  N   UNL     1      11.067  -5.220  -0.034  0.00  0.00    -0.285 N 
ATOM     21  H   UNL     1      10.831  -6.109   0.274  0.00  0.00    +0.155 HD
BRANCH  20  22
ATOM     22  C   UNL     1      12.389  -4.930  -0.390  0.00  0.00    +0.033 A 
ATOM     23  C   UNL     1      13.172  -5.898  -1.006  0.00  0.00    +0.024 A 
ATOM     24  C   UNL     1      14.476  -5.610  -1.356  0.00  0.00    +0.017 A 
ATOM     25  C   UNL     1      15.003  -4.358  -1.094  0.00  0.00    +0.018 A 
ATOM     26  C   UNL     1      14.226  -3.391  -0.481  0.00  0.00    +0.017 A 
ATOM     27  C   UNL     1      12.919  -3.673  -0.133  0.00  0.00    +0.024 A 
ATOM     28 BR   UNL     1      16.790  -3.967  -1.575  0.00  0.00    -0.050 Br
ENDBRANCH  20  22
ENDBRANCH  17  18
ENDBRANCH  16  17
ENDBRANCH  15  16
ENDBRANCH   4  15
TORSDOF 7
