REMARK  Name = ZINC15782517
REMARK  5 active torsions:
REMARK  status: ('A' for Active; 'I' for Inactive)
REMARK    1  A    between atoms: C_1  and  C_2
REMARK    2  A    between atoms: C_5  and  C_8
REMARK    3  A    between atoms: C_10  and  N_22
REMARK    4  A    between atoms: C_12  and  O_21
REMARK    5  A    between atoms: C_18  and  C_20
REMARK                            x       y       z     vdW  Elec       q    Type
REMARK                         _______ _______ _______ _____ _____    ______ ____
ROOT
ATOM      1  C   UNL     1       0.059  -4.275  -0.021  0.00  0.00    +0.139 C 
ATOM      2  C   UNL     1      -1.357  -4.799   0.221  0.00  0.00    +0.184 C 
ATOM      3  C   UNL     1      -1.342  -6.336   0.261  0.00  0.00    +0.248 C 
ATOM      4  N   UNL     1      -0.319  -6.735   1.232  0.00  0.00    -0.208 N 
ATOM      5  C   UNL     1       0.757  -5.921   1.567  0.00  0.00    +0.116 C 
ATOM      6  N   UNL     1       0.972  -4.754   1.024  0.00  0.00    -0.363 N 
ATOM      7  C   UNL     1       1.517  -6.641   2.582  0.00  0.00    +0.062 C 
ATOM      8  C   UNL     1       0.898  -7.819   2.785  0.00  0.00    +0.022 C 
ATOM      9  N   UNL     1      -0.206  -7.905   1.974  0.00  0.00    -0.265 N 
ATOM     10  C   UNL     1       1.347  -8.880   3.756  0.00  0.00    +0.062 C 
ATOM     11  H   UNL     1      -0.810  -8.662   1.925  0.00  0.00    +0.170 HD
ATOM     12  H   UNL     1       1.724  -4.211   1.308  0.00  0.00    +0.162 HD
ENDROOT
BRANCH   2  13
ATOM     13  N   UNL     1      -2.235  -4.349  -0.861  0.00  0.00    -0.234 N 
ATOM     14  C   UNL     1      -3.356  -3.563  -0.738  0.00  0.00    +0.090 A 
ATOM     15  C   UNL     1      -4.005  -2.968   0.339  0.00  0.00    +0.029 A 
ATOM     16  C   UNL     1      -5.133  -2.225   0.126  0.00  0.00    +0.002 A 
ATOM     17  C   UNL     1      -5.638  -2.060  -1.157  0.00  0.00    +0.002 A 
ATOM     18  C   UNL     1      -5.020  -2.633  -2.230  0.00  0.00    +0.032 A 
ATOM     19  C   UNL     1      -3.862  -3.399  -2.039  0.00  0.00    +0.113 A 
ATOM     20  N   UNL     1      -3.053  -4.072  -2.881  0.00  0.00    -0.129 NA
ATOM     21  N   UNL     1      -2.094  -4.630  -2.228  0.00  0.00    -0.064 NA
ENDBRANCH   2  13
BRANCH   1  26
ATOM     22  C   UNL     1      -0.018   1.503   0.010  0.00  0.00    +0.044 C 
ATOM     23  C   UNL     1       0.002  -0.004   0.002  0.00  0.00    -0.050 A 
ATOM     24  C   UNL     1       0.006  -0.689  -1.199  0.00  0.00    +0.004 A 
ATOM     25  C   UNL     1       0.025  -2.071  -1.206  0.00  0.00    +0.006 A 
ATOM     26  C   UNL     1       0.040  -2.768  -0.013  0.00  0.00    -0.023 A 
ATOM     27  C   UNL     1       0.037  -2.084   1.188  0.00  0.00    +0.006 A 
ATOM     28  C   UNL     1       0.023  -0.702   1.195  0.00  0.00    +0.004 A 
ENDBRANCH   1  26
BRANCH   3  29
ATOM     29  O   UNL     1      -1.016  -6.852  -1.031  0.00  0.00    -0.371 OA
ATOM     30  H   UNL     1      -0.991  -7.818  -1.074  0.00  0.00    +0.212 HD
ENDBRANCH   3  29
TORSDOF 3
