REMARK  Name = ZINC38576874
REMARK  5 active torsions:
REMARK  status: ('A' for Active; 'I' for Inactive)
REMARK    1  A    between atoms: C_4  and  C_7
REMARK    2  A    between atoms: C_10  and  N_22
REMARK    3  A    between atoms: C_13  and  C_16
REMARK    4  A    between atoms: N_22  and  C_23
REMARK    5  A    between atoms: C_23  and  C_24
REMARK                            x       y       z     vdW  Elec       q    Type
REMARK                         _______ _______ _______ _____ _____    ______ ____
ROOT
ATOM      1  C   UNL     1       3.696  -0.685  -0.037  0.00  0.00    +0.260 C 
ATOM      2  O   UNL     1       4.735  -0.063  -0.134  0.00  0.00    -0.269 OA
ATOM      3  N   UNL     1       3.720  -2.029   0.057  0.00  0.00    -0.232 N 
ATOM      4  C   UNL     1       4.928  -2.863   0.163  0.00  0.00    +0.106 C 
ATOM      5  N   UNL     1       4.455  -4.269   0.198  0.00  0.00    -0.292 NA
ATOM      6  C   UNL     1       3.103  -4.172  -0.418  0.00  0.00    +0.171 C 
ATOM      7  N   UNL     1       2.622  -2.855   0.076  0.00  0.00    -0.217 NA
ATOM      8  H   UNL     1       5.059  -4.867  -0.346  0.00  0.00    +0.124 HD
ATOM      9  H   UNL     1       2.244  -2.932   1.009  0.00  0.00    +0.147 HD
ENDROOT
BRANCH   1  13
ATOM     10  C   UNL     1      -0.017   1.379   0.003  0.00  0.00    +0.000 A 
ATOM     11  C   UNL     1       1.168   2.093   0.026  0.00  0.00    +0.001 A 
ATOM     12  C   UNL     1       2.377   1.429   0.013  0.00  0.00    +0.013 A 
ATOM     13  C   UNL     1       2.403   0.034  -0.023  0.00  0.00    +0.038 A 
ATOM     14  C   UNL     1       1.204  -0.680  -0.045  0.00  0.00    +0.013 A 
ATOM     15  C   UNL     1       0.002  -0.004  -0.032  0.00  0.00    +0.001 A 
ENDBRANCH   1  13
BRANCH   6  16
ATOM     16  C   UNL     1       2.212  -5.287   0.068  0.00  0.00    +0.003 A 
ATOM     17  C   UNL     1       0.841  -5.101   0.158  0.00  0.00    +0.009 A 
ATOM     18  C   UNL     1       0.061  -6.153   0.610  0.00  0.00    +0.020 A 
ATOM     19  C   UNL     1       0.671  -7.345   0.955  0.00  0.00    +0.111 A 
ATOM     20  N   UNL     1       1.979  -7.486   0.857  0.00  0.00    -0.263 NA
ATOM     21  C   UNL     1       2.751  -6.508   0.425  0.00  0.00    +0.117 A 
ENDBRANCH   6  16
BRANCH   4  22
ATOM     22  N   UNL     1       5.657  -2.543   1.398  0.00  0.00    +0.403 N 
ATOM     23  H   UNL     1       5.854  -1.554   1.425  0.00  0.00    -0.081 HD
ATOM     24  H   UNL     1       5.093  -2.795   2.196  0.00  0.00    -0.081 HD
BRANCH  22  25
ATOM     25  C   UNL     1       6.918  -3.296   1.432  0.00  0.00    -0.042 C 
BRANCH  25  26
ATOM     26  C   UNL     1       7.665  -2.967   2.698  0.00  0.00    -0.064 C 
ATOM     27  C   UNL     1       7.539  -3.774   3.795  0.00  0.00    +0.007 C 
ATOM     28  C   UNL     1       8.326  -3.406   4.901  0.00  0.00    -0.018 C 
ATOM     29  C   UNL     1       8.158  -3.534   6.227  0.00  0.00    +0.025 C 
ATOM     30  C   UNL     1       9.107  -2.731   6.899  0.00  0.00    +0.106 C 
ATOM     31  N   UNL     1       9.959  -2.187   6.077  0.00  0.00    -0.279 NA
ATOM     32  C   UNL     1       9.646  -2.668   4.739  0.00  0.00    +0.158 C 
ATOM     33  C   UNL     1       9.443  -1.601   3.707  0.00  0.00    +0.004 C 
ATOM     34  C   UNL     1       8.528  -1.790   2.751  0.00  0.00    -0.000 C 
ENDBRANCH  25  26
ENDBRANCH  22  25
ENDBRANCH   4  22
TORSDOF 5
