REMARK  Name = ZINC39883569
REMARK  10 active torsions:
REMARK  status: ('A' for Active; 'I' for Inactive)
REMARK    1  A    between atoms: C_1  and  C_2
REMARK    2  A    between atoms: C_2  and  C_3
REMARK    3  A    between atoms: C_2  and  C_4
REMARK    4  A    between atoms: C_2  and  C_5
REMARK    5  A    between atoms: C_11  and  C_14
REMARK    6  A    between atoms: C_14  and  C_15
REMARK    7  A    between atoms: N_17  and  C_18
REMARK    8  A    between atoms: C_18  and  C_19
REMARK    9  A    between atoms: C_22  and  S_25
REMARK   10  A    between atoms: S_25  and  N_28
REMARK                            x       y       z     vdW  Elec       q    Type
REMARK                         _______ _______ _______ _____ _____    ______ ____
ROOT
ATOM      1  C   UNL     1       5.876  -0.505  -1.544  0.00  0.00    +0.218 C 
ATOM      2  O   UNL     1       5.513  -1.646  -1.351  0.00  0.00    -0.275 OA
ATOM      3  N   UNL     1       6.933  -0.010  -0.869  0.00  0.00    -0.311 N 
ATOM      4  H   UNL     1       7.223   0.902  -1.024  0.00  0.00    +0.149 HD
ENDROOT
BRANCH   1   5
ATOM      5  C   UNL     1       5.146   0.360  -2.540  0.00  0.00    +0.134 C 
BRANCH   5  12
ATOM      6  C   UNL     1       0.707  -0.490  -1.238  0.00  0.00    -0.041 A 
ATOM      7  C   UNL     1       0.029  -1.287  -2.149  0.00  0.00    +0.008 A 
ATOM      8  C   UNL     1       0.657  -1.742  -3.289  0.00  0.00    +0.047 A 
ATOM      9  C   UNL     1       1.982  -1.401  -3.531  0.00  0.00    +0.135 A 
ATOM     10  C   UNL     1       2.663  -0.593  -2.605  0.00  0.00    +0.024 A 
ATOM     11  C   UNL     1       2.010  -0.138  -1.461  0.00  0.00    +0.016 A 
ATOM     12  C   UNL     1       4.014  -0.425  -3.151  0.00  0.00    +0.007 A 
ATOM     13  C   UNL     1       4.040  -1.109  -4.303  0.00  0.00    +0.200 A 
ATOM     14  O   UNL     1       2.845  -1.683  -4.528  0.00  0.00    -0.463 OA
BRANCH   6  16
ATOM     15  C   UNL     1      -0.019   1.526   0.010  0.00  0.00    +0.015 C 
ATOM     16  C   UNL     1       0.002  -0.004   0.002  0.00  0.00    -0.013 C 
ATOM     17  C   UNL     1       0.742  -0.511   1.242  0.00  0.00    +0.015 C 
ATOM     18  C   UNL     1      -1.433  -0.534   0.013  0.00  0.00    +0.015 C 
ENDBRANCH   6  16
ENDBRANCH   5  12
ENDBRANCH   1   5
BRANCH   3  19
ATOM     19  C   UNL     1       7.642  -0.851   0.099  0.00  0.00    +0.139 C 
BRANCH  19  20
ATOM     20  C   UNL     1       8.774  -0.066   0.710  0.00  0.00    -0.030 A 
ATOM     21  C   UNL     1      10.024  -0.082   0.120  0.00  0.00    +0.007 A 
ATOM     22  C   UNL     1      11.063   0.637   0.682  0.00  0.00    +0.029 A 
ATOM     23  C   UNL     1      10.851   1.373   1.833  0.00  0.00    +0.105 A 
ATOM     24  C   UNL     1       9.601   1.390   2.422  0.00  0.00    +0.029 A 
ATOM     25  C   UNL     1       8.561   0.674   1.858  0.00  0.00    +0.007 A 
BRANCH  23  26
ATOM     26  S   UNL     1      12.175   2.289   2.549  0.00  0.00    +0.056 S 
ATOM     27  O   UNL     1      11.857   2.455   3.924  0.00  0.00    -0.153 OA
ATOM     28  O   UNL     1      13.378   1.671   2.114  0.00  0.00    -0.153 OA
BRANCH  26  29
ATOM     29  N   UNL     1      12.147   3.800   1.872  0.00  0.00    -0.204 NA
ATOM     30  H   UNL     1      11.474   4.023   1.210  0.00  0.00    +0.144 HD
ATOM     31  H   UNL     1      12.804   4.463   2.137  0.00  0.00    +0.144 HD
ENDBRANCH  26  29
ENDBRANCH  23  26
ENDBRANCH  19  20
ENDBRANCH   3  19
TORSDOF 7
