REMARK  Name = ZINC20864642
REMARK  11 active torsions:
REMARK  status: ('A' for Active; 'I' for Inactive)
REMARK    1  A    between atoms: C_1  and  C_2
REMARK    2  A    between atoms: C_2  and  C_3
REMARK    3  A    between atoms: C_3  and  C_5
REMARK    4  A    between atoms: C_3  and  N_15
REMARK    5  A    between atoms: C_5  and  N_6
REMARK    6  A    between atoms: N_6  and  C_7
REMARK    7  A    between atoms: N_6  and  C_8
REMARK    8  A    between atoms: C_8  and  C_9
REMARK    9  A    between atoms: C_16  and  C_18
REMARK   10  A    between atoms: C_18  and  C_19
REMARK   11  A    between atoms: C_19  and  N_20
REMARK                            x       y       z     vdW  Elec       q    Type
REMARK                         _______ _______ _______ _____ _____    ______ ____
ROOT
ATOM      1  N   UNL     1       2.899  -6.986  -2.380  0.00  0.00    -0.314 N 
ATOM      2  C   UNL     1       2.056  -6.349  -1.544  0.00  0.00    +0.215 C 
ATOM      3  O   UNL     1       1.458  -6.974  -0.693  0.00  0.00    -0.276 OA
ATOM      4  H   UNL     1       3.441  -6.419  -3.151  0.00  0.00    +0.149 HD
ENDROOT
BRANCH   1   5
ATOM      5  C   UNL     1       3.093  -8.433  -2.263  0.00  0.00    +0.056 C 
BRANCH   5   7
ATOM      6  C   UNL     1       3.654  -8.267   0.166  0.00  0.00    +0.005 C 
ATOM      7  C   UNL     1       4.160  -8.720  -1.205  0.00  0.00    +0.017 C 
ENDBRANCH   5   7
BRANCH   5   8
ATOM      8  C   UNL     1       3.546  -8.998  -3.611  0.00  0.00    -0.056 C 
BRANCH   8   9
ATOM      9  N   UNL     1       2.580  -8.619  -4.650  0.00  0.00    +0.382 N 
ATOM     10  C   UNL     1       1.280  -9.264  -4.421  0.00  0.00    -0.096 C 
ATOM     11  H   UNL     1       2.432  -7.530  -4.594  0.00  0.00    -0.082 HD
BRANCH   9  12
ATOM     12  C   UNL     1       3.096  -8.936  -5.989  0.00  0.00    -0.043 C 
BRANCH  12  13
ATOM     13  C   UNL     1       2.200  -8.318  -7.031  0.00  0.00    -0.064 A 
ATOM     14  C   UNL     1       1.129  -9.033  -7.534  0.00  0.00    +0.002 A 
ATOM     15  C   UNL     1       0.304  -8.464  -8.486  0.00  0.00    +0.000 A 
ATOM     16  C   UNL     1       0.557  -7.184  -8.944  0.00  0.00    +0.000 A 
ATOM     17  C   UNL     1       1.632  -6.472  -8.446  0.00  0.00    +0.000 A 
ATOM     18  C   UNL     1       2.453  -7.038  -7.489  0.00  0.00    +0.002 A 
ENDBRANCH  12  13
ENDBRANCH   9  12
ENDBRANCH   8   9
ENDBRANCH   5   8
ENDBRANCH   1   5
BRANCH   2  19
ATOM     19  C   UNL     1       1.856  -4.860  -1.664  0.00  0.00    +0.115 C 
BRANCH  19  20
ATOM     20  C   UNL     1       0.857  -4.392  -0.604  0.00  0.00    +0.123 C 
BRANCH  20  21
ATOM     21  N   UNL     1       0.574  -2.967  -0.795  0.00  0.00    -0.266 N 
ATOM     22  C   UNL     1       1.334  -2.103  -0.019  0.00  0.00    +0.050 A 
ATOM     23  C   UNL     1       1.495  -2.408   1.333  0.00  0.00    +0.024 A 
ATOM     24  C   UNL     1       2.226  -1.577   2.157  0.00  0.00    +0.002 A 
ATOM     25  C   UNL     1       2.807  -0.431   1.648  0.00  0.00    +0.001 A 
ATOM     26  C   UNL     1       2.659  -0.121   0.310  0.00  0.00    +0.017 A 
ATOM     27  C   UNL     1       1.927  -0.956  -0.527  0.00  0.00    +0.036 A 
ATOM     28  S   UNL     1       1.773  -0.531  -2.227  0.00  0.00    -0.067 S 
ATOM     29  C   UNL     1       0.031  -0.316  -2.351  0.00  0.00    +0.114 A 
ATOM     30  C   UNL     1      -0.838  -1.381  -2.094  0.00  0.00    +0.069 A 
ATOM     31  C   UNL     1      -2.219  -1.173  -2.233  0.00  0.00    +0.017 A 
ATOM     32  C   UNL     1      -2.665   0.083  -2.603  0.00  0.00    +0.020 A 
ATOM     33  C   UNL     1      -1.745   1.092  -2.825  0.00  0.00    +0.112 A 
ATOM     34  N   UNL     1      -0.452   0.872  -2.699  0.00  0.00    -0.248 NA
ATOM     35  C   UNL     1      -0.358  -2.696  -1.673  0.00  0.00    +0.253 C 
ATOM     36  O   UNL     1      -0.888  -3.653  -2.202  0.00  0.00    -0.270 OA
ENDBRANCH  20  21
ENDBRANCH  19  20
ENDBRANCH   2  19
TORSDOF 9
