REMARK  Name = ZINC14583140
REMARK  9 active torsions:
REMARK  status: ('A' for Active; 'I' for Inactive)
REMARK    1  A    between atoms: C_1  and  C_2
REMARK    2  A    between atoms: C_3  and  C_35
REMARK    3  A    between atoms: C_11  and  C_13
REMARK    4  A    between atoms: C_13  and  S_14
REMARK    5  A    between atoms: S_14  and  C_15
REMARK    6  A    between atoms: C_15  and  C_17
REMARK    7  A    between atoms: C_15  and  C_18
REMARK    8  A    between atoms: N_20  and  C_21
REMARK    9  A    between atoms: C_24  and  C_27
REMARK                            x       y       z     vdW  Elec       q    Type
REMARK                         _______ _______ _______ _____ _____    ______ ____
ROOT
ATOM      1  C   UNL     1       3.407  11.334   0.130  0.00  0.00    +0.230 C 
ATOM      2  O   UNL     1       4.274  10.486   0.118  0.00  0.00    -0.274 OA
ATOM      3  N   UNL     1       2.111  10.975   0.039  0.00  0.00    -0.285 N 
ATOM      4  H   UNL     1       1.423  11.655  -0.028  0.00  0.00    +0.155 HD
ENDROOT
BRANCH   3   5
ATOM      5  C   UNL     1       1.759   9.621   0.042  0.00  0.00    +0.033 A 
ATOM      6  C   UNL     1       2.504   8.712   0.783  0.00  0.00    +0.024 A 
ATOM      7  C   UNL     1       2.158   7.377   0.787  0.00  0.00    +0.012 A 
ATOM      8  C   UNL     1       1.061   6.939   0.047  0.00  0.00    +0.002 A 
ATOM      9  C   UNL     1       0.319   7.853  -0.701  0.00  0.00    +0.012 A 
ATOM     10  C   UNL     1       0.665   9.187  -0.698  0.00  0.00    +0.024 A 
BRANCH   8  11
ATOM     11  C   UNL     1       0.687   5.504   0.050  0.00  0.00    +0.090 A 
ATOM     12  C   UNL     1      -0.350   4.950  -0.623  0.00  0.00    +0.121 A 
ATOM     13  N   UNL     1      -0.348   3.586  -0.352  0.00  0.00    -0.300 N 
ATOM     14  C   UNL     1      -1.087   2.473  -0.688  0.00  0.00    +0.100 A 
ATOM     15  C   UNL     1      -0.768   1.272  -0.208  0.00  0.00    +0.067 A 
ATOM     16  S   UNL     1       0.657   1.644   0.802  0.00  0.00    -0.058 S 
ATOM     17  C   UNL     1       0.716   3.393   0.489  0.00  0.00    +0.178 A 
ATOM     18  N   UNL     1       1.322   4.521   0.722  0.00  0.00    -0.221 NA
ENDBRANCH   8  11
ENDBRANCH   3   5
BRANCH   1  19
ATOM     19  C   UNL     1       3.779  12.790   0.247  0.00  0.00    +0.130 C 
ATOM     20  C   UNL     1       3.735  13.441  -1.137  0.00  0.00    +0.029 C 
BRANCH  19  21
ATOM     21  S   UNL     1       5.453  12.933   0.930  0.00  0.00    -0.141 S 
BRANCH  21  22
ATOM     22  C   UNL     1       5.687  14.719   1.149  0.00  0.00    +0.144 C 
BRANCH  22  33
ATOM     23  C   UNL     1      11.545  16.810   3.649  0.00  0.00    +0.045 C 
ATOM     24  C   UNL     1      10.902  15.493   3.299  0.00  0.00    -0.026 A 
ATOM     25  C   UNL     1      11.566  14.342   3.486  0.00  0.00    -0.008 A 
ATOM     26  S   UNL     1      10.408  13.103   2.934  0.00  0.00    -0.073 S 
ATOM     27  C   UNL     1       9.067  14.168   2.469  0.00  0.00    +0.116 A 
ATOM     28  C   UNL     1       9.557  15.455   2.756  0.00  0.00    +0.075 A 
ATOM     29  C   UNL     1       8.660  16.536   2.471  0.00  0.00    +0.260 A 
ATOM     30  O   UNL     1       8.993  17.689   2.685  0.00  0.00    -0.267 OA
ATOM     31  N   UNL     1       7.447  16.259   1.958  0.00  0.00    -0.310 N 
ATOM     32  H   UNL     1       6.837  16.987   1.759  0.00  0.00    +0.170 HD
ATOM     33  C   UNL     1       7.057  14.980   1.718  0.00  0.00    +0.121 A 
ATOM     34  N   UNL     1       7.851  13.974   1.967  0.00  0.00    -0.226 NA
ATOM     35  C   UNL     1      12.957  14.143   4.030  0.00  0.00    +0.052 C 
ENDBRANCH  22  33
ENDBRANCH  21  22
ENDBRANCH  19  21
ENDBRANCH   1  19
TORSDOF 6
