REMARK  Name = ZINC41513833
REMARK  13 active torsions:
REMARK  status: ('A' for Active; 'I' for Inactive)
REMARK    1  A    between atoms: C_1  and  C_2
REMARK    2  A    between atoms: C_2  and  C_3
REMARK    3  A    between atoms: C_2  and  C_4
REMARK    4  A    between atoms: C_4  and  N_5
REMARK    5  A    between atoms: N_5  and  C_6
REMARK    6  A    between atoms: N_5  and  C_30
REMARK    7  A    between atoms: C_6  and  C_7
REMARK    8  A    between atoms: C_8  and  O_29
REMARK    9  A    between atoms: C_14  and  C_25
REMARK   10  A    between atoms: C_15  and  C_18
REMARK   11  A    between atoms: C_30  and  C_31
REMARK   12  A    between atoms: C_31  and  C_32
REMARK   13  A    between atoms: C_31  and  C_33
REMARK                            x       y       z     vdW  Elec       q    Type
REMARK                         _______ _______ _______ _____ _____    ______ ____
ROOT
ATOM      1  C   UNL     1      -0.597  -0.885  -2.791  0.00  0.00    +0.020 A 
ATOM      2  C   UNL     1      -0.853   0.364  -3.331  0.00  0.00    +0.122 A 
ATOM      3  C   UNL     1       0.184   1.266  -3.560  0.00  0.00    +0.046 A 
ATOM      4  C   UNL     1       1.471   0.928  -3.251  0.00  0.00    +0.019 A 
ATOM      5  C   UNL     1       1.744  -0.325  -2.705  0.00  0.00    +0.065 A 
ATOM      6  C   UNL     1       0.706  -1.244  -2.469  0.00  0.00    +0.144 A 
ATOM      7  O   UNL     1       0.975  -2.457  -1.951  0.00  0.00    -0.450 OA
ATOM      8  C   UNL     1       2.143  -2.727  -1.364  0.00  0.00    +0.219 A 
ATOM      9  C   UNL     1       3.239  -1.937  -1.509  0.00  0.00    +0.076 A 
ATOM     10  C   UNL     1       3.119  -0.727  -2.349  0.00  0.00    +0.201 A 
ATOM     11  O   UNL     1       4.093  -0.092  -2.714  0.00  0.00    -0.286 OA
ENDROOT
BRANCH   9  12
ATOM     12  C   UNL     1       4.522  -2.284  -0.851  0.00  0.00    -0.011 A 
ATOM     13  C   UNL     1       4.643  -2.197   0.535  0.00  0.00    +0.010 A 
ATOM     14  C   UNL     1       5.839  -2.522   1.142  0.00  0.00    +0.016 A 
ATOM     15  C   UNL     1       6.916  -2.935   0.378  0.00  0.00    +0.018 A 
ATOM     16  C   UNL     1       6.801  -3.023  -0.999  0.00  0.00    +0.016 A 
ATOM     17  C   UNL     1       5.608  -2.706  -1.615  0.00  0.00    +0.010 A 
ATOM     18 BR   UNL     1       8.552  -3.379   1.217  0.00  0.00    -0.050 Br
ENDBRANCH   9  12
BRANCH   8  19
ATOM     19  C   UNL     1       2.251  -3.961  -0.505  0.00  0.00    +0.451 C 
ATOM     20  F   UNL     1       1.919  -3.640   0.816  0.00  0.00    -0.163 F 
ATOM     21  F   UNL     1       1.373  -4.940  -0.982  0.00  0.00    -0.163 F 
ATOM     22  F   UNL     1       3.562  -4.448  -0.551  0.00  0.00    -0.163 F 
ENDBRANCH   8  19
BRANCH   2  23
ATOM     23  O   UNL     1      -2.128   0.714  -3.640  0.00  0.00    -0.506 OA
ATOM     24  H   UNL     1      -2.604   1.144  -2.916  0.00  0.00    +0.292 HD
ENDBRANCH   2  23
BRANCH   1  25
ATOM     25  C   UNL     1      -1.728  -1.850  -2.548  0.00  0.00    -0.036 C 
BRANCH  25  26
ATOM     26  N   UNL     1      -2.154  -1.761  -1.145  0.00  0.00    +0.383 N 
ATOM     27  H   UNL     1      -1.361  -1.917  -0.542  0.00  0.00    -0.081 HD
BRANCH  26  28
ATOM     28  C   UNL     1      -3.179  -2.780  -0.879  0.00  0.00    -0.075 C 
BRANCH  28  30
ATOM     29  C   UNL     1      -1.457  -4.356   0.010  0.00  0.00    +0.005 C 
ATOM     30  C   UNL     1      -2.564  -4.173  -1.030  0.00  0.00    -0.034 C 
ATOM     31  C   UNL     1      -3.646  -5.234  -0.815  0.00  0.00    +0.005 C 
ENDBRANCH  28  30
ENDBRANCH  26  28
BRANCH  26  32
ATOM     32  C   UNL     1      -2.712  -0.427  -0.886  0.00  0.00    -0.075 C 
BRANCH  32  33
ATOM     33  C   UNL     1      -3.040  -0.292   0.602  0.00  0.00    -0.034 C 
ATOM     34  C   UNL     1      -1.748  -0.356   1.418  0.00  0.00    +0.005 C 
ATOM     35  C   UNL     1      -3.735   1.048   0.852  0.00  0.00    +0.005 C 
ENDBRANCH  32  33
ENDBRANCH  26  32
ENDBRANCH  25  26
ENDBRANCH   1  25
TORSDOF 9
