REMARK  Name = ZINC35132489
REMARK  10 active torsions:
REMARK  status: ('A' for Active; 'I' for Inactive)
REMARK    1  A    between atoms: C_1  and  C_2
REMARK    2  A    between atoms: C_2  and  O_3
REMARK    3  A    between atoms: O_3  and  C_4
REMARK    4  A    between atoms: C_4  and  C_6
REMARK    5  A    between atoms: C_10  and  N_11
REMARK    6  A    between atoms: C_12  and  C_14
REMARK    7  A    between atoms: C_29  and  C_35
REMARK    8  A    between atoms: C_29  and  C_36
REMARK    9  A    between atoms: C_31  and  C_33
REMARK   10  A    between atoms: C_31  and  C_34
REMARK                            x       y       z     vdW  Elec       q    Type
REMARK                         _______ _______ _______ _____ _____    ______ ____
ROOT
ATOM      1  C   UNL     1      -2.842  -2.416   0.016  0.00  0.00    +0.091 A 
ATOM      2  C   UNL     1      -3.559  -2.712  -1.204  0.00  0.00    -0.024 A 
ATOM      3  C   UNL     1      -4.793  -3.237  -1.020  0.00  0.00    -0.016 A 
ATOM      4  S   UNL     1      -4.972  -3.336   0.736  0.00  0.00    -0.079 S 
ATOM      5  C   UNL     1      -3.490  -2.706   1.212  0.00  0.00    +0.087 A 
ATOM      6  C   UNL     1      -5.758  -3.624  -2.091  0.00  0.00    -0.041 C 
ATOM      7  N   UNL     1      -5.160  -3.574  -3.424  0.00  0.00    +0.389 N 
ATOM      8  C   UNL     1      -3.705  -3.603  -3.487  0.00  0.00    -0.069 C 
ATOM      9  C   UNL     1      -3.069  -2.503  -2.628  0.00  0.00    +0.024 C 
ATOM     10  C   UNL     1      -3.161  -4.966  -3.052  0.00  0.00    -0.010 C 
ATOM     11  C   UNL     1      -3.277  -3.368  -4.948  0.00  0.00    -0.010 C 
ATOM     12  C   UNL     1      -6.299  -5.033  -1.806  0.00  0.00    -0.005 C 
ATOM     13  C   UNL     1      -6.947  -2.644  -2.046  0.00  0.00    -0.005 C 
ATOM     14  H   UNL     1      -5.524  -4.354  -3.973  0.00  0.00    -0.084 HD
ATOM     15  H   UNL     1      -5.488  -2.728  -3.895  0.00  0.00    -0.084 HD
ENDROOT
BRANCH   5  16
ATOM     16  N   UNL     1      -3.018  -2.518   2.500  0.00  0.00    -0.275 N 
ATOM     17  C   UNL     1      -3.785  -2.858   3.555  0.00  0.00    +0.256 C 
ATOM     18  O   UNL     1      -4.892  -3.330   3.375  0.00  0.00    -0.270 OA
ATOM     19  H   UNL     1      -2.136  -2.142   2.643  0.00  0.00    +0.156 HD
BRANCH  17  20
ATOM     20  C   UNL     1      -3.284  -2.658   4.923  0.00  0.00    +0.122 A 
ATOM     21  C   UNL     1      -4.050  -3.004   6.036  0.00  0.00    +0.032 A 
ATOM     22  C   UNL     1      -3.512  -2.752   7.313  0.00  0.00    +0.026 A 
ATOM     23  C   UNL     1      -4.155  -3.284   8.517  0.00  0.00    -0.007 A 
ATOM     24  C   UNL     1      -5.330  -4.037   8.448  0.00  0.00    +0.009 A 
ATOM     25  C   UNL     1      -5.896  -4.513   9.596  0.00  0.00    +0.001 A 
ATOM     26  C   UNL     1      -5.317  -4.257  10.835  0.00  0.00    +0.001 A 
ATOM     27  C   UNL     1      -4.172  -3.525  10.936  0.00  0.00    +0.008 A 
ATOM     28  C   UNL     1      -3.564  -3.021   9.775  0.00  0.00    -0.017 A 
ATOM     29  C   UNL     1      -2.378  -2.262   9.842  0.00  0.00    +0.012 A 
ATOM     30  C   UNL     1      -1.798  -1.768   8.720  0.00  0.00    +0.047 A 
ATOM     31  C   UNL     1      -2.343  -1.990   7.452  0.00  0.00    +0.140 A 
ATOM     32  O   UNL     1      -1.756  -1.449   6.357  0.00  0.00    -0.422 OA
ATOM     33  C   UNL     1      -1.950  -2.089   5.178  0.00  0.00    +0.350 A 
ATOM     34  O   UNL     1      -1.056  -2.187   4.357  0.00  0.00    -0.244 OA
ENDBRANCH  17  20
ENDBRANCH   5  16
BRANCH   1  35
ATOM     35  C   UNL     1      -1.497  -1.838   0.006  0.00  0.00    +0.342 C 
ATOM     36  O   UNL     1      -0.522  -2.566  -0.007  0.00  0.00    -0.245 OA
BRANCH  35  37
ATOM     37  O   UNL     1      -1.339  -0.499   0.012  0.00  0.00    -0.461 OA
BRANCH  37  39
ATOM     38  C   UNL     1      -0.019   1.526   0.010  0.00  0.00    +0.048 C 
ATOM     39  C   UNL     1       0.002  -0.004   0.002  0.00  0.00    +0.229 C 
ENDBRANCH  37  39
ENDBRANCH  35  37
ENDBRANCH   1  35
TORSDOF 5
