REMARK  Name = ZINC13037741
REMARK  8 active torsions:
REMARK  status: ('A' for Active; 'I' for Inactive)
REMARK    1  A    between atoms: C_1  and  C_2
REMARK    2  A    between atoms: C_2  and  C_3
REMARK    3  A    between atoms: C_6  and  C_9
REMARK    4  A    between atoms: C_11  and  C_23
REMARK    5  A    between atoms: C_13  and  C_18
REMARK    6  A    between atoms: C_13  and  O_22
REMARK    7  A    between atoms: C_23  and  C_25
REMARK    8  A    between atoms: C_28  and  C_31
REMARK                            x       y       z     vdW  Elec       q    Type
REMARK                         _______ _______ _______ _____ _____    ______ ____
ROOT
ATOM      1  C   UNL     1       0.257   2.223   1.291  0.00  0.00    +0.120 C 
ATOM      2  C   UNL     1      -0.293   1.745  -0.057  0.00  0.00    +0.144 C 
ATOM      3  C   UNL     1      -1.819   1.880  -0.041  0.00  0.00    +0.243 C 
ATOM      4  N   UNL     1      -2.351   1.144   1.113  0.00  0.00    -0.264 N 
ATOM      5  C   UNL     1      -1.629   0.983   2.232  0.00  0.00    +0.302 C 
ATOM      6  O   UNL     1      -2.122   0.373   3.161  0.00  0.00    -0.253 OA
ATOM      7  N   UNL     1      -0.387   1.469   2.367  0.00  0.00    -0.292 N 
ATOM      8  H   UNL     1      -3.242   0.765   1.063  0.00  0.00    +0.153 HD
ATOM      9  H   UNL     1       0.095   1.317   3.195  0.00  0.00    +0.151 HD
ENDROOT
BRANCH   1  13
ATOM     10  C   UNL     1      -0.567   6.387   1.774  0.00  0.00    -0.048 A 
ATOM     11  C   UNL     1      -1.396   5.446   2.356  0.00  0.00    +0.004 A 
ATOM     12  C   UNL     1      -1.129   4.099   2.200  0.00  0.00    +0.006 A 
ATOM     13  C   UNL     1      -0.034   3.692   1.461  0.00  0.00    -0.026 A 
ATOM     14  C   UNL     1       0.798   4.633   0.883  0.00  0.00    +0.006 A 
ATOM     15  C   UNL     1       0.529   5.980   1.036  0.00  0.00    +0.004 A 
BRANCH  10  17
ATOM     16  C   UNL     1      -0.146   8.376   3.194  0.00  0.00    +0.009 C 
ATOM     17  C   UNL     1      -0.859   7.856   1.944  0.00  0.00    +0.032 C 
ENDBRANCH  10  17
ENDBRANCH   1  13
BRANCH   3  18
ATOM     18  C   UNL     1      -2.398   1.303  -1.335  0.00  0.00    +0.436 C 
ATOM     19  F   UNL     1      -2.195  -0.081  -1.360  0.00  0.00    -0.166 F 
ATOM     20  F   UNL     1      -3.769   1.574  -1.394  0.00  0.00    -0.166 F 
ATOM     21  F   UNL     1      -1.759   1.889  -2.433  0.00  0.00    -0.166 F 
ENDBRANCH   3  18
BRANCH   3  22
ATOM     22  O   UNL     1      -2.176   3.260   0.069  0.00  0.00    -0.364 OA
ATOM     23  H   UNL     1      -3.129   3.420   0.086  0.00  0.00    +0.212 HD
ENDBRANCH   3  22
BRANCH   2  24
ATOM     24  C   UNL     1       0.085   0.303  -0.275  0.00  0.00    +0.173 C 
ATOM     25  O   UNL     1      -0.576  -0.580   0.229  0.00  0.00    -0.292 OA
BRANCH  24  26
ATOM     26  C   UNL     1       1.256  -0.034  -1.101  0.00  0.00    +0.018 A 
ATOM     27  C   UNL     1       2.002   0.980  -1.710  0.00  0.00    +0.011 A 
ATOM     28  C   UNL     1       3.101   0.656  -2.477  0.00  0.00    +0.004 A 
ATOM     29  C   UNL     1       3.460  -0.669  -2.654  0.00  0.00    -0.050 A 
ATOM     30  C   UNL     1       2.723  -1.678  -2.060  0.00  0.00    +0.004 A 
ATOM     31  C   UNL     1       1.624  -1.371  -1.285  0.00  0.00    +0.011 A 
ATOM     32  C   UNL     1       4.659  -1.014  -3.499  0.00  0.00    +0.044 C 
ENDBRANCH  24  26
ENDBRANCH   2  24
TORSDOF 6
