REMARK  Name = ZINC36655973
REMARK  11 active torsions:
REMARK  status: ('A' for Active; 'I' for Inactive)
REMARK    1  A    between atoms: C_1  and  N_2
REMARK    2  A    between atoms: N_2  and  C_3
REMARK    3  A    between atoms: N_2  and  C_4
REMARK    4  A    between atoms: C_4  and  C_6
REMARK    5  A    between atoms: C_4  and  C_30
REMARK    6  A    between atoms: C_6  and  N_7
REMARK    7  A    between atoms: C_8  and  C_10
REMARK    8  A    between atoms: C_10  and  S_11
REMARK    9  A    between atoms: S_11  and  C_12
REMARK   10  A    between atoms: C_15  and  C_23
REMARK   11  A    between atoms: N_16  and  C_17
REMARK                            x       y       z     vdW  Elec       q    Type
REMARK                         _______ _______ _______ _____ _____    ______ ____
ROOT
ATOM      1  C   UNL     1       4.559   5.736   0.471  0.00  0.00    +0.197 A 
ATOM      2  N   UNL     1       3.548   6.544   0.699  0.00  0.00    -0.122 NA
ATOM      3  N   UNL     1       3.975   7.675   1.134  0.00  0.00    -0.128 NA
ATOM      4  C   UNL     1       5.286   7.662   1.210  0.00  0.00    +0.172 A 
ATOM      5  N   UNL     1       5.702   6.416   0.793  0.00  0.00    -0.270 N 
ENDROOT
BRANCH   4   6
ATOM      6  C   UNL     1       6.151   8.770   1.664  0.00  0.00    +0.055 A 
ATOM      7  C   UNL     1       7.275   9.132   0.920  0.00  0.00    +0.014 A 
ATOM      8  C   UNL     1       8.079  10.169   1.349  0.00  0.00    +0.001 A 
ATOM      9  C   UNL     1       7.773  10.850   2.514  0.00  0.00    +0.003 A 
ATOM     10  C   UNL     1       6.661  10.498   3.258  0.00  0.00    +0.039 A 
ATOM     11  C   UNL     1       5.844   9.466   2.837  0.00  0.00    +0.134 A 
ATOM     12  F   UNL     1       4.755   9.126   3.561  0.00  0.00    -0.205 F 
ENDBRANCH   4   6
BRANCH   5  13
ATOM     13  C   UNL     1       7.020   5.945   0.713  0.00  0.00    +0.051 A 
ATOM     14  C   UNL     1       7.762   5.754   1.870  0.00  0.00    +0.026 A 
ATOM     15  C   UNL     1       9.061   5.291   1.788  0.00  0.00    +0.002 A 
ATOM     16  C   UNL     1       9.622   5.017   0.554  0.00  0.00    +0.000 A 
ATOM     17  C   UNL     1       8.885   5.207  -0.601  0.00  0.00    +0.002 A 
ATOM     18  C   UNL     1       7.584   5.664  -0.524  0.00  0.00    +0.026 A 
ENDBRANCH   5  13
BRANCH   1  19
ATOM     19  S   UNL     1       4.461   4.082  -0.131  0.00  0.00    -0.076 S 
BRANCH  19  20
ATOM     20  C   UNL     1       2.683   3.801  -0.353  0.00  0.00    +0.173 C 
BRANCH  20  22
ATOM     21  N   UNL     1       1.204   1.970  -1.112  0.00  0.00    -0.316 N 
ATOM     22  C   UNL     1       2.456   2.404  -0.871  0.00  0.00    +0.223 C 
ATOM     23  O   UNL     1       3.401   1.671  -1.071  0.00  0.00    -0.275 OA
ATOM     24  H   UNL     1       0.448   2.557  -0.953  0.00  0.00    +0.149 HD
BRANCH  21  25
ATOM     25  C   UNL     1       0.983   0.612  -1.616  0.00  0.00    +0.096 C 
BRANCH  25  26
ATOM     26  C   UNL     1      -0.520   0.344  -1.718  0.00  0.00    +0.016 C 
BRANCH  26  27
ATOM     27  C   UNL     1      -1.127   0.355  -0.339  0.00  0.00    +0.093 A 
ATOM     28  C   UNL     1      -1.426  -0.730   0.398  0.00  0.00    +0.043 A 
ATOM     29  C   UNL     1      -1.972  -0.261   1.615  0.00  0.00    +0.041 A 
ATOM     30  C   UNL     1      -1.973   1.083   1.549  0.00  0.00    +0.195 A 
ATOM     31  O   UNL     1      -1.455   1.450   0.366  0.00  0.00    -0.469 OA
ENDBRANCH  26  27
BRANCH  26  33
ATOM     32  C   UNL     1      -0.534   1.399  -3.872  0.00  0.00    -0.096 C 
ATOM     33  N   UNL     1      -1.149   1.387  -2.538  0.00  0.00    +0.384 N 
ATOM     34  C   UNL     1      -2.586   1.110  -2.665  0.00  0.00    -0.096 C 
ATOM     35  H   UNL     1      -1.017   2.286  -2.099  0.00  0.00    -0.082 HD
ENDBRANCH  26  33
ENDBRANCH  25  26
ENDBRANCH  21  25
ENDBRANCH  20  22
ENDBRANCH  19  20
ENDBRANCH   1  19
TORSDOF 9
