REMARK  Name = ZINC42008578
REMARK  4 active torsions:
REMARK  status: ('A' for Active; 'I' for Inactive)
REMARK    1  A    between atoms: C_3  and  S_9
REMARK    2  A    between atoms: C_6  and  N_7
REMARK    3  A    between atoms: S_9  and  C_10
REMARK    4  A    between atoms: C_10  and  C_16
REMARK                            x       y       z     vdW  Elec       q    Type
REMARK                         _______ _______ _______ _____ _____    ______ ____
ROOT
ATOM      1  C   UNL     1       0.107   1.298   0.469  0.00  0.00    +0.024 A 
ATOM      2  C   UNL     1       1.264   2.040   0.319  0.00  0.00    +0.019 A 
ATOM      3  C   UNL     1       2.489   1.399   0.202  0.00  0.00    +0.044 A 
ATOM      4  C   UNL     1       2.553   0.009   0.236  0.00  0.00    +0.138 A 
ATOM      5  C   UNL     1       1.396  -0.731   0.386  0.00  0.00    +0.062 A 
ATOM      6  C   UNL     1       0.170  -0.088   0.503  0.00  0.00    +0.027 A 
ATOM      7  F   UNL     1       3.745  -0.616   0.121  0.00  0.00    -0.204 F 
ENDROOT
BRANCH   6   8
ATOM      8  N   UNL     1      -1.002  -0.838   0.655  0.00  0.00    -0.358 N 
ATOM      9  H   UNL     1      -1.858  -0.389   0.737  0.00  0.00    +0.142 HD
ATOM     10  H   UNL     1      -0.959  -1.807   0.678  0.00  0.00    +0.142 HD
ENDBRANCH   6   8
BRANCH   3  11
ATOM     11  S   UNL     1       3.964   2.344   0.010  0.00  0.00    -0.104 S 
BRANCH  11  12
ATOM     12  C   UNL     1       3.372   4.050  -0.163  0.00  0.00    +0.123 C 
ATOM     13  C   UNL     1       2.432   4.136  -1.362  0.00  0.00    +0.040 C 
ATOM     14  C   UNL     1       1.700   5.481  -1.355  0.00  0.00    +0.071 C 
ATOM     15  S   UNL     1       2.927   6.813  -1.522  0.00  0.00    -0.161 S 
ATOM     16  C   UNL     1       4.120   6.438  -0.202  0.00  0.00    +0.071 C 
ATOM     17  C   UNL     1       4.567   4.980  -0.344  0.00  0.00    +0.040 C 
BRANCH  12  18
ATOM     18  C   UNL     1       2.622   4.443   1.084  0.00  0.00    +0.372 C 
ATOM     19  O   UNL     1       2.536   3.662   2.016  0.00  0.00    -0.245 OA
ATOM     20  O   UNL     1       2.100   5.543   1.160  0.00  0.00    -0.245 OA
ENDBRANCH  12  18
ENDBRANCH  11  12
ENDBRANCH   3  11
TORSDOF 4
