REMARK  Name = ZINC06790203
REMARK  4 active torsions:
REMARK  status: ('A' for Active; 'I' for Inactive)
REMARK    1  A    between atoms: C_1  and  C_2
REMARK    2  A    between atoms: C_5  and  C_8
REMARK    3  A    between atoms: N_10  and  N_11
REMARK    4  A    between atoms: C_12  and  C_14
REMARK                            x       y       z     vdW  Elec       q    Type
REMARK                         _______ _______ _______ _____ _____    ______ ____
ROOT
ATOM      1  N   UNL     1      -0.017   1.397   0.010  0.00  0.00    -0.233 N 
ATOM      2  C   UNL     1       1.141   2.087   0.002  0.00  0.00    +0.241 C 
ATOM      3  O   UNL     1       2.199   1.494  -0.011  0.00  0.00    -0.273 OA
ATOM      4  H   UNL     1      -0.864   1.870   0.016  0.00  0.00    +0.173 HD
ENDROOT
BRANCH   2   5
ATOM      5  C   UNL     1       1.121   3.593   0.011  0.00  0.00    +0.143 C 
ATOM      6  C   UNL     1       0.382   4.087  -1.204  0.00  0.00    +0.011 A 
ATOM      7  C   UNL     1      -1.002   4.053  -1.216  0.00  0.00    +0.008 A 
ATOM      8  C   UNL     1      -1.700   4.502  -2.321  0.00  0.00    +0.001 A 
ATOM      9  C   UNL     1      -1.016   4.988  -3.420  0.00  0.00    +0.004 A 
ATOM     10  C   UNL     1       0.364   5.025  -3.413  0.00  0.00    +0.046 A 
ATOM     11  C   UNL     1       1.069   4.573  -2.303  0.00  0.00    +0.133 A 
ATOM     12  O   UNL     1       2.423   4.617  -2.315  0.00  0.00    -0.455 OA
ATOM     13  C   UNL     1       3.112   4.594  -1.149  0.00  0.00    +0.133 A 
ATOM     14  C   UNL     1       2.534   4.109   0.012  0.00  0.00    +0.011 A 
ATOM     15  C   UNL     1       3.260   4.096   1.190  0.00  0.00    +0.008 A 
ATOM     16  C   UNL     1       4.559   4.566   1.212  0.00  0.00    +0.001 A 
ATOM     17  C   UNL     1       5.139   5.050   0.054  0.00  0.00    +0.004 A 
ATOM     18  C   UNL     1       4.420   5.065  -1.124  0.00  0.00    +0.046 A 
ENDBRANCH   2   5
BRANCH   1  21
ATOM     19  C   UNL     1      -1.156  -0.694   0.009  0.00  0.00    +0.260 C 
ATOM     20  O   UNL     1      -2.217  -0.100   0.023  0.00  0.00    -0.269 OA
ATOM     21  N   UNL     1       0.002  -0.004   0.002  0.00  0.00    -0.230 N 
ATOM     22  H   UNL     1       0.849  -0.478  -0.009  0.00  0.00    +0.173 HD
BRANCH  19  27
ATOM     23  C   UNL     1      -1.078  -6.448  -0.024  0.00  0.00    +0.044 C 
ATOM     24  C   UNL     1      -1.098  -4.941  -0.015  0.00  0.00    -0.050 A 
ATOM     25  C   UNL     1      -2.307  -4.269   0.001  0.00  0.00    +0.004 A 
ATOM     26  C   UNL     1      -2.333  -2.889   0.009  0.00  0.00    +0.013 A 
ATOM     27  C   UNL     1      -1.136  -2.172   0.001  0.00  0.00    +0.038 A 
ATOM     28  C   UNL     1       0.081  -2.856  -0.020  0.00  0.00    +0.013 A 
ATOM     29  C   UNL     1       0.092  -4.236  -0.023  0.00  0.00    +0.004 A 
ENDBRANCH  19  27
ENDBRANCH   1  21
TORSDOF 3
