REMARK  Name = ZINC39654285
REMARK  7 active torsions:
REMARK  status: ('A' for Active; 'I' for Inactive)
REMARK    1  A    between atoms: C_1  and  C_2
REMARK    2  A    between atoms: C_2  and  C_3
REMARK    3  A    between atoms: C_6  and  C_9
REMARK    4  A    between atoms: C_9  and  C_10
REMARK    5  A    between atoms: C_10  and  N_11
REMARK    6  A    between atoms: C_12  and  C_14
REMARK    7  A    between atoms: C_25  and  C_27
REMARK                            x       y       z     vdW  Elec       q    Type
REMARK                         _______ _______ _______ _____ _____    ______ ____
ROOT
ATOM      1  C   UNL     1       5.463  -1.296   9.271  0.00  0.00    +0.100 C 
ATOM      2  C   UNL     1       6.624  -2.007   8.540  0.00  0.00    +0.121 C 
ATOM      3  N   UNL     1       7.720  -1.010   8.521  0.00  0.00    -0.296 N 
ATOM      4  C   UNL     1       7.649  -0.359   9.851  0.00  0.00    +0.115 C 
ATOM      5  C   UNL     1       6.140  -0.218  10.133  0.00  0.00    -0.004 C 
ATOM      6  C   UNL     1       5.853  -0.465  11.611  0.00  0.00    -0.010 C 
ATOM      7  C   UNL     1       6.488   0.652  12.443  0.00  0.00    -0.082 C 
ATOM      8  N   UNL     1       5.937   1.948  12.028  0.00  0.00    +0.379 N 
ATOM      9  C   UNL     1       6.297   2.220  10.631  0.00  0.00    -0.082 C 
ATOM     10  C   UNL     1       5.655   1.169   9.722  0.00  0.00    -0.010 C 
ATOM     11  C   UNL     1       8.587  -0.755   7.521  0.00  0.00    +0.247 C 
ATOM     12  O   UNL     1       8.440  -1.287   6.438  0.00  0.00    -0.270 OA
ATOM     13  H   UNL     1       4.932   1.929  12.117  0.00  0.00    -0.086 HD
ATOM     14  H   UNL     1       6.311   2.676  12.618  0.00  0.00    -0.086 HD
ENDROOT
BRANCH  11  15
ATOM     15  C   UNL     1       9.716   0.174   7.741  0.00  0.00    +0.040 A 
ATOM     16  C   UNL     1      10.157   0.447   9.037  0.00  0.00    +0.033 A 
ATOM     17  C   UNL     1      11.212   1.315   9.236  0.00  0.00    +0.043 A 
ATOM     18  C   UNL     1      11.833   1.913   8.153  0.00  0.00    +0.040 A 
ATOM     19  C   UNL     1      11.401   1.647   6.866  0.00  0.00    +0.043 A 
ATOM     20  C   UNL     1      10.350   0.776   6.653  0.00  0.00    +0.033 A 
ATOM     21 CL   UNL     1      12.185   2.404   5.514  0.00  0.00    -0.083 Cl
ATOM     22 CL   UNL     1      11.761   1.656  10.847  0.00  0.00    -0.083 Cl
ENDBRANCH  11  15
BRANCH   1  24
ATOM     23  N   UNL     1       3.247  -0.414   8.616  0.00  0.00    -0.315 N 
ATOM     24  C   UNL     1       4.527  -0.661   8.275  0.00  0.00    +0.218 C 
ATOM     25  O   UNL     1       4.926  -0.372   7.167  0.00  0.00    -0.275 OA
ATOM     26  H   UNL     1       2.928  -0.645   9.502  0.00  0.00    +0.149 HD
BRANCH  23  27
ATOM     27  C   UNL     1       2.337   0.204   7.648  0.00  0.00    +0.109 C 
BRANCH  27  28
ATOM     28  C   UNL     1       0.955   0.373   8.283  0.00  0.00    +0.054 C 
BRANCH  28  32
ATOM     29  C   UNL     1      -1.700   2.174   5.462  0.00  0.00    -0.048 A 
ATOM     30  C   UNL     1      -1.584   0.798   5.521  0.00  0.00    +0.004 A 
ATOM     31  C   UNL     1      -0.725   0.215   6.434  0.00  0.00    +0.004 A 
ATOM     32  C   UNL     1       0.019   1.008   7.287  0.00  0.00    -0.046 A 
ATOM     33  C   UNL     1      -0.096   2.385   7.227  0.00  0.00    +0.004 A 
ATOM     34  C   UNL     1      -0.952   2.967   6.311  0.00  0.00    +0.004 A 
BRANCH  29  36
ATOM     35  C   UNL     1      -1.890   3.065   3.156  0.00  0.00    +0.009 C 
ATOM     36  C   UNL     1      -2.636   2.809   4.467  0.00  0.00    +0.032 C 
ENDBRANCH  29  36
ENDBRANCH  28  32
ENDBRANCH  27  28
ENDBRANCH  23  27
ENDBRANCH   1  24
TORSDOF 6
