REMARK  Name = ZINC36614918
REMARK  13 active torsions:
REMARK  status: ('A' for Active; 'I' for Inactive)
REMARK    1  A    between atoms: C_1  and  C_2
REMARK    2  A    between atoms: C_2  and  C_3
REMARK    3  A    between atoms: C_3  and  C_5
REMARK    4  A    between atoms: C_3  and  N_19
REMARK    5  A    between atoms: C_5  and  C_6
REMARK    6  A    between atoms: C_6  and  N_7
REMARK    7  A    between atoms: N_7  and  S_8
REMARK    8  A    between atoms: S_8  and  C_11
REMARK    9  A    between atoms: N_13  and  C_17
REMARK   10  A    between atoms: C_15  and  C_16
REMARK   11  A    between atoms: C_17  and  C_18
REMARK   12  A    between atoms: C_20  and  C_28
REMARK   13  A    between atoms: C_22  and  C_24
REMARK                            x       y       z     vdW  Elec       q    Type
REMARK                         _______ _______ _______ _____ _____    ______ ____
ROOT
ATOM      1  C   UNL     1       2.437  -0.088  -1.115  0.00  0.00    +0.043 C 
ENDROOT
BRANCH   1   2
ATOM      2  C   UNL     1       1.090  -0.780  -0.891  0.00  0.00    +0.108 C 
BRANCH   2   3
ATOM      3  N   UNL     1       0.131  -0.318  -1.898  0.00  0.00    -0.265 N 
ATOM      4  C   UNL     1      -1.034   0.316  -1.652  0.00  0.00    +0.037 A 
ATOM      5  C   UNL     1      -1.625   0.572  -2.842  0.00  0.00    +0.056 A 
ATOM      6  C   UNL     1      -0.791   0.076  -3.851  0.00  0.00    +0.165 A 
ATOM      7  N   UNL     1       0.264  -0.452  -3.286  0.00  0.00    -0.167 NA
ATOM      8  C   UNL     1      -1.581   0.676  -0.294  0.00  0.00    +0.065 C 
BRANCH   6   9
ATOM      9  C   UNL     1      -1.060   0.145  -5.332  0.00  0.00    +0.436 C 
ATOM     10  F   UNL     1      -0.522   1.329  -5.849  0.00  0.00    -0.164 F 
ATOM     11  F   UNL     1      -0.466  -0.952  -5.965  0.00  0.00    -0.164 F 
ATOM     12  F   UNL     1      -2.440   0.123  -5.558  0.00  0.00    -0.164 F 
ENDBRANCH   6   9
ENDBRANCH   2   3
BRANCH   2  14
ATOM     13  C   UNL     1       2.155  -2.797   0.127  0.00  0.00    +0.006 C 
ATOM     14  C   UNL     1       1.268  -2.294  -1.014  0.00  0.00    +0.023 C 
ENDBRANCH   2  14
ENDBRANCH   1   2
BRANCH   1  15
ATOM     15  C   UNL     1       2.286   1.414  -0.864  0.00  0.00    +0.108 C 
BRANCH  15  16
ATOM     16  N   UNL     1       3.597   2.060  -0.968  0.00  0.00    -0.190 NA
ATOM     17  H   UNL     1       4.406   1.526  -0.922  0.00  0.00    +0.148 HD
BRANCH  16  18
ATOM     18  S   UNL     1       3.698   3.701  -1.165  0.00  0.00    +0.062 S 
ATOM     19  O   UNL     1       5.081   4.018  -1.229  0.00  0.00    -0.153 OA
ATOM     20  O   UNL     1       2.789   4.042  -2.203  0.00  0.00    -0.153 OA
BRANCH  18  21
ATOM     21  C   UNL     1       3.079   4.442   0.309  0.00  0.00    +0.145 A 
ATOM     22  C   UNL     1       3.802   5.145   1.210  0.00  0.00    +0.137 A 
ATOM     23  N   UNL     1       2.964   5.541   2.191  0.00  0.00    -0.270 N 
ATOM     24  N   UNL     1       1.683   5.065   1.882  0.00  0.00    -0.174 NA
ATOM     25  C   UNL     1       1.752   4.411   0.751  0.00  0.00    +0.086 A 
ATOM     26  C   UNL     1       0.602   3.738   0.048  0.00  0.00    +0.069 C 
BRANCH  23  27
ATOM     27  C   UNL     1       3.329   6.329   3.371  0.00  0.00    +0.140 C 
ATOM     28  C   UNL     1       2.445   7.575   3.446  0.00  0.00    +0.029 C 
ENDBRANCH  23  27
ENDBRANCH  18  21
ENDBRANCH  16  18
ENDBRANCH  15  16
ENDBRANCH   1  15
TORSDOF 9
