REMARK  Name = ZINC34745661
REMARK  1 active torsions:
REMARK  status: ('A' for Active; 'I' for Inactive)
REMARK    1  A    between atoms: C_7  and  C_9
REMARK                            x       y       z     vdW  Elec       q    Type
REMARK                         _______ _______ _______ _____ _____    ______ ____
ROOT
ATOM      1  C   UNL     1      -0.016   1.339   0.009  0.00  0.00    +0.198 A 
ATOM      2  C   UNL     1       1.254   1.781  -0.000  0.00  0.00    -0.006 A 
ATOM      3  C   UNL     1       2.085   0.638  -0.014  0.00  0.00    -0.006 A 
ATOM      4  C   UNL     1       1.275  -0.434  -0.012  0.00  0.00    +0.198 A 
ATOM      5  O   UNL     1       0.002  -0.004   0.002  0.00  0.00    -0.470 OA
ATOM      6  C   UNL     1       3.532   1.072  -0.025  0.00  0.00    +0.053 C 
ATOM      7  C   UNL     1       3.518   2.549   0.424  0.00  0.00    +0.111 C 
ATOM      8  C   UNL     1       2.112   3.024  -0.001  0.00  0.00    +0.053 C 
ENDROOT
BRANCH   7   9
ATOM      9  C   UNL     1       4.586   3.335  -0.292  0.00  0.00    +0.360 C 
ATOM     10  O   UNL     1       4.421   4.522  -0.519  0.00  0.00    -0.246 OA
ATOM     11  O   UNL     1       5.614   2.784  -0.646  0.00  0.00    -0.246 OA
ENDBRANCH   7   9
TORSDOF 1
