REMARK  Name = ZINC35934183
REMARK  8 active torsions:
REMARK  status: ('A' for Active; 'I' for Inactive)
REMARK    1  A    between atoms: C_1  and  C_2
REMARK    2  A    between atoms: C_5  and  N_8
REMARK    3  A    between atoms: C_9  and  C_11
REMARK    4  A    between atoms: C_11  and  C_13
REMARK    5  A    between atoms: C_11  and  N_20
REMARK    6  A    between atoms: C_13  and  C_14
REMARK    7  A    between atoms: C_26  and  C_33
REMARK    8  A    between atoms: N_31  and  C_32
REMARK                            x       y       z     vdW  Elec       q    Type
REMARK                         _______ _______ _______ _____ _____    ______ ____
ROOT
ATOM      1  N   UNL     1       0.420  -6.845   2.495  0.00  0.00    -0.280 N 
ATOM      2  C   UNL     1      -0.491  -7.790   3.158  0.00  0.00    +0.160 C 
ATOM      3  C   UNL     1       0.073  -7.962   4.551  0.00  0.00    +0.042 C 
ATOM      4  C   UNL     1       1.172  -7.184   4.614  0.00  0.00    +0.058 C 
ATOM      5  C   UNL     1       1.377  -6.524   3.385  0.00  0.00    +0.247 C 
ATOM      6  O   UNL     1       2.299  -5.762   3.158  0.00  0.00    -0.270 OA
ATOM      7  C   UNL     1       1.947  -7.163   5.916  0.00  0.00    +0.142 C 
ATOM      8  N   UNL     1       1.431  -8.001   7.012  0.00  0.00    -0.288 N 
ATOM      9  C   UNL     1       0.316  -8.726   6.796  0.00  0.00    +0.307 C 
ATOM     10  O   UNL     1      -0.117  -9.420   7.694  0.00  0.00    -0.252 OA
ATOM     11  N   UNL     1      -0.330  -8.707   5.622  0.00  0.00    -0.260 N 
ATOM     12  C   UNL     1      -1.534  -9.529   5.482  0.00  0.00    +0.139 C 
ATOM     13  H   UNL     1       1.884  -8.030   7.869  0.00  0.00    +0.151 HD
ENDROOT
BRANCH   7  14
ATOM     14  C   UNL     1       3.359  -7.600   5.623  0.00  0.00    -0.022 A 
ATOM     15  C   UNL     1       3.652  -8.944   5.482  0.00  0.00    +0.007 A 
ATOM     16  C   UNL     1       4.947  -9.345   5.213  0.00  0.00    +0.020 A 
ATOM     17  C   UNL     1       5.951  -8.402   5.086  0.00  0.00    +0.041 A 
ATOM     18  C   UNL     1       5.657  -7.057   5.227  0.00  0.00    +0.020 A 
ATOM     19  C   UNL     1       4.361  -6.657   5.490  0.00  0.00    +0.007 A 
ATOM     20 CL   UNL     1       7.578  -8.905   4.749  0.00  0.00    -0.084 Cl
ENDBRANCH   7  14
BRANCH   1  21
ATOM     21  C   UNL     1       0.309  -6.349   1.121  0.00  0.00    +0.167 C 
BRANCH  21  23
ATOM     22  N   UNL     1       0.059  -4.170  -0.021  0.00  0.00    -0.284 N 
ATOM     23  C   UNL     1       0.175  -4.848   1.138  0.00  0.00    +0.238 C 
ATOM     24  O   UNL     1       0.173  -4.251   2.193  0.00  0.00    -0.273 OA
ATOM     25  H   UNL     1      -0.007  -4.651  -0.861  0.00  0.00    +0.155 HD
BRANCH  22  30
ATOM     26  C   UNL     1      -0.046   1.502   0.014  0.00  0.00    +0.044 C 
ATOM     27  C   UNL     1      -0.018  -0.004   0.005  0.00  0.00    -0.050 A 
ATOM     28  C   UNL     1      -0.605  -0.712   1.038  0.00  0.00    +0.005 A 
ATOM     29  C   UNL     1      -0.581  -2.093   1.033  0.00  0.00    +0.023 A 
ATOM     30  C   UNL     1       0.032  -2.771  -0.013  0.00  0.00    +0.033 A 
ATOM     31  C   UNL     1       0.620  -2.058  -1.049  0.00  0.00    +0.023 A 
ATOM     32  C   UNL     1       0.589  -0.677  -1.040  0.00  0.00    +0.005 A 
ENDBRANCH  22  30
ENDBRANCH  21  23
BRANCH  21  33
ATOM     33  C   UNL     1       1.561  -6.742   0.335  0.00  0.00    +0.067 C 
BRANCH  33  34
ATOM     34  C   UNL     1       1.629  -8.242   0.214  0.00  0.00    -0.045 A 
ATOM     35  C   UNL     1       2.279  -8.986   1.182  0.00  0.00    +0.004 A 
ATOM     36  C   UNL     1       2.341 -10.362   1.070  0.00  0.00    +0.000 A 
ATOM     37  C   UNL     1       1.752 -10.995  -0.009  0.00  0.00    +0.000 A 
ATOM     38  C   UNL     1       1.102 -10.252  -0.976  0.00  0.00    +0.000 A 
ATOM     39  C   UNL     1       1.036  -8.876  -0.862  0.00  0.00    +0.004 A 
ENDBRANCH  33  34
ENDBRANCH  21  33
ENDBRANCH   1  21
TORSDOF 6
