REMARK  Name = ZINC60292130
REMARK  7 active torsions:
REMARK  status: ('A' for Active; 'I' for Inactive)
REMARK    1  A    between atoms: C_1  and  C_2
REMARK    2  A    between atoms: C_2  and  C_3
REMARK    3  A    between atoms: C_2  and  C_4
REMARK    4  A    between atoms: C_2  and  C_5
REMARK    5  A    between atoms: C_12  and  C_14
REMARK    6  A    between atoms: C_21  and  C_23
REMARK    7  A    between atoms: C_23  and  C_24
REMARK                            x       y       z     vdW  Elec       q    Type
REMARK                         _______ _______ _______ _____ _____    ______ ____
ROOT
ATOM      1  C   UNL     1       5.885  -0.427  -4.742  0.00  0.00    +0.253 C 
ATOM      2  O   UNL     1       6.423   0.653  -4.581  0.00  0.00    -0.269 OA
ATOM      3  N   UNL     1       6.350  -1.279  -5.676  0.00  0.00    -0.294 N 
ATOM      4  C   UNL     1       5.576  -2.468  -6.058  0.00  0.00    +0.108 C 
ATOM      5  C   UNL     1       5.391  -2.469  -7.579  0.00  0.00    +0.019 C 
ATOM      6  C   UNL     1       6.761  -2.368  -8.255  0.00  0.00    +0.003 C 
ATOM      7  C   UNL     1       7.435  -1.054  -7.851  0.00  0.00    +0.023 C 
ATOM      8  C   UNL     1       7.639  -1.034  -6.337  0.00  0.00    +0.085 C 
ENDROOT
BRANCH   1  15
ATOM      9  C   UNL     1       0.753  -0.701  -1.214  0.00  0.00    -0.001 C 
ATOM     10  C   UNL     1       1.077  -2.156  -0.862  0.00  0.00    +0.009 C 
ATOM     11  C   UNL     1       1.665  -2.845  -2.101  0.00  0.00    +0.043 C 
ATOM     12  C   UNL     1       2.733  -1.960  -2.675  0.00  0.00    -0.006 A 
ATOM     13  C   UNL     1       2.944  -0.644  -2.386  0.00  0.00    -0.036 A 
ATOM     14  C   UNL     1       3.998  -0.024  -3.040  0.00  0.00    +0.024 A 
ATOM     15  C   UNL     1       4.731  -0.801  -3.919  0.00  0.00    +0.075 A 
ATOM     16  S   UNL     1       3.904  -2.375  -3.790  0.00  0.00    -0.088 S 
ATOM     17  C   UNL     1       2.050   0.090  -1.390  0.00  0.00    +0.040 C 
BRANCH   9  19
ATOM     18  C   UNL     1      -0.402   1.375  -0.441  0.00  0.00    +0.011 C 
ATOM     19  C   UNL     1      -0.074  -0.078  -0.089  0.00  0.00    -0.035 C 
ATOM     20  C   UNL     1       0.726  -0.118   1.215  0.00  0.00    +0.011 C 
ATOM     21  C   UNL     1      -1.374  -0.866   0.085  0.00  0.00    +0.011 C 
ENDBRANCH   9  19
ENDBRANCH   1  15
BRANCH   8  22
ATOM     22  C   UNL     1       8.181   0.333  -5.913  0.00  0.00    +0.118 C 
BRANCH  22  23
ATOM     23  C   UNL     1       8.612   0.277  -4.470  0.00  0.00    +0.212 C 
ATOM     24  O   UNL     1       8.497  -0.755  -3.843  0.00  0.00    -0.276 OA
ATOM     25  N   UNL     1       9.125   1.373  -3.877  0.00  0.00    -0.329 N 
ATOM     26  H   UNL     1       9.217   2.198  -4.379  0.00  0.00    +0.145 HD
ATOM     27  H   UNL     1       9.402   1.337  -2.948  0.00  0.00    +0.145 HD
ENDBRANCH  22  23
ENDBRANCH   8  22
TORSDOF 4
