REMARK  Name = ZINC39688077
REMARK  6 active torsions:
REMARK  status: ('A' for Active; 'I' for Inactive)
REMARK    1  A    between atoms: C_1  and  C_2
REMARK    2  A    between atoms: C_7  and  N_10
REMARK    3  A    between atoms: C_11  and  C_13
REMARK    4  A    between atoms: C_24  and  C_26
REMARK    5  A    between atoms: C_29  and  O_33
REMARK    6  A    between atoms: O_33  and  C_34
REMARK                            x       y       z     vdW  Elec       q    Type
REMARK                         _______ _______ _______ _____ _____    ______ ____
ROOT
ATOM      1  C   UNL     1      -3.152  -3.540  -5.835  0.00  0.00    +0.100 C 
ATOM      2  C   UNL     1      -3.258  -2.573  -7.035  0.00  0.00    +0.121 C 
ATOM      3  N   UNL     1      -2.502  -3.240  -8.122  0.00  0.00    -0.296 N 
ATOM      4  C   UNL     1      -2.848  -4.675  -7.983  0.00  0.00    +0.115 C 
ATOM      5  C   UNL     1      -2.886  -4.919  -6.462  0.00  0.00    -0.004 C 
ATOM      6  C   UNL     1      -1.546  -5.468  -5.982  0.00  0.00    -0.010 C 
ATOM      7  C   UNL     1      -1.330  -6.864  -6.573  0.00  0.00    -0.082 C 
ATOM      8  N   UNL     1      -2.423  -7.749  -6.153  0.00  0.00    +0.379 N 
ATOM      9  C   UNL     1      -3.698  -7.265  -6.696  0.00  0.00    -0.082 C 
ATOM     10  C   UNL     1      -4.013  -5.886  -6.110  0.00  0.00    -0.010 C 
ATOM     11  C   UNL     1      -1.686  -2.671  -9.030  0.00  0.00    +0.247 C 
ATOM     12  O   UNL     1      -1.554  -1.462  -9.057  0.00  0.00    -0.270 OA
ATOM     13  H   UNL     1      -2.247  -8.683  -6.493  0.00  0.00    -0.086 HD
ATOM     14  H   UNL     1      -2.473  -7.765  -5.145  0.00  0.00    -0.086 HD
ENDROOT
BRANCH  11  15
ATOM     15  C   UNL     1      -0.951  -3.515  -9.993  0.00  0.00    +0.040 A 
ATOM     16  C   UNL     1      -1.535  -4.683 -10.489  0.00  0.00    +0.036 A 
ATOM     17  C   UNL     1      -0.846  -5.468 -11.387  0.00  0.00    +0.085 A 
ATOM     18  C   UNL     1       0.429  -5.099 -11.801  0.00  0.00    +0.157 A 
ATOM     19  C   UNL     1       1.014  -3.937 -11.310  0.00  0.00    +0.085 A 
ATOM     20  C   UNL     1       0.328  -3.144 -10.415  0.00  0.00    +0.036 A 
ATOM     21 CL   UNL     1       2.607  -3.482 -11.829  0.00  0.00    -0.080 Cl
ATOM     22 CL   UNL     1      -1.571  -6.921 -12.004  0.00  0.00    -0.080 Cl
BRANCH  18  23
ATOM     23  O   UNL     1       1.106  -5.876 -12.686  0.00  0.00    -0.492 OA
ATOM     24  C   UNL     1       0.925  -5.586 -14.073  0.00  0.00    +0.277 C 
ENDBRANCH  18  23
ENDBRANCH  11  15
BRANCH   1  26
ATOM     25  N   UNL     1      -1.979  -3.557  -3.657  0.00  0.00    -0.312 N 
ATOM     26  C   UNL     1      -2.008  -3.141  -4.939  0.00  0.00    +0.218 C 
ATOM     27  O   UNL     1      -1.113  -2.446  -5.371  0.00  0.00    -0.275 OA
ATOM     28  H   UNL     1      -2.695  -4.113  -3.312  0.00  0.00    +0.149 HD
BRANCH  25  35
ATOM     29  C   UNL     1       2.898  -5.018   0.009  0.00  0.00    +0.109 C 
ATOM     30  C   UNL     1       1.625  -4.264   0.291  0.00  0.00    +0.212 C 
ATOM     31  O   UNL     1       1.165  -4.248   1.413  0.00  0.00    -0.276 OA
ATOM     32  N   UNL     1       0.997  -3.606  -0.704  0.00  0.00    -0.302 N 
ATOM     33  C   UNL     1      -0.172  -2.762  -0.422  0.00  0.00    +0.109 C 
ATOM     34  C   UNL     1      -1.327  -3.201  -1.327  0.00  0.00    +0.041 C 
ATOM     35  C   UNL     1      -0.867  -3.170  -2.786  0.00  0.00    +0.076 C 
ATOM     36  C   UNL     1       0.295  -4.147  -2.977  0.00  0.00    +0.041 C 
ATOM     37  C   UNL     1       1.472  -3.714  -2.090  0.00  0.00    +0.109 C 
ENDBRANCH  25  35
ENDBRANCH   1  26
TORSDOF 4
