REMARK  Name = ZINC20569102
REMARK  12 active torsions:
REMARK  status: ('A' for Active; 'I' for Inactive)
REMARK    1  A    between atoms: C_1  and  C_2
REMARK    2  A    between atoms: C_3  and  C_24
REMARK    3  A    between atoms: C_12  and  N_20
REMARK    4  A    between atoms: C_13  and  C_14
REMARK    5  A    between atoms: C_14  and  O_16
REMARK    6  A    between atoms: O_16  and  C_17
REMARK    7  A    between atoms: C_17  and  C_18
REMARK    8  A    between atoms: C_17  and  C_19
REMARK    9  A    between atoms: C_24  and  O_26
REMARK   10  A    between atoms: O_26  and  C_27
REMARK   11  A    between atoms: C_27  and  C_28
REMARK   12  A    between atoms: C_27  and  C_29
REMARK                            x       y       z     vdW  Elec       q    Type
REMARK                         _______ _______ _______ _____ _____    ______ ____
ROOT
ATOM      1  C   UNL     1      -4.054   0.983   2.365  0.00  0.00    +0.087 C 
ATOM      2  C   UNL     1      -3.104   1.319   1.245  0.00  0.00    +0.117 C 
ATOM      3  C   UNL     1      -1.952   1.988   1.421  0.00  0.00    +0.100 C 
ATOM      4  C   UNL     1      -1.329   2.100   0.046  0.00  0.00    +0.164 C 
ATOM      5  C   UNL     1      -1.207   3.542  -0.346  0.00  0.00    -0.000 A 
ATOM      6  C   UNL     1      -2.341   4.256  -0.692  0.00  0.00    +0.007 A 
ATOM      7  C   UNL     1      -2.243   5.586  -1.052  0.00  0.00    +0.000 A 
ATOM      8  C   UNL     1      -1.010   6.213  -1.068  0.00  0.00    +0.002 A 
ATOM      9  C   UNL     1       0.127   5.507  -0.726  0.00  0.00    +0.023 A 
ATOM     10  C   UNL     1       0.031   4.169  -0.366  0.00  0.00    +0.037 A 
ATOM     11  N   UNL     1       1.185   3.458  -0.025  0.00  0.00    -0.302 N 
ATOM     12  C   UNL     1       1.176   2.089  -0.018  0.00  0.00    +0.097 C 
ATOM     13  C   UNL     1      -0.008   1.396   0.014  0.00  0.00    +0.098 C 
ATOM     14  C   UNL     1      -2.326   1.394  -0.847  0.00  0.00    +0.332 C 
ATOM     15  O   UNL     1      -2.250   1.233  -2.042  0.00  0.00    -0.249 OA
ATOM     16  O   UNL     1      -3.315   0.984  -0.034  0.00  0.00    -0.429 OA
ATOM     17  H   UNL     1       2.106   3.999   0.241  0.00  0.00    +0.153 HD
ENDROOT
BRANCH  12  18
ATOM     18  N   UNL     1       2.363   1.403  -0.044  0.00  0.00    -0.346 N 
ATOM     19  H   UNL     1       2.362   0.303  -0.040  0.00  0.00    +0.143 HD
ATOM     20  H   UNL     1       3.316   1.952  -0.070  0.00  0.00    +0.143 HD
ENDBRANCH  12  18
BRANCH  13  21
ATOM     21  C   UNL     1       0.019  -0.004   0.010  0.00  0.00    +0.340 C 
ATOM     22  O   UNL     1      -0.140  -0.619   1.050  0.00  0.00    -0.245 OA
BRANCH  21  23
ATOM     23  O   UNL     1       0.223  -0.672  -1.146  0.00  0.00    -0.459 OA
BRANCH  23  24
ATOM     24  C   UNL     1       0.239  -2.100  -1.076  0.00  0.00    +0.171 C 
ATOM     25  C   UNL     1      -0.262  -2.681  -2.399  0.00  0.00    +0.052 C 
ATOM     26  C   UNL     1       1.668  -2.581  -0.816  0.00  0.00    +0.052 C 
ENDBRANCH  23  24
ENDBRANCH  21  23
ENDBRANCH  13  21
BRANCH   3  27
ATOM     27  C   UNL     1      -1.429   2.486   2.641  0.00  0.00    +0.340 C 
ATOM     28  O   UNL     1      -2.043   2.322   3.678  0.00  0.00    -0.245 OA
BRANCH  27  29
ATOM     29  O   UNL     1      -0.250   3.142   2.652  0.00  0.00    -0.459 OA
BRANCH  29  30
ATOM     30  C   UNL     1       0.216   3.617   3.917  0.00  0.00    +0.171 C 
ATOM     31  C   UNL     1       1.746   3.633   3.922  0.00  0.00    +0.052 C 
ATOM     32  C   UNL     1      -0.309   5.034   4.155  0.00  0.00    +0.052 C 
ENDBRANCH  29  30
ENDBRANCH  27  29
ENDBRANCH   3  27
TORSDOF 7
