REMARK  Name = ZINC02857382
REMARK  11 active torsions:
REMARK  status: ('A' for Active; 'I' for Inactive)
REMARK    1  A    between atoms: C_1  and  C_2
REMARK    2  A    between atoms: C_4  and  C_8
REMARK    3  A    between atoms: N_6  and  C_7
REMARK    4  A    between atoms: N_10  and  N_11
REMARK    5  A    between atoms: N_11  and  C_12
REMARK    6  A    between atoms: C_12  and  N_14
REMARK    7  A    between atoms: N_14  and  C_15
REMARK    8  A    between atoms: C_16  and  C_26
REMARK    9  A    between atoms: C_21  and  C_25
REMARK   10  A    between atoms: C_26  and  O_28
REMARK   11  A    between atoms: O_28  and  C_29
REMARK                            x       y       z     vdW  Elec       q    Type
REMARK                         _______ _______ _______ _____ _____    ______ ____
ROOT
ATOM      1  C   UNL     1       6.149  -1.966  -0.068  0.00  0.00    +0.151 C 
ATOM      2  S   UNL     1       7.858  -2.056  -0.085  0.00  0.00    -0.017 S 
ENDROOT
BRANCH   1   3
ATOM      3  N   UNL     1       5.537  -0.765  -0.056  0.00  0.00    -0.245 N 
ATOM      4  H   UNL     1       6.066   0.048  -0.057  0.00  0.00    +0.172 HD
BRANCH   3   7
ATOM      5  C   UNL     1       3.527   0.510  -0.029  0.00  0.00    +0.281 C 
ATOM      6  O   UNL     1       4.189   1.529  -0.031  0.00  0.00    -0.267 OA
ATOM      7  N   UNL     1       4.138  -0.691  -0.042  0.00  0.00    -0.230 N 
ATOM      8  H   UNL     1       3.610  -1.505  -0.041  0.00  0.00    +0.173 HD
BRANCH   5  12
ATOM      9  C   UNL     1      -1.241   2.230   0.020  0.00  0.00    +0.066 C 
ATOM     10  C   UNL     1      -0.016   1.352   0.009  0.00  0.00    +0.051 A 
ATOM     11  C   UNL     1       1.272   1.769  -0.001  0.00  0.00    +0.071 A 
ATOM     12  C   UNL     1       2.052   0.588  -0.014  0.00  0.00    +0.163 A 
ATOM     13  N   UNL     1       1.214  -0.430  -0.012  0.00  0.00    -0.165 NA
ATOM     14  N   UNL     1       0.002  -0.004   0.002  0.00  0.00    -0.270 N 
ATOM     15  C   UNL     1      -1.187  -0.859   0.008  0.00  0.00    +0.172 C 
ATOM     16 BR   UNL     1       1.898   3.553   0.004  0.00  0.00    -0.046 Br
ENDBRANCH   5  12
ENDBRANCH   3   7
ENDBRANCH   1   3
BRANCH   1  17
ATOM     17  N   UNL     1       5.414  -3.096  -0.067  0.00  0.00    -0.290 N 
ATOM     18  H   UNL     1       4.446  -3.045  -0.057  0.00  0.00    +0.154 HD
BRANCH  17  19
ATOM     19  C   UNL     1       6.043  -4.331  -0.079  0.00  0.00    +0.086 A 
ATOM     20  C   UNL     1       5.464  -5.594  -0.074  0.00  0.00    +0.091 A 
ATOM     21  C   UNL     1       6.357  -6.740  -0.094  0.00  0.00    -0.021 A 
ATOM     22  C   UNL     1       7.675  -6.443  -0.106  0.00  0.00    -0.004 A 
ATOM     23  S   UNL     1       7.740  -4.674  -0.097  0.00  0.00    -0.077 S 
ATOM     24  C   UNL     1       8.818  -7.410  -0.123  0.00  0.00    +0.046 C 
ATOM     25  C   UNL     1       8.275  -8.795  -0.504  0.00  0.00    -0.009 C 
ATOM     26  C   UNL     1       7.034  -9.088   0.344  0.00  0.00    +0.008 C 
ATOM     27  C   UNL     1       5.879  -8.187  -0.096  0.00  0.00    +0.037 C 
ATOM     28  C   UNL     1       9.344  -9.857  -0.234  0.00  0.00    +0.008 C 
BRANCH  20  29
ATOM     29  C   UNL     1       4.010  -5.763  -0.054  0.00  0.00    +0.342 C 
ATOM     30  O   UNL     1       3.391  -5.832  -1.098  0.00  0.00    -0.245 OA
BRANCH  29  31
ATOM     31  O   UNL     1       3.357  -5.845   1.124  0.00  0.00    -0.464 OA
ATOM     32  C   UNL     1       1.916  -6.013   1.069  0.00  0.00    +0.280 C 
ENDBRANCH  29  31
ENDBRANCH  20  29
ENDBRANCH  17  19
ENDBRANCH   1  17
TORSDOF 7
