REMARK  Name = ZINC11730282
REMARK  6 active torsions:
REMARK  status: ('A' for Active; 'I' for Inactive)
REMARK    1  A    between atoms: C_1  and  C_2
REMARK    2  A    between atoms: C_2  and  O_3
REMARK    3  A    between atoms: O_3  and  C_4
REMARK    4  A    between atoms: C_9  and  O_10
REMARK    5  A    between atoms: O_10  and  C_11
REMARK    6  A    between atoms: C_11  and  C_12
REMARK                            x       y       z     vdW  Elec       q    Type
REMARK                         _______ _______ _______ _____ _____    ______ ____
ROOT
ATOM      1  C   UNL     1      -1.201   3.539   2.229  0.00  0.00    +0.166 A 
ATOM      2  C   UNL     1      -1.727   2.678   3.182  0.00  0.00    +0.050 A 
ATOM      3  C   UNL     1      -2.424   3.188   4.262  0.00  0.00    +0.017 A 
ATOM      4  C   UNL     1      -2.603   4.557   4.374  0.00  0.00    +0.047 A 
ATOM      5  C   UNL     1      -2.068   5.439   3.428  0.00  0.00    +0.176 A 
ATOM      6  C   UNL     1      -1.366   4.914   2.349  0.00  0.00    +0.204 A 
ATOM      7  O   UNL     1      -2.190   6.785   3.560  0.00  0.00    -0.476 OA
ATOM      8  C   UNL     1      -3.344   7.340   4.205  0.00  0.00    +0.144 C 
ATOM      9  C   UNL     1      -4.503   7.383   3.205  0.00  0.00    +0.053 C 
ATOM     10  C   UNL     1      -4.103   8.229   1.996  0.00  0.00    +0.004 C 
ATOM     11  C   UNL     1      -3.775   9.652   2.454  0.00  0.00    +0.000 C 
ATOM     12  C   UNL     1      -2.619   9.611   3.455  0.00  0.00    +0.004 C 
ATOM     13  C   UNL     1      -3.021   8.764   4.665  0.00  0.00    +0.053 C 
ATOM     14  C   UNL     1      -3.700   6.489   5.372  0.00  0.00    +0.062 A 
ATOM     15  C   UNL     1      -3.393   5.151   5.499  0.00  0.00    +0.091 A 
ATOM     16  N   UNL     1      -3.811   4.536   6.606  0.00  0.00    -0.225 NA
ATOM     17  C   UNL     1      -4.471   5.178   7.555  0.00  0.00    +0.156 A 
ATOM     18  S   UNL     1      -4.560   6.833   6.876  0.00  0.00    -0.053 S 
ATOM     19  N   UNL     1      -4.965   4.698   8.757  0.00  0.00    -0.337 N 
ATOM     20  H   UNL     1      -5.435   5.293   9.361  0.00  0.00    +0.144 HD
ATOM     21  H   UNL     1      -4.840   3.765   8.994  0.00  0.00    +0.144 HD
ENDROOT
BRANCH   1  22
ATOM     22  O   UNL     1      -0.522   3.033   1.165  0.00  0.00    -0.488 OA
BRANCH  22  24
ATOM     23  C   UNL     1       0.400   1.232  -0.157  0.00  0.00    +0.048 C 
ATOM     24  C   UNL     1      -0.387   1.612   1.099  0.00  0.00    +0.226 C 
ENDBRANCH  22  24
ENDBRANCH   1  22
BRANCH   6  25
ATOM     25  O   UNL     1      -0.841   5.746   1.408  0.00  0.00    -0.485 OA
BRANCH  25  26
ATOM     26  C   UNL     1       0.495   6.206   1.622  0.00  0.00    +0.226 C 
ATOM     27  C   UNL     1       0.908   7.125   0.471  0.00  0.00    +0.048 C 
ENDBRANCH  25  26
ENDBRANCH   6  25
TORSDOF 4
