REMARK  Name = ZINC40690699
REMARK  3 active torsions:
REMARK  status: ('A' for Active; 'I' for Inactive)
REMARK    1  A    between atoms: C_6  and  C_7
REMARK    2  A    between atoms: N_9  and  C_10
REMARK    3  A    between atoms: C_10  and  C_15
REMARK                            x       y       z     vdW  Elec       q    Type
REMARK                         _______ _______ _______ _____ _____    ______ ____
ROOT
ATOM      1  C   UNL     1      -1.268  -0.766   0.011  0.00  0.00    +0.265 C 
ATOM      2  O   UNL     1      -2.330  -0.175   0.024  0.00  0.00    -0.268 OA
ATOM      3  N   UNL     1      -1.246  -2.113   0.003  0.00  0.00    -0.291 N 
ATOM      4  H   UNL     1      -0.398  -2.584  -0.008  0.00  0.00    +0.151 HD
ENDROOT
BRANCH   1  10
ATOM      5  C   UNL     1      -0.017   1.393   0.010  0.00  0.00    +0.038 A 
ATOM      6  C   UNL     1       1.200   2.060   0.002  0.00  0.00    +0.044 A 
ATOM      7  C   UNL     1       2.360   1.299  -0.013  0.00  0.00    +0.152 A 
ATOM      8  N   UNL     1       2.287  -0.022  -0.020  0.00  0.00    -0.137 NA
ATOM      9  N   UNL     1       1.165  -0.646  -0.013  0.00  0.00    -0.143 NA
ATOM     10  C   UNL     1       0.002  -0.004   0.002  0.00  0.00    +0.148 A 
ATOM     11 CL   UNL     1       3.910   2.082  -0.025  0.00  0.00    -0.060 Cl
ENDBRANCH   1  10
BRANCH   3  12
ATOM     12  C   UNL     1      -2.502  -2.867   0.011  0.00  0.00    +0.131 C 
ATOM     13  C   UNL     1      -2.183  -4.353  -0.136  0.00  0.00    +0.052 C 
ATOM     14  C   UNL     1      -1.991  -5.005   1.262  0.00  0.00    +0.072 C 
ATOM     15  S   UNL     1      -3.333  -4.141   2.190  0.00  0.00    -0.157 S 
ATOM     16  C   UNL     1      -3.272  -2.529   1.304  0.00  0.00    +0.110 C 
BRANCH  12  17
ATOM     17  C   UNL     1      -3.312  -2.444  -1.143  0.00  0.00    +0.089 C 
ATOM     18  N   UNL     1      -3.936  -2.119  -2.035  0.00  0.00    -0.194 NA
ENDBRANCH  12  17
ENDBRANCH   3  12
TORSDOF 3
