REMARK  Name = ZINC19336565
REMARK  4 active torsions:
REMARK  status: ('A' for Active; 'I' for Inactive)
REMARK    1  A    between atoms: C_6  and  C_7
REMARK    2  A    between atoms: C_9  and  C_16
REMARK    3  A    between atoms: C_10  and  C_14
REMARK    4  A    between atoms: C_11  and  N_13
REMARK                            x       y       z     vdW  Elec       q    Type
REMARK                         _______ _______ _______ _____ _____    ______ ____
ROOT
ATOM      1  C   UNL     1      -0.138   4.167   0.025  0.00  0.00    +0.074 A 
ATOM      2  C   UNL     1       1.112   3.554   0.010  0.00  0.00    +0.038 A 
ATOM      3  C   UNL     1       1.189   2.163   0.002  0.00  0.00    +0.005 A 
ATOM      4  C   UNL     1      -0.017   1.428   0.010  0.00  0.00    +0.099 A 
ATOM      5  C   UNL     1      -1.237   2.126   0.019  0.00  0.00    +0.135 A 
ATOM      6  N   UNL     1      -1.255   3.448   0.032  0.00  0.00    -0.231 NA
ENDROOT
BRANCH   3   7
ATOM      7  C   UNL     1       2.499   1.474  -0.013  0.00  0.00    -0.013 A 
ATOM      8  C   UNL     1       3.471   1.840  -0.945  0.00  0.00    +0.012 A 
ATOM      9  C   UNL     1       4.691   1.197  -0.958  0.00  0.00    +0.050 A 
ATOM     10  C   UNL     1       4.957   0.186  -0.046  0.00  0.00    +0.166 A 
ATOM     11  C   UNL     1       3.990  -0.184   0.888  0.00  0.00    +0.167 A 
ATOM     12  C   UNL     1       2.767   0.461   0.908  0.00  0.00    +0.058 A 
ATOM     13  O   UNL     1       4.493  -1.190   1.662  0.00  0.00    -0.453 OA
ATOM     14  C   UNL     1       5.620  -1.710   0.931  0.00  0.00    +0.466 C 
ATOM     15  O   UNL     1       6.064  -0.588   0.144  0.00  0.00    -0.453 OA
ENDBRANCH   3   7
BRANCH   1  21
ATOM     16  C   UNL     1       0.941   6.415   0.033  0.00  0.00    +0.013 A 
ATOM     17  C   UNL     1       0.856   7.791   0.035  0.00  0.00    +0.039 A 
ATOM     18  C   UNL     1      -0.384   8.411   0.050  0.00  0.00    +0.123 A 
ATOM     19  C   UNL     1      -1.543   7.652   0.056  0.00  0.00    +0.039 A 
ATOM     20  C   UNL     1      -1.468   6.275   0.048  0.00  0.00    +0.013 A 
ATOM     21  C   UNL     1      -0.223   5.647   0.034  0.00  0.00    +0.001 A 
ATOM     22  F   UNL     1      -0.462   9.760   0.058  0.00  0.00    -0.205 F 
ENDBRANCH   1  21
BRANCH   5  23
ATOM     23  N   UNL     1      -2.430   1.424   0.022  0.00  0.00    -0.342 N 
ATOM     24  H   UNL     1      -3.387   1.966   0.029  0.00  0.00    +0.144 HD
ATOM     25  H   UNL     1      -2.420   0.324   0.016  0.00  0.00    +0.144 HD
ENDBRANCH   5  23
BRANCH   4  26
ATOM     26  C   UNL     1       0.002  -0.004   0.002  0.00  0.00    +0.103 C 
ATOM     27  N   UNL     1       0.018  -1.140  -0.004  0.00  0.00    -0.191 NA
ENDBRANCH   4  26
TORSDOF 4
