REMARK  Name = ZINC38790529
REMARK  10 active torsions:
REMARK  status: ('A' for Active; 'I' for Inactive)
REMARK    1  A    between atoms: C_1  and  C_2
REMARK    2  A    between atoms: C_2  and  O_3
REMARK    3  A    between atoms: O_3  and  C_4
REMARK    4  A    between atoms: C_4  and  C_6
REMARK    5  A    between atoms: C_7  and  C_33
REMARK    6  A    between atoms: C_10  and  C_19
REMARK    7  A    between atoms: C_11  and  C_12
REMARK    8  A    between atoms: C_19  and  C_21
REMARK    9  A    between atoms: N_23  and  C_24
REMARK   10  A    between atoms: C_29  and  N_30
REMARK                            x       y       z     vdW  Elec       q    Type
REMARK                         _______ _______ _______ _____ _____    ______ ____
ROOT
ATOM      1  C   UNL     1       1.513  -2.420   2.441  0.00  0.00    +0.088 A 
ATOM      2  C   UNL     1       0.944  -2.733   3.661  0.00  0.00    +0.028 A 
ATOM      3  N   UNL     1       1.895  -3.207   4.481  0.00  0.00    -0.354 N 
ATOM      4  H   UNL     1       1.751  -3.498   5.396  0.00  0.00    +0.166 HD
ATOM      5  C   UNL     1       3.108  -3.216   3.825  0.00  0.00    +0.101 A 
ATOM      6  C   UNL     1       2.897  -2.730   2.533  0.00  0.00    +0.025 A 
ATOM      7  C   UNL     1      -0.512  -2.570   4.014  0.00  0.00    +0.064 C 
ENDROOT
BRANCH   6   8
ATOM      8  C   UNL     1       3.913  -2.566   1.472  0.00  0.00    -0.015 A 
ATOM      9  C   UNL     1       3.829  -3.320   0.299  0.00  0.00    +0.011 A 
ATOM     10  C   UNL     1       4.779  -3.163  -0.687  0.00  0.00    +0.039 A 
ATOM     11  C   UNL     1       5.817  -2.260  -0.516  0.00  0.00    +0.123 A 
ATOM     12  C   UNL     1       5.906  -1.510   0.647  0.00  0.00    +0.039 A 
ATOM     13  C   UNL     1       4.958  -1.653   1.637  0.00  0.00    +0.011 A 
ATOM     14  F   UNL     1       6.746  -2.111  -1.485  0.00  0.00    -0.205 F 
ENDBRANCH   6   8
BRANCH   1  15
ATOM     15  C   UNL     1       0.817  -1.873   1.267  0.00  0.00    +0.342 C 
ATOM     16  O   UNL     1       0.332  -2.624   0.443  0.00  0.00    -0.245 OA
BRANCH  15  17
ATOM     17  O   UNL     1       0.715  -0.539   1.103  0.00  0.00    -0.461 OA
BRANCH  17  19
ATOM     18  C   UNL     1       0.013   1.452  -0.073  0.00  0.00    +0.048 C 
ATOM     19  C   UNL     1       0.025  -0.078  -0.060  0.00  0.00    +0.229 C 
ENDBRANCH  17  19
ENDBRANCH  15  17
ENDBRANCH   1  15
BRANCH   5  20
ATOM     20  C   UNL     1       4.341  -3.647   4.362  0.00  0.00    +0.264 C 
ATOM     21  O   UNL     1       5.348  -3.606   3.680  0.00  0.00    -0.280 OA
BRANCH  20  22
ATOM     22  C   UNL     1       4.409  -4.149   5.761  0.00  0.00    +0.290 C 
ATOM     23  O   UNL     1       3.404  -4.190   6.442  0.00  0.00    -0.266 OA
ATOM     24  N   UNL     1       5.586  -4.560   6.274  0.00  0.00    -0.277 N 
ATOM     25  H   UNL     1       6.376  -4.589   5.711  0.00  0.00    +0.155 HD
BRANCH  24  26
ATOM     26  C   UNL     1       5.668  -4.944   7.615  0.00  0.00    +0.064 A 
ATOM     27  C   UNL     1       4.602  -5.600   8.218  0.00  0.00    +0.025 A 
ATOM     28  C   UNL     1       4.688  -5.978   9.544  0.00  0.00    +0.002 A 
ATOM     29  C   UNL     1       5.832  -5.705  10.270  0.00  0.00    +0.002 A 
ATOM     30  C   UNL     1       6.895  -5.053   9.673  0.00  0.00    +0.034 A 
ATOM     31  C   UNL     1       6.819  -4.676   8.346  0.00  0.00    +0.147 A 
BRANCH  31  32
ATOM     32  N   UNL     1       7.959  -3.983   7.706  0.00  0.00    +0.058 N 
ATOM     33  O   UNL     1       8.995  -3.837   8.312  0.00  0.00    -0.126 OA
ATOM     34  O   UNL     1       7.855  -3.563   6.577  0.00  0.00    -0.126 OA
ENDBRANCH  31  32
ENDBRANCH  24  26
ENDBRANCH  20  22
ENDBRANCH   5  20
TORSDOF 8
