REMARK  Name = ZINC63137369
REMARK  13 active torsions:
REMARK  status: ('A' for Active; 'I' for Inactive)
REMARK    1  A    between atoms: C_1  and  C_2
REMARK    2  A    between atoms: C_2  and  C_3
REMARK    3  A    between atoms: C_3  and  C_4
REMARK    4  A    between atoms: C_4  and  O_5
REMARK    5  A    between atoms: O_5  and  C_6
REMARK    6  A    between atoms: C_6  and  C_7
REMARK    7  A    between atoms: C_7  and  C_8
REMARK    8  A    between atoms: C_8  and  N_9
REMARK    9  A    between atoms: C_29  and  C_31
REMARK   10  A    between atoms: C_34  and  O_39
REMARK   11  A    between atoms: C_36  and  O_37
REMARK   12  A    between atoms: O_37  and  C_38
REMARK   13  A    between atoms: O_39  and  C_40
REMARK                            x       y       z     vdW  Elec       q    Type
REMARK                         _______ _______ _______ _____ _____    ______ ____
ROOT
ATOM      1  N   UNL     1       3.407  -5.924  -5.059  0.00  0.00    -0.291 N 
ATOM      2  C   UNL     1       2.494  -6.154  -6.167  0.00  0.00    +0.203 C 
ATOM      3  C   UNL     1       3.203  -6.618  -7.396  0.00  0.00    +0.234 C 
ATOM      4  O   UNL     1       2.533  -6.842  -8.381  0.00  0.00    -0.274 OA
ATOM      5  N   UNL     1       4.525  -6.803  -7.487  0.00  0.00    -0.279 N 
ATOM      6  C   UNL     1       5.435  -6.550  -6.375  0.00  0.00    +0.167 C 
ATOM      7  C   UNL     1       4.725  -6.092  -5.144  0.00  0.00    +0.237 C 
ATOM      8  O   UNL     1       5.391  -5.864  -4.157  0.00  0.00    -0.274 OA
ATOM      9  C   UNL     1       6.484  -5.498  -6.784  0.00  0.00    +0.065 C 
ATOM     10  C   UNL     1       6.987  -5.901  -8.148  0.00  0.00    -0.034 C 
ATOM     11  C   UNL     1       8.216  -6.071  -8.618  0.00  0.00    -0.001 A 
ATOM     12  C   UNL     1       9.537  -5.823  -8.019  0.00  0.00    +0.010 A 
ATOM     13  C   UNL     1      10.613  -6.135  -8.790  0.00  0.00    +0.001 A 
ATOM     14  C   UNL     1      10.508  -6.663 -10.080  0.00  0.00    +0.002 A 
ATOM     15  C   UNL     1       9.334  -6.914 -10.713  0.00  0.00    +0.026 A 
ATOM     16  C   UNL     1       8.132  -6.619 -10.007  0.00  0.00    +0.043 A 
ATOM     17  N   UNL     1       6.890  -6.736 -10.374  0.00  0.00    -0.375 N 
ATOM     18  C   UNL     1       6.040  -6.225  -9.298  0.00  0.00    +0.131 C 
ATOM     19  C   UNL     1       5.067  -7.287  -8.777  0.00  0.00    +0.137 C 
ATOM     20  H   UNL     1       6.580  -7.100 -11.218  0.00  0.00    +0.160 HD
ENDROOT
BRANCH  19  21
ATOM     21  C   UNL     1       5.796  -8.589  -8.569  0.00  0.00    +0.017 A 
ATOM     22  C   UNL     1       6.854  -8.655  -7.683  0.00  0.00    +0.013 A 
ATOM     23  C   UNL     1       7.524  -9.848  -7.490  0.00  0.00    +0.046 A 
ATOM     24  C   UNL     1       7.136 -10.983  -8.187  0.00  0.00    +0.124 A 
ATOM     25  C   UNL     1       6.075 -10.920  -9.077  0.00  0.00    +0.091 A 
ATOM     26  C   UNL     1       5.401  -9.723  -9.264  0.00  0.00    +0.129 A 
BRANCH  26  27
ATOM     27  O   UNL     1       4.356  -9.660 -10.131  0.00  0.00    -0.495 OA
ATOM     28  C   UNL     1       4.004 -10.866 -10.812  0.00  0.00    +0.277 C 
ENDBRANCH  26  27
BRANCH  24  29
ATOM     29  O   UNL     1       7.796 -12.156  -7.997  0.00  0.00    -0.495 OA
ATOM     30  C   UNL     1       8.879 -12.148  -7.066  0.00  0.00    +0.277 C 
ENDBRANCH  24  29
ENDBRANCH  19  21
BRANCH   1  31
ATOM     31  C   UNL     1       2.846  -5.477  -3.782  0.00  0.00    +0.110 C 
BRANCH  31  32
ATOM     32  C   UNL     1       2.800  -3.948  -3.752  0.00  0.00    +0.047 C 
BRANCH  32  33
ATOM     33  C   UNL     1       2.215  -3.481  -2.418  0.00  0.00    +0.161 C 
BRANCH  33  34
ATOM     34  O   UNL     1       2.171  -2.053  -2.391  0.00  0.00    -0.380 OA
BRANCH  34  35
ATOM     35  C   UNL     1       1.638  -1.511  -1.181  0.00  0.00    +0.160 C 
BRANCH  35  36
ATOM     36  C   UNL     1       1.640   0.017  -1.262  0.00  0.00    +0.028 C 
BRANCH  36  38
ATOM     37  C   UNL     1       1.070   2.125  -0.049  0.00  0.00    +0.004 C 
ATOM     38  C   UNL     1       1.069   0.598   0.033  0.00  0.00    -0.001 C 
ENDBRANCH  36  38
ENDBRANCH  35  36
ENDBRANCH  34  35
ENDBRANCH  33  34
ENDBRANCH  32  33
ENDBRANCH  31  32
ENDBRANCH   1  31
TORSDOF 10
