REMARK  Name = ZINC04201082
REMARK  10 active torsions:
REMARK  status: ('A' for Active; 'I' for Inactive)
REMARK    1  A    between atoms: C_1  and  C_2
REMARK    2  A    between atoms: C_2  and  C_42
REMARK    3  A    between atoms: C_3  and  C_4
REMARK    4  A    between atoms: C_9  and  N_32
REMARK    5  A    between atoms: C_11  and  C_13
REMARK    6  A    between atoms: N_15  and  C_16
REMARK    7  A    between atoms: C_16  and  C_18
REMARK    8  A    between atoms: C_16  and  C_29
REMARK    9  A    between atoms: C_18  and  C_19
REMARK   10  A    between atoms: N_35  and  C_36
REMARK                            x       y       z     vdW  Elec       q    Type
REMARK                         _______ _______ _______ _____ _____    ______ ____
ROOT
ATOM      1  C   UNL     1      -3.155  -0.512  -6.210  0.00  0.00    +0.240 C 
ATOM      2  O   UNL     1      -4.059  -0.811  -5.453  0.00  0.00    -0.271 OA
ATOM      3  N   UNL     1      -1.955  -0.148  -5.717  0.00  0.00    -0.285 N 
ATOM      4  C   UNL     1      -0.773   0.238  -6.515  0.00  0.00    +0.111 C 
ATOM      5  C   UNL     1       0.439  -0.048  -5.594  0.00  0.00    +0.043 C 
ATOM      6  C   UNL     1      -0.123   0.360  -4.206  0.00  0.00    +0.105 C 
ATOM      7  C   UNL     1      -1.603  -0.069  -4.292  0.00  0.00    +0.182 C 
ENDROOT
BRANCH   6   8
ATOM      8  N   UNL     1       0.566  -0.366  -3.135  0.00  0.00    -0.294 N 
ATOM      9  C   UNL     1       1.657   0.169  -2.553  0.00  0.00    +0.300 C 
ATOM     10  O   UNL     1       2.071   1.253  -2.916  0.00  0.00    -0.253 OA
ATOM     11  N   UNL     1       2.290  -0.499  -1.568  0.00  0.00    -0.297 N 
ATOM     12  H   UNL     1       0.235  -1.231  -2.845  0.00  0.00    +0.151 HD
ATOM     13  H   UNL     1       1.960  -1.364  -1.278  0.00  0.00    +0.151 HD
BRANCH  11  14
ATOM     14  C   UNL     1       3.477   0.082  -0.934  0.00  0.00    +0.074 C 
ATOM     15  C   UNL     1       4.716  -0.261  -1.763  0.00  0.00    +0.022 C 
ATOM     16  C   UNL     1       5.956   0.346  -1.102  0.00  0.00    +0.002 C 
ATOM     17  C   UNL     1       6.112  -0.225   0.309  0.00  0.00    +0.000 C 
ATOM     18  C   UNL     1       4.872   0.117   1.138  0.00  0.00    +0.002 C 
ATOM     19  C   UNL     1       3.633  -0.489   0.476  0.00  0.00    +0.022 C 
ENDBRANCH  11  14
ENDBRANCH   6   8
BRANCH   1  22
ATOM     20  C   UNL     1      -5.645  -1.374  -7.221  0.00  0.00    +0.039 C 
ATOM     21  C   UNL     1      -4.520  -1.009  -8.154  0.00  0.00    -0.071 C 
ATOM     22  C   UNL     1      -3.373  -0.549  -7.665  0.00  0.00    +0.066 C 
ATOM     23  C   UNL     1      -4.695  -1.166  -9.643  0.00  0.00    +0.039 C 
ENDBRANCH   1  22
BRANCH   7  24
ATOM     24  C   UNL     1      -2.473   0.952  -3.605  0.00  0.00    +0.236 C 
ATOM     25  O   UNL     1      -3.064   1.784  -4.260  0.00  0.00    -0.274 OA
ATOM     26  N   UNL     1      -2.594   0.940  -2.263  0.00  0.00    -0.302 N 
ATOM     27  H   UNL     1      -2.121   0.275  -1.739  0.00  0.00    +0.150 HD
BRANCH  26  28
ATOM     28  C   UNL     1      -3.440   1.933  -1.595  0.00  0.00    +0.163 C 
BRANCH  28  29
ATOM     29  C   UNL     1      -4.867   1.450  -1.583  0.00  0.00    +0.231 C 
ATOM     30  O   UNL     1      -5.150   0.382  -2.084  0.00  0.00    -0.274 OA
ATOM     31  N   UNL     1      -5.829   2.205  -1.017  0.00  0.00    -0.328 N 
ATOM     32  H   UNL     1      -5.603   3.059  -0.617  0.00  0.00    +0.145 HD
ATOM     33  H   UNL     1      -6.748   1.894  -1.010  0.00  0.00    +0.145 HD
ENDBRANCH  28  29
BRANCH  28  34
ATOM     34  C   UNL     1      -2.956   2.129  -0.156  0.00  0.00    +0.069 C 
BRANCH  34  35
ATOM     35  C   UNL     1      -1.573   2.728  -0.169  0.00  0.00    -0.020 A 
ATOM     36  C   UNL     1      -0.413   2.058  -0.090  0.00  0.00    +0.087 A 
ATOM     37  N   UNL     1       0.636   2.935  -0.137  0.00  0.00    -0.360 N 
ATOM     38  H   UNL     1       1.573   2.686  -0.100  0.00  0.00    +0.165 HD
ATOM     39  C   UNL     1       0.165   4.224  -0.244  0.00  0.00    +0.047 A 
ATOM     40  C   UNL     1      -1.240   4.151  -0.265  0.00  0.00    +0.003 A 
ATOM     41  C   UNL     1      -1.997   5.319  -0.369  0.00  0.00    +0.010 A 
ATOM     42  C   UNL     1      -1.368   6.530  -0.449  0.00  0.00    +0.001 A 
ATOM     43  C   UNL     1       0.018   6.607  -0.428  0.00  0.00    +0.002 A 
ATOM     44  C   UNL     1       0.784   5.467  -0.327  0.00  0.00    +0.026 A 
ENDBRANCH  34  35
ENDBRANCH  28  34
ENDBRANCH  26  28
ENDBRANCH   7  24
TORSDOF 8
