REMARK  Name = ZINC13576659
REMARK  4 active torsions:
REMARK  status: ('A' for Active; 'I' for Inactive)
REMARK    1  A    between atoms: C_1  and  C_2
REMARK    2  A    between atoms: C_2  and  N_3
REMARK    3  A    between atoms: C_16  and  C_18
REMARK    4  A    between atoms: N_24  and  C_27
REMARK                            x       y       z     vdW  Elec       q    Type
REMARK                         _______ _______ _______ _____ _____    ______ ____
ROOT
ATOM      1  N   UNL     1       1.086  -1.769   2.150  0.00  0.00    +0.388 N 
ATOM      2  C   UNL     1       0.793  -1.865   3.586  0.00  0.00    -0.073 C 
ATOM      3  C   UNL     1       2.102  -1.784   4.383  0.00  0.00    +0.019 C 
ATOM      4  C   UNL     1       3.072  -2.767   3.776  0.00  0.00    -0.022 A 
ATOM      5  C   UNL     1       4.306  -3.293   4.315  0.00  0.00    +0.003 A 
ATOM      6  C   UNL     1       4.986  -3.082   5.518  0.00  0.00    +0.010 A 
ATOM      7  C   UNL     1       6.161  -3.769   5.697  0.00  0.00    +0.001 A 
ATOM      8  C   UNL     1       6.661  -4.634   4.738  0.00  0.00    +0.002 A 
ATOM      9  C   UNL     1       6.010  -4.862   3.538  0.00  0.00    +0.026 A 
ATOM     10  C   UNL     1       4.814  -4.179   3.329  0.00  0.00    +0.047 A 
ATOM     11  N   UNL     1       3.936  -4.171   2.282  0.00  0.00    -0.359 N 
ATOM     12  H   UNL     1       4.033  -4.689   1.468  0.00  0.00    +0.166 HD
ATOM     13  C   UNL     1       2.897  -3.324   2.557  0.00  0.00    +0.011 A 
ATOM     14  C   UNL     1       1.711  -3.013   1.675  0.00  0.00    +0.021 C 
ATOM     15  H   UNL     1       1.716  -0.997   1.990  0.00  0.00    -0.080 HD
ENDROOT
BRANCH  14  16
ATOM     16  C   UNL     1       2.171  -2.837   0.251  0.00  0.00    +0.074 A 
ATOM     17  C   UNL     1       3.038  -1.784  -0.092  0.00  0.00    +0.260 A 
ATOM     18  N   UNL     1       3.439  -1.643  -1.371  0.00  0.00    -0.274 N 
ATOM     19  H   UNL     1       4.037  -0.918  -1.611  0.00  0.00    +0.173 HD
ATOM     20  C   UNL     1       3.015  -2.500  -2.318  0.00  0.00    +0.337 A 
ATOM     21  O   UNL     1       3.388  -2.356  -3.467  0.00  0.00    -0.246 OA
ATOM     22  N   UNL     1       2.186  -3.515  -2.013  0.00  0.00    -0.229 N 
ATOM     23  C   UNL     1       1.758  -3.698  -0.721  0.00  0.00    +0.267 A 
ATOM     24  O   UNL     1       0.930  -4.720  -0.417  0.00  0.00    -0.267 OA
ATOM     25  O   UNL     1       3.425  -1.004   0.761  0.00  0.00    -0.267 OA
BRANCH  22  26
ATOM     26  C   UNL     1       1.760  -4.393  -3.019  0.00  0.00    +0.056 A 
ATOM     27  C   UNL     1       2.495  -5.537  -3.300  0.00  0.00    +0.026 A 
ATOM     28  C   UNL     1       2.074  -6.401  -4.291  0.00  0.00    +0.003 A 
ATOM     29  C   UNL     1       0.921  -6.128  -5.005  0.00  0.00    +0.020 A 
ATOM     30  C   UNL     1       0.187  -4.988  -4.728  0.00  0.00    +0.043 A 
ATOM     31  C   UNL     1       0.600  -4.123  -3.732  0.00  0.00    +0.046 A 
ATOM     32 CL   UNL     1      -1.259  -4.648  -5.627  0.00  0.00    -0.083 Cl
ENDBRANCH  22  26
ENDBRANCH  14  16
BRANCH   1  34
ATOM     33  C   UNL     1      -0.751  -0.185   1.814  0.00  0.00    -0.017 C 
ATOM     34  C   UNL     1      -0.163  -1.539   1.412  0.00  0.00    -0.081 C 
ENDBRANCH   1  34
TORSDOF 3
