REMARK  Name = ZINC38680406
REMARK  10 active torsions:
REMARK  status: ('A' for Active; 'I' for Inactive)
REMARK    1  A    between atoms: C_1  and  C_2
REMARK    2  A    between atoms: C_2  and  C_3
REMARK    3  A    between atoms: C_2  and  O_4
REMARK    4  A    between atoms: O_4  and  C_5
REMARK    5  A    between atoms: C_8  and  C_11
REMARK    6  A    between atoms: C_11  and  O_13
REMARK    7  A    between atoms: O_13  and  C_14
REMARK    8  A    between atoms: C_21  and  N_35
REMARK    9  A    between atoms: C_22  and  C_33
REMARK   10  A    between atoms: C_23  and  C_25
REMARK                            x       y       z     vdW  Elec       q    Type
REMARK                         _______ _______ _______ _____ _____    ______ ____
ROOT
ATOM      1  C   UNL     1      -2.992  -2.046   7.639  0.00  0.00    +0.135 A 
ATOM      2  C   UNL     1      -4.357  -1.808   7.567  0.00  0.00    +0.047 A 
ATOM      3  C   UNL     1      -5.152  -2.010   8.678  0.00  0.00    +0.012 A 
ATOM      4  C   UNL     1      -4.592  -2.450   9.865  0.00  0.00    +0.008 A 
ATOM      5  C   UNL     1      -3.229  -2.688   9.942  0.00  0.00    +0.138 A 
ATOM      6  C   UNL     1      -2.429  -2.490   8.824  0.00  0.00    +0.093 A 
ATOM      7  O   UNL     1      -2.662  -3.119  11.096  0.00  0.00    -0.441 OA
ATOM      8  C   UNL     1      -3.425  -3.682  12.048  0.00  0.00    +0.199 C 
ATOM      9  C   UNL     1      -4.766  -3.506  12.089  0.00  0.00    +0.098 C 
ATOM     10  C   UNL     1      -5.476  -2.664  11.066  0.00  0.00    +0.102 C 
ENDROOT
BRANCH  10  11
ATOM     11  C   UNL     1      -5.825  -1.330  11.673  0.00  0.00    +0.019 A 
ATOM     12  C   UNL     1      -4.822  -0.494  12.133  0.00  0.00    +0.129 A 
ATOM     13  C   UNL     1      -5.145   0.732  12.690  0.00  0.00    +0.039 A 
ATOM     14  C   UNL     1      -6.468   1.120  12.787  0.00  0.00    +0.004 A 
ATOM     15  C   UNL     1      -7.469   0.286  12.328  0.00  0.00    +0.020 A 
ATOM     16  C   UNL     1      -7.148  -0.937  11.765  0.00  0.00    +0.048 A 
ATOM     17 CL   UNL     1      -8.406  -1.982  11.182  0.00  0.00    -0.083 Cl
ATOM     18  F   UNL     1      -3.529  -0.874  12.038  0.00  0.00    -0.205 F 
ENDBRANCH  10  11
BRANCH   8  19
ATOM     19  N   UNL     1      -2.826  -4.460  13.007  0.00  0.00    -0.328 N 
ATOM     20  H   UNL     1      -1.865  -4.596  12.991  0.00  0.00    +0.145 HD
ATOM     21  H   UNL     1      -3.363  -4.874  13.701  0.00  0.00    +0.145 HD
ENDBRANCH   8  19
BRANCH   9  22
ATOM     22  C   UNL     1      -5.525  -4.133  13.129  0.00  0.00    +0.101 C 
ATOM     23  N   UNL     1      -6.127  -4.631  13.954  0.00  0.00    -0.191 NA
ENDBRANCH   9  22
BRANCH   1  24
ATOM     24  O   UNL     1      -2.208  -1.847   6.546  0.00  0.00    -0.422 OA
BRANCH  24  25
ATOM     25  C   UNL     1      -1.643  -2.926   5.969  0.00  0.00    +0.344 C 
ATOM     26  O   UNL     1      -1.917  -4.041   6.366  0.00  0.00    -0.245 OA
BRANCH  25  30
ATOM     27  C   UNL     1       1.095  -2.428   2.763  0.00  0.00    +0.121 A 
ATOM     28  C   UNL     1       0.783  -3.704   3.216  0.00  0.00    +0.046 A 
ATOM     29  C   UNL     1      -0.104  -3.871   4.255  0.00  0.00    +0.018 A 
ATOM     30  C   UNL     1      -0.692  -2.753   4.856  0.00  0.00    +0.060 A 
ATOM     31  C   UNL     1      -0.375  -1.471   4.397  0.00  0.00    +0.018 A 
ATOM     32  C   UNL     1       0.517  -1.313   3.361  0.00  0.00    +0.046 A 
BRANCH  27  33
ATOM     33  O   UNL     1       1.970  -2.268   1.738  0.00  0.00    -0.489 OA
BRANCH  33  35
ATOM     34  C   UNL     1       1.452  -3.952   0.084  0.00  0.00    +0.051 C 
ATOM     35  C   UNL     1       2.465  -3.457   1.117  0.00  0.00    +0.167 C 
ATOM     36  C   UNL     1       3.795  -3.153   0.423  0.00  0.00    +0.051 C 
ENDBRANCH  33  35
ENDBRANCH  27  33
ENDBRANCH  25  30
ENDBRANCH  24  25
ENDBRANCH   1  24
TORSDOF 8
