REMARK  Name = ZINC64519995
REMARK  5 active torsions:
REMARK  status: ('A' for Active; 'I' for Inactive)
REMARK    1  A    between atoms: C_1  and  C_2
REMARK    2  A    between atoms: N_5  and  C_8
REMARK    3  A    between atoms: C_11  and  C_14
REMARK    4  A    between atoms: C_17  and  C_21
REMARK    5  A    between atoms: C_29  and  C_31
REMARK                            x       y       z     vdW  Elec       q    Type
REMARK                         _______ _______ _______ _____ _____    ______ ____
ROOT
ATOM      1  C   UNL     1      -0.873  -8.140   1.716  0.00  0.00    +0.180 C 
ATOM      2  N   UNL     1      -2.111  -8.579   2.415  0.00  0.00    -0.262 NA
ATOM      3  C   UNL     1      -2.304  -9.959   1.900  0.00  0.00    +0.298 C 
ATOM      4  O   UNL     1      -1.913  -9.895   0.516  0.00  0.00    -0.270 OA
ATOM      5  N   UNL     1      -0.992  -8.754   0.372  0.00  0.00    -0.177 NA
ATOM      6  H   UNL     1      -1.979  -8.581   3.415  0.00  0.00    +0.127 HD
ATOM      7  H   UNL     1      -0.091  -9.055   0.031  0.00  0.00    +0.156 HD
ENDROOT
BRANCH   3   8
ATOM      8  C   UNL     1      -3.749 -10.367   2.021  0.00  0.00    +0.262 C 
ATOM      9  O   UNL     1      -4.430 -10.490   1.025  0.00  0.00    -0.271 OA
ATOM     10  N   UNL     1      -4.286 -10.595   3.236  0.00  0.00    -0.295 N 
ATOM     11  C   UNL     1      -3.475 -10.443   4.452  0.00  0.00    +0.127 C 
ATOM     12  C   UNL     1      -4.181  -9.459   5.393  0.00  0.00    +0.127 C 
ATOM     13  N   UNL     1      -5.588  -9.862   5.525  0.00  0.00    -0.297 N 
ATOM     14  C   UNL     1      -6.399 -10.014   4.309  0.00  0.00    +0.127 C 
ATOM     15  C   UNL     1      -5.695 -10.993   3.369  0.00  0.00    +0.127 C 
ATOM     16  C   UNL     1      -6.125 -10.090   6.740  0.00  0.00    +0.242 C 
ATOM     17  O   UNL     1      -5.445  -9.962   7.737  0.00  0.00    -0.273 OA
BRANCH  16  18
ATOM     18  C   UNL     1      -7.569 -10.503   6.861  0.00  0.00    +0.190 C 
ATOM     19  C   UNL     1      -8.469  -9.413   6.325  0.00  0.00    +0.016 C 
ATOM     20  C   UNL     1      -9.248  -9.027   7.362  0.00  0.00    -0.004 A 
ATOM     21  C   UNL     1     -10.310  -8.021   7.487  0.00  0.00    +0.010 A 
ATOM     22  C   UNL     1     -10.921  -7.858   8.682  0.00  0.00    +0.001 A 
ATOM     23  C   UNL     1     -10.567  -8.624   9.802  0.00  0.00    +0.002 A 
ATOM     24  C   UNL     1      -9.601  -9.566   9.764  0.00  0.00    +0.026 A 
ATOM     25  C   UNL     1      -8.892  -9.822   8.558  0.00  0.00    +0.043 A 
ATOM     26  N   UNL     1      -7.931 -10.669   8.273  0.00  0.00    -0.370 N 
ATOM     27  H   UNL     1      -7.528 -11.299   8.891  0.00  0.00    +0.161 HD
ENDBRANCH  16  18
ENDBRANCH   3   8
BRANCH   1  31
ATOM     28  C   UNL     1      -0.748  -3.881   1.414  0.00  0.00    +0.013 A 
ATOM     29  C   UNL     1      -0.183  -4.661   0.422  0.00  0.00    +0.022 A 
ATOM     30  C   UNL     1      -0.223  -6.039   0.520  0.00  0.00    +0.008 A 
ATOM     31  C   UNL     1      -0.828  -6.638   1.609  0.00  0.00    -0.014 A 
ATOM     32  C   UNL     1      -1.393  -5.857   2.601  0.00  0.00    +0.008 A 
ATOM     33  C   UNL     1      -1.349  -4.479   2.505  0.00  0.00    +0.022 A 
BRANCH  28  38
ATOM     34  C   UNL     1      -0.019   1.526   0.010  0.00  0.00    +0.007 C 
ATOM     35  C   UNL     1       0.002  -0.004   0.002  0.00  0.00    -0.011 C 
ATOM     36  C   UNL     1      -1.434  -0.536   0.023  0.00  0.00    +0.020 C 
ATOM     37  C   UNL     1      -1.405  -2.064   0.095  0.00  0.00    +0.085 C 
ATOM     38  N   UNL     1      -0.707  -2.487   1.315  0.00  0.00    -0.393 NA
ATOM     39  C   UNL     1       0.691  -2.042   1.269  0.00  0.00    +0.085 C 
ATOM     40  C   UNL     1       0.743  -0.513   1.242  0.00  0.00    +0.020 C 
ATOM     41  H   UNL     1      -1.162  -2.082   2.119  0.00  0.00    +0.126 HD
ENDBRANCH  28  38
ENDBRANCH   1  31
TORSDOF 4
