REMARK  Name = ZINC17093447
REMARK  6 active torsions:
REMARK  status: ('A' for Active; 'I' for Inactive)
REMARK    1  A    between atoms: C_1  and  N_2
REMARK    2  A    between atoms: N_7  and  C_8
REMARK    3  A    between atoms: C_8  and  N_10
REMARK    4  A    between atoms: C_11  and  C_13
REMARK    5  A    between atoms: C_14  and  C_15
REMARK    6  A    between atoms: C_18  and  C_20
REMARK                            x       y       z     vdW  Elec       q    Type
REMARK                         _______ _______ _______ _____ _____    ______ ____
ROOT
ATOM      1  C   UNL     1       0.104  -7.947  -1.772  0.00  0.00    +0.071 C 
ATOM      2  C   UNL     1       0.124  -9.164  -1.166  0.00  0.00    +0.051 C 
ENDROOT
BRANCH   2   3
ATOM      3  C   UNL     1       0.137 -10.342  -1.946  0.00  0.00    +0.129 A 
ATOM      4  C   UNL     1       0.151 -11.636  -1.460  0.00  0.00    +0.050 A 
ATOM      5  C   UNL     1       0.160 -12.484  -2.570  0.00  0.00    +0.050 A 
ATOM      6  C   UNL     1       0.151 -11.683  -3.689  0.00  0.00    +0.137 A 
ATOM      7  O   UNL     1       0.131 -10.397  -3.295  0.00  0.00    -0.455 OA
BRANCH   6   8
ATOM      8  C   UNL     1       0.156 -12.155  -5.087  0.00  0.00    +0.036 A 
ATOM      9  C   UNL     1       1.089 -13.109  -5.502  0.00  0.00    +0.014 A 
ATOM     10  C   UNL     1       1.089 -13.546  -6.809  0.00  0.00    +0.021 A 
ATOM     11  C   UNL     1       0.166 -13.042  -7.712  0.00  0.00    +0.042 A 
ATOM     12  C   UNL     1      -0.761 -12.096  -7.309  0.00  0.00    +0.040 A 
ATOM     13  C   UNL     1      -0.776 -11.655  -6.001  0.00  0.00    +0.053 A 
ATOM     14 CL   UNL     1      -1.944 -10.475  -5.494  0.00  0.00    -0.083 Cl
ATOM     15 CL   UNL     1       0.174 -13.598  -9.356  0.00  0.00    -0.083 Cl
ENDBRANCH   6   8
ENDBRANCH   2   3
BRANCH   1  17
ATOM     16  N   UNL     1       0.072  -5.564  -1.593  0.00  0.00    -0.264 N 
ATOM     17  C   UNL     1       0.091  -6.770  -0.992  0.00  0.00    +0.242 C 
ATOM     18  O   UNL     1       0.098  -6.845   0.224  0.00  0.00    -0.270 OA
ATOM     19  H   UNL     1       0.067  -5.504  -2.561  0.00  0.00    +0.157 HD
BRANCH  16  20
ATOM     20  C   UNL     1       0.060  -4.440  -0.848  0.00  0.00    +0.143 C 
ATOM     21  S   UNL     1       0.069  -4.545   0.860  0.00  0.00    -0.018 S 
BRANCH  20  28
ATOM     22  C   UNL     1      -0.018   1.461   0.010  0.00  0.00    +0.199 C 
ATOM     23  N   UNL     1       0.002  -0.004   0.002  0.00  0.00    -0.165 N 
ATOM     24  N   UNL     1       0.008  -0.833  -1.132  0.00  0.00    -0.115 NA
ATOM     25  C   UNL     1       0.028  -2.068  -0.677  0.00  0.00    +0.261 A 
ATOM     26  N   UNL     1       0.033  -2.005   0.655  0.00  0.00    -0.092 NA
ATOM     27  N   UNL     1       0.023  -0.776   1.035  0.00  0.00    -0.045 NA
ATOM     28  N   UNL     1       0.040  -3.234  -1.449  0.00  0.00    -0.263 N 
ATOM     29  H   UNL     1       0.035  -3.174  -2.417  0.00  0.00    +0.157 HD
ENDBRANCH  20  28
ENDBRANCH  16  20
ENDBRANCH   1  17
TORSDOF 5
