REMARK  Name = ZINC16044352
REMARK  5 active torsions:
REMARK  status: ('A' for Active; 'I' for Inactive)
REMARK    1  A    between atoms: C_4  and  N_19
REMARK    2  A    between atoms: C_5  and  C_7
REMARK    3  A    between atoms: N_9  and  C_10
REMARK    4  A    between atoms: C_20  and  C_22
REMARK    5  A    between atoms: C_22  and  C_23
REMARK                            x       y       z     vdW  Elec       q    Type
REMARK                         _______ _______ _______ _____ _____    ______ ____
ROOT
ATOM      1  C   UNL     1      -2.560   3.961  -0.096  0.00  0.00    +0.001 A 
ATOM      2  C   UNL     1      -3.521   3.274   0.629  0.00  0.00    +0.002 A 
ATOM      3  C   UNL     1      -3.474   1.898   0.723  0.00  0.00    +0.024 A 
ATOM      4  C   UNL     1      -2.460   1.191   0.090  0.00  0.00    +0.046 A 
ATOM      5  C   UNL     1      -1.486   1.883  -0.644  0.00  0.00    +0.058 A 
ATOM      6  C   UNL     1      -1.543   3.277  -0.726  0.00  0.00    +0.015 A 
ENDROOT
BRANCH   5   7
ATOM      7  C   UNL     1      -0.403   1.145  -1.320  0.00  0.00    +0.250 C 
ATOM      8  O   UNL     1      -0.406  -0.071  -1.324  0.00  0.00    -0.270 OA
ATOM      9  N   UNL     1       0.588   1.817  -1.939  0.00  0.00    -0.281 N 
ATOM     10  H   UNL     1       0.554   2.785  -1.996  0.00  0.00    +0.155 HD
BRANCH   9  11
ATOM     11  C   UNL     1       1.664   1.119  -2.500  0.00  0.00    +0.037 A 
ATOM     12  C   UNL     1       2.937   1.673  -2.479  0.00  0.00    +0.027 A 
ATOM     13  C   UNL     1       4.001   0.983  -3.029  0.00  0.00    +0.051 A 
ATOM     14  C   UNL     1       3.799  -0.258  -3.610  0.00  0.00    +0.166 A 
ATOM     15  C   UNL     1       2.522  -0.814  -3.637  0.00  0.00    +0.168 A 
ATOM     16  C   UNL     1       1.457  -0.124  -3.082  0.00  0.00    +0.072 A 
ATOM     17  O   UNL     1       2.588  -2.028  -4.258  0.00  0.00    -0.453 OA
ATOM     18  C   UNL     1       3.838  -2.028  -4.972  0.00  0.00    +0.466 C 
ATOM     19  O   UNL     1       4.665  -1.125  -4.214  0.00  0.00    -0.453 OA
ENDBRANCH   9  11
ENDBRANCH   5   7
BRANCH   4  20
ATOM     20  N   UNL     1      -2.411  -0.198   0.184  0.00  0.00    -0.285 N 
ATOM     21  C   UNL     1      -3.538  -0.898   0.420  0.00  0.00    +0.222 C 
ATOM     22  O   UNL     1      -4.609  -0.330   0.448  0.00  0.00    -0.275 OA
ATOM     23  H   UNL     1      -1.565  -0.661   0.081  0.00  0.00    +0.155 HD
BRANCH  21  24
ATOM     24  C   UNL     1      -3.467  -2.386   0.647  0.00  0.00    +0.135 C 
BRANCH  24  25
ATOM     25  C   UNL     1      -4.854  -2.924   0.885  0.00  0.00    +0.007 A 
ATOM     26  C   UNL     1      -5.443  -3.137   2.070  0.00  0.00    +0.200 A 
ATOM     27  O   UNL     1      -6.684  -3.620   1.891  0.00  0.00    -0.463 OA
ATOM     28  C   UNL     1      -6.963  -3.755   0.579  0.00  0.00    +0.135 A 
ATOM     29  C   UNL     1      -5.831  -3.326  -0.134  0.00  0.00    +0.024 A 
ATOM     30  C   UNL     1      -5.832  -3.355  -1.526  0.00  0.00    +0.015 A 
ATOM     31  C   UNL     1      -6.946  -3.805  -2.204  0.00  0.00    -0.043 A 
ATOM     32  C   UNL     1      -8.065  -4.229  -1.501  0.00  0.00    -0.041 A 
ATOM     33  C   UNL     1      -8.074  -4.205  -0.120  0.00  0.00    +0.050 A 
ATOM     34  C   UNL     1      -9.140  -4.669  -2.474  0.00  0.00    +0.036 C 
ATOM     35  C   UNL     1      -8.407  -4.885  -3.816  0.00  0.00    +0.009 C 
ATOM     36  C   UNL     1      -7.198  -3.934  -3.691  0.00  0.00    +0.036 C 
ENDBRANCH  24  25
ENDBRANCH  21  24
ENDBRANCH   4  20
TORSDOF 5
