REMARK  Name = ZINC34707894
REMARK  3 active torsions:
REMARK  status: ('A' for Active; 'I' for Inactive)
REMARK    1  A    between atoms: C_3  and  C_6
REMARK    2  A    between atoms: N_23  and  C_26
REMARK    3  A    between atoms: C_26  and  C_27
REMARK                            x       y       z     vdW  Elec       q    Type
REMARK                         _______ _______ _______ _____ _____    ______ ____
ROOT
ATOM      1  C   UNL     1       4.963  -0.096  -1.730  0.00  0.00    +0.178 A 
ATOM      2  N   UNL     1       5.724   0.551  -2.592  0.00  0.00    -0.128 NA
ATOM      3  N   UNL     1       6.638   1.209  -1.969  0.00  0.00    -0.128 NA
ATOM      4  C   UNL     1       6.519   1.025  -0.676  0.00  0.00    +0.173 A 
ATOM      5  N   UNL     1       5.441   0.189  -0.477  0.00  0.00    -0.246 N 
ATOM      6  C   UNL     1       5.077  -0.173   0.791  0.00  0.00    +0.206 A 
ATOM      7  N   UNL     1       5.712   0.245   1.855  0.00  0.00    -0.215 NA
ATOM      8  C   UNL     1       6.784   1.072   1.778  0.00  0.00    +0.079 A 
ATOM      9  C   UNL     1       7.243   1.497   0.510  0.00  0.00    +0.045 A 
ATOM     10  C   UNL     1       8.342   2.348   0.414  0.00  0.00    +0.015 A 
ATOM     11  C   UNL     1       8.986   2.760   1.561  0.00  0.00    +0.021 A 
ATOM     12  C   UNL     1       8.547   2.334   2.808  0.00  0.00    +0.043 A 
ATOM     13  C   UNL     1       7.449   1.508   2.925  0.00  0.00    +0.048 A 
ATOM     14 CL   UNL     1       9.375   2.868   4.237  0.00  0.00    -0.083 Cl
ATOM     15  N   UNL     1       3.999  -1.010   0.953  0.00  0.00    -0.304 N 
ATOM     16  C   UNL     1       2.650  -0.594   0.540  0.00  0.00    +0.089 C 
ATOM     17  C   UNL     1       2.047  -1.700  -0.332  0.00  0.00    -0.059 C 
ATOM     18  N   UNL     1       2.093  -2.975   0.395  0.00  0.00    +0.384 N 
ATOM     19  C   UNL     1       3.488  -3.370   0.625  0.00  0.00    -0.059 C 
ATOM     20  C   UNL     1       4.163  -2.349   1.539  0.00  0.00    +0.089 C 
ATOM     21  H   UNL     1       1.623  -2.872   1.282  0.00  0.00    -0.081 HD
ENDROOT
BRANCH   1  24
ATOM     22  C   UNL     1       1.604  -1.592  -2.626  0.00  0.00    +0.008 A 
ATOM     23  C   UNL     1       2.514  -0.595  -2.356  0.00  0.00    +0.019 A 
ATOM     24  C   UNL     1       3.814  -0.955  -2.053  0.00  0.00    +0.057 A 
ATOM     25  S   UNL     1       3.733  -2.736  -2.155  0.00  0.00    -0.094 S 
ATOM     26  C   UNL     1       2.008  -2.888  -2.587  0.00  0.00    +0.046 A 
ENDBRANCH   1  24
BRANCH  18  27
ATOM     27  C   UNL     1       1.416  -4.012  -0.396  0.00  0.00    -0.040 C 
BRANCH  27  28
ATOM     28  C   UNL     1       1.354  -5.290   0.400  0.00  0.00    -0.026 A 
ATOM     29  C   UNL     1       2.267  -6.299   0.159  0.00  0.00    +0.043 A 
ATOM     30  C   UNL     1       2.210  -7.473   0.891  0.00  0.00    +0.124 A 
ATOM     31  C   UNL     1       1.238  -7.636   1.863  0.00  0.00    +0.041 A 
ATOM     32  C   UNL     1       0.325  -6.627   2.104  0.00  0.00    +0.041 A 
ATOM     33  C   UNL     1       0.385  -5.451   1.375  0.00  0.00    +0.125 A 
ATOM     34  F   UNL     1      -0.504  -4.463   1.614  0.00  0.00    -0.205 F 
ATOM     35  F   UNL     1       3.102  -8.460   0.655  0.00  0.00    -0.205 F 
ENDBRANCH  27  28
ENDBRANCH  18  27
TORSDOF 3
