REMARK  Name = ZINC09355288
REMARK  10 active torsions:
REMARK  status: ('A' for Active; 'I' for Inactive)
REMARK    1  A    between atoms: C_1  and  C_2
REMARK    2  A    between atoms: C_5  and  O_11
REMARK    3  A    between atoms: C_6  and  N_8
REMARK    4  A    between atoms: O_11  and  C_12
REMARK    5  A    between atoms: C_12  and  C_13
REMARK    6  A    between atoms: N_15  and  N_16
REMARK    7  A    between atoms: C_17  and  C_18
REMARK    8  A    between atoms: C_20  and  N_25
REMARK    9  A    between atoms: C_23  and  O_24
REMARK   10  A    between atoms: N_26  and  C_27
REMARK                            x       y       z     vdW  Elec       q    Type
REMARK                         _______ _______ _______ _____ _____    ______ ____
ROOT
ATOM      1  N   UNL     1       0.105  -8.471  -2.006  0.00  0.00    -0.188 NA
ATOM      2  C   UNL     1       0.110  -9.256  -3.039  0.00  0.00    +0.142 C 
ENDROOT
BRANCH   2   3
ATOM      3  C   UNL     1       0.131 -10.718  -2.854  0.00  0.00    +0.038 A 
ATOM      4  C   UNL     1       0.142 -11.562  -3.962  0.00  0.00    +0.042 A 
ATOM      5  C   UNL     1       0.162 -12.945  -3.777  0.00  0.00    +0.087 A 
ATOM      6  C   UNL     1       0.170 -13.478  -2.483  0.00  0.00    +0.033 A 
ATOM      7  C   UNL     1       0.159 -12.641  -1.389  0.00  0.00    +0.048 A 
ATOM      8  C   UNL     1       0.145 -11.264  -1.561  0.00  0.00    +0.126 A 
BRANCH   8   9
ATOM      9  O   UNL     1       0.139 -10.445  -0.479  0.00  0.00    -0.506 OA
ATOM     10  H   UNL     1      -0.746 -10.219  -0.161  0.00  0.00    +0.292 HD
ENDBRANCH   8   9
BRANCH   5  11
ATOM     11  N   UNL     1       0.172 -13.779  -4.859  0.00  0.00    -0.149 NA
ATOM     12  N   UNL     1       0.190 -15.057  -4.688  0.00  0.00    -0.149 NA
BRANCH  12  13
ATOM     13  C   UNL     1       0.201 -15.892  -5.771  0.00  0.00    +0.087 A 
ATOM     14  C   UNL     1       0.198 -15.363  -7.065  0.00  0.00    +0.029 A 
ATOM     15  C   UNL     1       0.209 -16.210  -8.152  0.00  0.00    +0.003 A 
ATOM     16  C   UNL     1       0.222 -17.582  -7.966  0.00  0.00    +0.015 A 
ATOM     17  C   UNL     1       0.225 -18.113  -6.688  0.00  0.00    +0.020 A 
ATOM     18  C   UNL     1       0.221 -17.277  -5.589  0.00  0.00    +0.044 A 
ATOM     19 BR   UNL     1       0.242 -19.988  -6.445  0.00  0.00    -0.050 Br
ENDBRANCH  12  13
ENDBRANCH   5  11
ENDBRANCH   2   3
BRANCH   1  22
ATOM     20  C   UNL     1       0.081  -6.266  -1.108  0.00  0.00    +0.270 C 
ATOM     21  O   UNL     1       0.093  -6.736   0.010  0.00  0.00    -0.270 OA
ATOM     22  N   UNL     1       0.086  -7.081  -2.182  0.00  0.00    -0.204 N 
ATOM     23  H   UNL     1       0.076  -6.705  -3.076  0.00  0.00    +0.177 HD
BRANCH  20  24
ATOM     24  C   UNL     1       0.060  -4.771  -1.298  0.00  0.00    +0.326 C 
BRANCH  24  25
ATOM     25  O   UNL     1       0.058  -4.129  -0.021  0.00  0.00    -0.480 OA
BRANCH  25  30
ATOM     26  C   UNL     1      -0.018   1.503   0.010  0.00  0.00    +0.044 C 
ATOM     27  C   UNL     1       0.002  -0.004   0.002  0.00  0.00    -0.048 A 
ATOM     28  C   UNL     1       0.006  -0.688  -1.200  0.00  0.00    +0.007 A 
ATOM     29  C   UNL     1       0.025  -2.069  -1.210  0.00  0.00    +0.048 A 
ATOM     30  C   UNL     1       0.040  -2.770  -0.013  0.00  0.00    +0.151 A 
ATOM     31  C   UNL     1       0.037  -2.082   1.191  0.00  0.00    +0.168 A 
ATOM     32  C   UNL     1       0.023  -0.701   1.196  0.00  0.00    +0.039 A 
BRANCH  31  33
ATOM     33  N   UNL     1       0.053  -2.827   2.470  0.00  0.00    +0.060 N 
ATOM     34  O   UNL     1       0.050  -2.227   3.519  0.00  0.00    -0.126 OA
ATOM     35  O   UNL     1       0.069  -4.036   2.465  0.00  0.00    -0.126 OA
ENDBRANCH  31  33
ENDBRANCH  25  30
ENDBRANCH  24  25
ENDBRANCH  20  24
ENDBRANCH   1  22
TORSDOF 9
