REMARK  Name = ZINC36312921
REMARK  13 active torsions:
REMARK  status: ('A' for Active; 'I' for Inactive)
REMARK    1  A    between atoms: C_1  and  C_2
REMARK    2  A    between atoms: C_5  and  S_8
REMARK    3  A    between atoms: S_8  and  N_11
REMARK    4  A    between atoms: N_11  and  C_12
REMARK    5  A    between atoms: N_11  and  C_17
REMARK    6  A    between atoms: C_12  and  C_13
REMARK    7  A    between atoms: C_13  and  C_14
REMARK    8  A    between atoms: C_14  and  O_15
REMARK    9  A    between atoms: O_15  and  C_16
REMARK   10  A    between atoms: C_17  and  C_18
REMARK   11  A    between atoms: C_19  and  C_30
REMARK   12  A    between atoms: C_22  and  N_23
REMARK   13  A    between atoms: N_26  and  C_29
REMARK                            x       y       z     vdW  Elec       q    Type
REMARK                         _______ _______ _______ _____ _____    ______ ____
ROOT
ATOM      1  C   UNL     1       3.016  -4.392  -2.002  0.00  0.00    +0.057 A 
ATOM      2  C   UNL     1       2.428  -3.540  -2.960  0.00  0.00    +0.120 A 
ATOM      3  N   UNL     1       3.346  -2.692  -3.365  0.00  0.00    -0.076 NA
ATOM      4  O   UNL     1       4.547  -2.984  -2.674  0.00  0.00    -0.339 OA
ATOM      5  C   UNL     1       4.312  -4.019  -1.849  0.00  0.00    +0.225 A 
ENDROOT
BRANCH   5   6
ATOM      6  N   UNL     1       5.230  -4.603  -0.996  0.00  0.00    -0.303 N 
ATOM      7  C   UNL     1       5.936  -5.837  -1.374  0.00  0.00    +0.089 C 
ATOM      8  C   UNL     1       7.437  -5.625  -1.154  0.00  0.00    -0.060 C 
ATOM      9  N   UNL     1       7.672  -5.193   0.229  0.00  0.00    +0.380 N 
ATOM     10  C   UNL     1       7.051  -3.882   0.456  0.00  0.00    -0.060 C 
ATOM     11  C   UNL     1       5.534  -4.004   0.313  0.00  0.00    +0.089 C 
ATOM     12  C   UNL     1       9.117  -5.096   0.472  0.00  0.00    -0.096 C 
ATOM     13  H   UNL     1       7.271  -5.868   0.864  0.00  0.00    -0.082 HD
ENDBRANCH   5   6
BRANCH   2  14
ATOM     14  C   UNL     1       1.021  -3.592  -3.428  0.00  0.00    +0.004 A 
ATOM     15  C   UNL     1       0.438  -4.814  -3.754  0.00  0.00    +0.013 A 
ATOM     16  C   UNL     1      -0.871  -4.859  -4.189  0.00  0.00    +0.039 A 
ATOM     17  C   UNL     1      -1.605  -3.689  -4.301  0.00  0.00    +0.123 A 
ATOM     18  C   UNL     1      -1.029  -2.471  -3.979  0.00  0.00    +0.039 A 
ATOM     19  C   UNL     1       0.277  -2.418  -3.538  0.00  0.00    +0.013 A 
ATOM     20  F   UNL     1      -2.887  -3.736  -4.727  0.00  0.00    -0.205 F 
ENDBRANCH   2  14
BRANCH   1  21
ATOM     21  C   UNL     1       2.325  -5.515  -1.273  0.00  0.00    +0.152 C 
BRANCH  21  22
ATOM     22  N   UNL     1       1.883  -5.045   0.042  0.00  0.00    -0.172 NA
BRANCH  22  23
ATOM     23  S   UNL     1       2.567  -5.664   1.417  0.00  0.00    +0.061 S 
ATOM     24  O   UNL     1       2.540  -4.626   2.387  0.00  0.00    -0.153 OA
ATOM     25  O   UNL     1       3.773  -6.302   1.018  0.00  0.00    -0.153 OA
BRANCH  23  30
ATOM     26  C   UNL     1      -1.098 -10.011   3.436  0.00  0.00    +0.044 C 
ATOM     27  C   UNL     1      -0.182  -8.925   2.931  0.00  0.00    -0.050 A 
ATOM     28  C   UNL     1       0.762  -9.212   1.964  0.00  0.00    +0.005 A 
ATOM     29  C   UNL     1       1.602  -8.216   1.501  0.00  0.00    +0.029 A 
ATOM     30  C   UNL     1       1.496  -6.933   2.006  0.00  0.00    +0.106 A 
ATOM     31  C   UNL     1       0.551  -6.646   2.972  0.00  0.00    +0.029 A 
ATOM     32  C   UNL     1      -0.292  -7.641   3.432  0.00  0.00    +0.005 A 
ENDBRANCH  23  30
ENDBRANCH  22  23
BRANCH  22  33
ATOM     33  C   UNL     1       0.835  -4.026   0.141  0.00  0.00    +0.112 C 
BRANCH  33  34
ATOM     34  C   UNL     1       1.469  -2.634   0.078  0.00  0.00    +0.045 C 
BRANCH  34  35
ATOM     35  C   UNL     1       0.374  -1.570   0.181  0.00  0.00    +0.161 C 
BRANCH  35  36
ATOM     36  O   UNL     1       0.966  -0.271   0.122  0.00  0.00    -0.383 OA
ATOM     37  C   UNL     1       0.025   0.801   0.210  0.00  0.00    +0.193 C 
ENDBRANCH  35  36
ENDBRANCH  34  35
ENDBRANCH  33  34
ENDBRANCH  22  33
ENDBRANCH  21  22
ENDBRANCH   1  21
TORSDOF 10
