REMARK  Name = ZINC61729505
REMARK  12 active torsions:
REMARK  status: ('A' for Active; 'I' for Inactive)
REMARK    1  A    between atoms: C_1  and  N_2
REMARK    2  A    between atoms: C_3  and  C_22
REMARK    3  A    between atoms: C_6  and  S_7
REMARK    4  A    between atoms: S_7  and  C_8
REMARK    5  A    between atoms: C_8  and  C_9
REMARK    6  A    between atoms: C_9  and  C_10
REMARK    7  A    between atoms: C_9  and  O_21
REMARK    8  A    between atoms: C_10  and  O_11
REMARK    9  A    between atoms: O_11  and  C_12
REMARK   10  A    between atoms: C_12  and  C_13
REMARK   11  A    between atoms: C_18  and  O_19
REMARK   12  A    between atoms: O_19  and  C_20
REMARK                            x       y       z     vdW  Elec       q    Type
REMARK                         _______ _______ _______ _____ _____    ______ ____
ROOT
ATOM      1  C   UNL     1       0.074  -1.631   5.193  0.00  0.00    +0.150 C 
ENDROOT
BRANCH   1   2
ATOM      2  O   UNL     1       1.234  -0.865   5.525  0.00  0.00    -0.389 OA
ATOM      3  H   UNL     1       2.069  -1.302   5.312  0.00  0.00    +0.210 HD
ENDBRANCH   1   2
BRANCH   1   4
ATOM      4  C   UNL     1       0.064  -1.915   3.689  0.00  0.00    +0.111 C 
BRANCH   4   5
ATOM      5  S   UNL     1       0.033  -0.346   2.779  0.00  0.00    -0.083 S 
BRANCH   5  11
ATOM      6  C   UNL     1      -0.018   1.461   0.010  0.00  0.00    +0.153 C 
ATOM      7  N   UNL     1       0.002  -0.004   0.002  0.00  0.00    -0.303 N 
ATOM      8  C   UNL     1       0.009  -0.831  -1.100  0.00  0.00    +0.200 A 
ATOM      9  N   UNL     1       0.028  -2.067  -0.653  0.00  0.00    -0.125 NA
ATOM     10  N   UNL     1       0.034  -2.069   0.632  0.00  0.00    -0.122 NA
ATOM     11  C   UNL     1       0.024  -0.836   1.086  0.00  0.00    +0.192 A 
BRANCH   8  12
ATOM     12  C   UNL     1      -0.005  -0.410  -2.510  0.00  0.00    +0.172 A 
ATOM     13  C   UNL     1       0.281  -1.199  -3.583  0.00  0.00    +0.053 A 
ATOM     14  C   UNL     1       0.145  -0.391  -4.728  0.00  0.00    +0.042 A 
ATOM     15  C   UNL     1      -0.213   0.838  -4.305  0.00  0.00    +0.196 A 
ATOM     16  O   UNL     1      -0.308   0.822  -2.965  0.00  0.00    -0.460 OA
ENDBRANCH   8  12
ENDBRANCH   5  11
ENDBRANCH   4   5
ENDBRANCH   1   4
BRANCH   1  17
ATOM     17  C   UNL     1       0.101  -2.954   5.961  0.00  0.00    +0.192 C 
BRANCH  17  18
ATOM     18  O   UNL     1      -0.007  -2.694   7.362  0.00  0.00    -0.373 OA
BRANCH  18  19
ATOM     19  C   UNL     1       0.007  -3.869   8.174  0.00  0.00    +0.198 C 
BRANCH  19  20
ATOM     20  C   UNL     1      -0.111  -3.479   9.625  0.00  0.00    +0.020 A 
ATOM     21  C   UNL     1      -0.218  -2.147   9.976  0.00  0.00    +0.009 A 
ATOM     22  C   UNL     1      -0.326  -1.788  11.307  0.00  0.00    +0.001 A 
ATOM     23  C   UNL     1      -0.329  -2.761  12.290  0.00  0.00    +0.004 A 
ATOM     24  C   UNL     1      -0.223  -4.094  11.944  0.00  0.00    +0.046 A 
ATOM     25  C   UNL     1      -0.120  -4.457  10.609  0.00  0.00    +0.125 A 
BRANCH  25  26
ATOM     26  O   UNL     1      -0.021  -5.768  10.266  0.00  0.00    -0.495 OA
ATOM     27  C   UNL     1      -0.037  -6.721  11.331  0.00  0.00    +0.277 C 
ENDBRANCH  25  26
ENDBRANCH  19  20
ENDBRANCH  18  19
ENDBRANCH  17  18
ENDBRANCH   1  17
TORSDOF 10
