REMARK  Name = ZINC20527644
REMARK  11 active torsions:
REMARK  status: ('A' for Active; 'I' for Inactive)
REMARK    1  A    between atoms: C_1  and  N_2
REMARK    2  A    between atoms: N_2  and  C_3
REMARK    3  A    between atoms: N_2  and  C_4
REMARK    4  A    between atoms: C_7  and  C_10
REMARK    5  A    between atoms: N_11  and  N_12
REMARK    6  A    between atoms: C_16  and  S_19
REMARK    7  A    between atoms: N_17  and  N_18
REMARK    8  A    between atoms: S_19  and  C_20
REMARK    9  A    between atoms: C_20  and  C_21
REMARK   10  A    between atoms: N_23  and  C_24
REMARK   11  A    between atoms: C_25  and  C_33
REMARK                            x       y       z     vdW  Elec       q    Type
REMARK                         _______ _______ _______ _____ _____    ______ ____
ROOT
ATOM      1  N   UNL     1      -4.393  13.133  -7.410  0.00  0.00    -0.204 N 
ATOM      2  C   UNL     1      -3.993  12.235  -6.431  0.00  0.00    +0.254 A 
ATOM      3  N   UNL     1      -3.785  12.515  -5.168  0.00  0.00    -0.109 NA
ATOM      4  N   UNL     1      -3.400  11.334  -4.520  0.00  0.00    -0.119 NA
ATOM      5  C   UNL     1      -3.378  10.372  -5.412  0.00  0.00    +0.210 A 
ATOM      6  N   UNL     1      -3.747  10.903  -6.615  0.00  0.00    -0.211 N 
ATOM      7  H   UNL     1      -4.539  12.789  -8.445  0.00  0.00    +0.177 HD
ENDROOT
BRANCH   6   8
ATOM      8  N   UNL     1      -3.851  10.222  -7.795  0.00  0.00    -0.294 N 
ATOM      9  H   UNL     1      -3.628   9.145  -7.830  0.00  0.00    +0.163 HD
ATOM     10  H   UNL     1      -4.157  10.751  -8.710  0.00  0.00    +0.163 HD
ENDBRANCH   6   8
BRANCH   1  12
ATOM     11  C   UNL     1      -4.986  15.317  -7.998  0.00  0.00    +0.138 C 
ATOM     12  N   UNL     1      -4.611  14.477  -7.081  0.00  0.00    -0.188 NA
BRANCH  11  16
ATOM     13  C   UNL     1      -5.647  19.391  -7.000  0.00  0.00    +0.029 A 
ATOM     14  C   UNL     1      -5.832  18.959  -8.309  0.00  0.00    +0.024 A 
ATOM     15  C   UNL     1      -5.618  17.638  -8.636  0.00  0.00    +0.011 A 
ATOM     16  C   UNL     1      -5.215  16.732  -7.651  0.00  0.00    -0.005 A 
ATOM     17  C   UNL     1      -5.035  17.169  -6.336  0.00  0.00    +0.011 A 
ATOM     18  C   UNL     1      -5.246  18.492  -6.017  0.00  0.00    +0.024 A 
BRANCH  13  20
ATOM     19  C   UNL     1      -6.165  21.703  -7.725  0.00  0.00    +0.129 C 
ATOM     20  N   UNL     1      -5.865  20.730  -6.672  0.00  0.00    -0.336 N 
ATOM     21  C   UNL     1      -5.794  21.162  -5.274  0.00  0.00    +0.129 C 
ENDBRANCH  13  20
ENDBRANCH  11  16
ENDBRANCH   1  12
BRANCH   5  22
ATOM     22  S   UNL     1      -2.954   8.688  -5.109  0.00  0.00    -0.075 S 
BRANCH  22  23
ATOM     23  C   UNL     1      -2.568   8.645  -3.337  0.00  0.00    +0.173 C 
BRANCH  23  24
ATOM     24  C   UNL     1      -2.185   7.243  -2.940  0.00  0.00    +0.228 C 
ATOM     25  O   UNL     1      -2.172   6.359  -3.771  0.00  0.00    -0.275 OA
ATOM     26  N   UNL     1      -1.855   6.970  -1.662  0.00  0.00    -0.278 N 
ATOM     27  H   UNL     1      -1.866   7.771  -0.908  0.00  0.00    +0.155 HD
BRANCH  26  28
ATOM     28  C   UNL     1      -1.502   5.678  -1.297  0.00  0.00    +0.090 A 
ATOM     29  C   UNL     1      -1.135   5.207  -0.045  0.00  0.00    +0.084 A 
ATOM     30  C   UNL     1      -0.809   3.796   0.072  0.00  0.00    -0.018 A 
ATOM     31  C   UNL     1      -0.900   3.087  -1.075  0.00  0.00    -0.004 A 
ATOM     32  S   UNL     1      -1.411   4.264  -2.294  0.00  0.00    -0.077 S 
ATOM     33  C   UNL     1      -0.626   1.626  -1.258  0.00  0.00    +0.043 C 
ATOM     34  C   UNL     1       0.138   1.120  -0.026  0.00  0.00    +0.005 C 
ATOM     35  C   UNL     1      -0.571   1.616   1.237  0.00  0.00    +0.005 C 
ATOM     36  C   UNL     1      -0.391   3.128   1.376  0.00  0.00    +0.037 C 
BRANCH  29  37
ATOM     37  C   UNL     1      -1.081   6.078   1.090  0.00  0.00    +0.102 C 
ATOM     38  N   UNL     1      -1.038   6.769   1.990  0.00  0.00    -0.191 NA
ENDBRANCH  29  37
ENDBRANCH  26  28
ENDBRANCH  23  24
ENDBRANCH  22  23
ENDBRANCH   5  22
TORSDOF 9
