REMARK  Name = ZINC12871486
REMARK  10 active torsions:
REMARK  status: ('A' for Active; 'I' for Inactive)
REMARK    1  A    between atoms: C_1  and  C_2
REMARK    2  A    between atoms: C_13  and  C_14
REMARK    3  A    between atoms: C_13  and  O_15
REMARK    4  A    between atoms: N_21  and  O_22
REMARK    5  A    between atoms: O_22  and  C_23
REMARK    6  A    between atoms: C_23  and  C_24
REMARK    7  A    between atoms: N_26  and  C_27
REMARK    8  A    between atoms: C_27  and  C_28
REMARK    9  A    between atoms: C_28  and  C_29
REMARK   10  A    between atoms: C_41  and  C_42
REMARK                            x       y       z     vdW  Elec       q    Type
REMARK                         _______ _______ _______ _____ _____    ______ ____
ROOT
ATOM      1  C   UNL     1       1.928  -4.061  -1.975  0.00  0.00    +0.014 C 
ATOM      2  C   UNL     1       1.933  -2.529  -2.214  0.00  0.00    -0.000 C 
ATOM      3  C   UNL     1       3.323  -2.061  -1.879  0.00  0.00    +0.010 C 
ATOM      4  C   UNL     1       3.457  -0.586  -1.536  0.00  0.00    +0.005 C 
ATOM      5  C   UNL     1       2.421  -0.197  -0.481  0.00  0.00    +0.006 C 
ATOM      6  C   UNL     1       1.030  -0.457  -1.047  0.00  0.00    -0.003 C 
ATOM      7  C   UNL     1       0.832  -1.948  -1.317  0.00  0.00    +0.001 C 
ATOM      8  C   UNL     1      -0.453  -2.090  -2.179  0.00  0.00    +0.007 C 
ATOM      9  C   UNL     1       0.036  -1.825  -3.619  0.00  0.00    +0.035 C 
ATOM     10  C   UNL     1       1.498  -2.319  -3.664  0.00  0.00    +0.069 C 
ATOM     11  C   UNL     1       2.363  -1.307  -4.409  0.00  0.00    +0.042 C 
ATOM     12  C   UNL     1       0.002  -0.004   0.002  0.00  0.00    +0.008 C 
ATOM     13  C   UNL     1      -0.019   1.522   0.010  0.00  0.00    +0.032 C 
ATOM     14  C   UNL     1       1.384   2.076   0.000  0.00  0.00    -0.058 C 
ATOM     15  C   UNL     1       1.487   3.411   0.062  0.00  0.00    +0.031 C 
ATOM     16  C   UNL     1       2.829   4.043  -0.012  0.00  0.00    +0.102 C 
ATOM     17  N   UNL     1       3.017   5.288   0.366  0.00  0.00    -0.085 NA
ATOM     18  C   UNL     1       3.937   3.224  -0.565  0.00  0.00    +0.027 C 
ATOM     19  C   UNL     1       3.812   1.893  -0.589  0.00  0.00    -0.014 C 
ATOM     20  C   UNL     1       2.602   1.226  -0.020  0.00  0.00    +0.011 C 
ATOM     21  C   UNL     1       2.956   1.064   1.470  0.00  0.00    +0.020 C 
ENDROOT
BRANCH  10  22
ATOM     22  O   UNL     1       1.542  -3.578  -4.358  0.00  0.00    -0.388 OA
ATOM     23  H   UNL     1       1.242  -3.531  -5.276  0.00  0.00    +0.210 HD
ENDBRANCH  10  22
BRANCH  17  24
ATOM     24  O   UNL     1       4.300   5.876   0.251  0.00  0.00    -0.384 OA
BRANCH  24  25
ATOM     25  C   UNL     1       4.359   7.232   0.699  0.00  0.00    +0.358 C 
BRANCH  25  26
ATOM     26  C   UNL     1       5.763   7.755   0.532  0.00  0.00    +0.253 C 
ATOM     27  O   UNL     1       6.627   7.037   0.074  0.00  0.00    -0.272 OA
ATOM     28  N   UNL     1       6.058   9.020   0.891  0.00  0.00    -0.312 N 
ATOM     29  H   UNL     1       5.367   9.594   1.257  0.00  0.00    +0.149 HD
BRANCH  28  30
ATOM     30  C   UNL     1       7.422   9.529   0.728  0.00  0.00    +0.109 C 
BRANCH  30  31
ATOM     31  C   UNL     1       7.486  10.980   1.208  0.00  0.00    +0.056 C 
BRANCH  31  32
ATOM     32  C   UNL     1       8.889  11.503   1.041  0.00  0.00    -0.021 A 
ATOM     33  C   UNL     1       9.848  11.531   1.980  0.00  0.00    +0.087 A 
ATOM     34  N   UNL     1      10.992  12.074   1.462  0.00  0.00    -0.360 N 
ATOM     35  H   UNL     1      11.822  12.197   1.950  0.00  0.00    +0.165 HD
ATOM     36  C   UNL     1      10.790  12.426   0.146  0.00  0.00    +0.047 A 
ATOM     37  C   UNL     1       9.463  12.084  -0.175  0.00  0.00    +0.003 A 
ATOM     38  C   UNL     1       8.973  12.328  -1.459  0.00  0.00    +0.010 A 
ATOM     39  C   UNL     1       9.785  12.900  -2.398  0.00  0.00    +0.001 A 
ATOM     40  C   UNL     1      11.094  13.239  -2.086  0.00  0.00    +0.002 A 
ATOM     41  C   UNL     1      11.598  13.007  -0.825  0.00  0.00    +0.026 A 
ENDBRANCH  31  32
ENDBRANCH  30  31
ENDBRANCH  28  30
ENDBRANCH  25  26
ENDBRANCH  24  25
ENDBRANCH  17  24
TORSDOF 7
