REMARK  Name = ZINC39962555
REMARK  7 active torsions:
REMARK  status: ('A' for Active; 'I' for Inactive)
REMARK    1  A    between atoms: C_4  and  C_7
REMARK    2  A    between atoms: C_9  and  S_12
REMARK    3  A    between atoms: S_12  and  C_13
REMARK    4  A    between atoms: C_13  and  C_14
REMARK    5  A    between atoms: N_16  and  C_17
REMARK    6  A    between atoms: C_19  and  C_28
REMARK    7  A    between atoms: N_30  and  C_31
REMARK                            x       y       z     vdW  Elec       q    Type
REMARK                         _______ _______ _______ _____ _____    ______ ____
ROOT
ATOM      1  C   UNL     1      10.544  -5.406   0.347  0.00  0.00    +0.151 C 
ATOM      2  C   UNL     1      11.524  -5.433  -0.850  0.00  0.00    +0.133 C 
ATOM      3  C   UNL     1      11.694  -6.827  -1.399  0.00  0.00    -0.046 C 
ATOM      4  C   UNL     1      10.765  -7.725  -1.094  0.00  0.00    -0.013 C 
ATOM      5  S   UNL     1       9.570  -6.918  -0.054  0.00  0.00    -0.106 S 
ATOM      6  C   UNL     1      10.718  -9.162  -1.534  0.00  0.00    +0.042 C 
ATOM      7  C   UNL     1      11.707  -9.358  -2.690  0.00  0.00    +0.005 C 
ATOM      8  C   UNL     1      13.043  -8.717  -2.299  0.00  0.00    +0.005 C 
ATOM      9  C   UNL     1      12.890  -7.197  -2.275  0.00  0.00    +0.032 C 
ENDROOT
BRANCH   1  12
ATOM     10  C   UNL     1       8.476  -4.233   0.881  0.00  0.00    +0.224 C 
ATOM     11  O   UNL     1       8.065  -5.252   1.394  0.00  0.00    -0.275 OA
ATOM     12  N   UNL     1       9.704  -4.205   0.328  0.00  0.00    -0.302 N 
ATOM     13  H   UNL     1      10.033  -3.390  -0.083  0.00  0.00    +0.150 HD
BRANCH  10  14
ATOM     14  C   UNL     1       7.613  -2.998   0.862  0.00  0.00    +0.173 C 
BRANCH  14  15
ATOM     15  S   UNL     1       6.032  -3.352   1.677  0.00  0.00    -0.075 S 
BRANCH  15  18
ATOM     16  C   UNL     1       3.624  -0.276   1.745  0.00  0.00    +0.184 A 
ATOM     17  N   UNL     1       3.892  -1.590   2.052  0.00  0.00    -0.199 NA
ATOM     18  C   UNL     1       5.148  -1.831   1.574  0.00  0.00    +0.212 A 
ATOM     19  N   UNL     1       5.576  -0.717   1.024  0.00  0.00    -0.120 NA
ATOM     20  N   UNL     1       4.677   0.196   1.119  0.00  0.00    -0.127 NA
BRANCH  16  24
ATOM     21  C   UNL     1       0.054   1.847   2.634  0.00  0.00    +0.000 A 
ATOM     22  C   UNL     1       1.087   2.485   1.971  0.00  0.00    +0.001 A 
ATOM     23  C   UNL     1       2.250   1.801   1.679  0.00  0.00    +0.011 A 
ATOM     24  C   UNL     1       2.382   0.463   2.055  0.00  0.00    +0.021 A 
ATOM     25  C   UNL     1       1.335  -0.174   2.724  0.00  0.00    +0.011 A 
ATOM     26  C   UNL     1       0.178   0.521   3.009  0.00  0.00    +0.001 A 
ENDBRANCH  16  24
ENDBRANCH  15  18
ENDBRANCH  14  15
ENDBRANCH  10  14
ENDBRANCH   1  12
BRANCH   2  27
ATOM     27  C   UNL     1      10.993  -4.539  -1.941  0.00  0.00    +0.227 C 
ATOM     28  O   UNL     1       9.878  -4.718  -2.383  0.00  0.00    -0.275 OA
ATOM     29  N   UNL     1      11.758  -3.541  -2.426  0.00  0.00    -0.285 N 
ATOM     30  H   UNL     1      12.679  -3.451  -2.137  0.00  0.00    +0.155 HD
BRANCH  29  31
ATOM     31  C   UNL     1      11.222  -2.633  -3.347  0.00  0.00    +0.033 A 
ATOM     32  C   UNL     1      10.295  -3.062  -4.287  0.00  0.00    +0.023 A 
ATOM     33  C   UNL     1       9.768  -2.164  -5.195  0.00  0.00    +0.002 A 
ATOM     34  C   UNL     1      10.164  -0.840  -5.169  0.00  0.00    +0.000 A 
ATOM     35  C   UNL     1      11.088  -0.409  -4.234  0.00  0.00    +0.002 A 
ATOM     36  C   UNL     1      11.613  -1.301  -3.320  0.00  0.00    +0.023 A 
ENDBRANCH  29  31
ENDBRANCH   2  27
TORSDOF 7
