REMARK  Name = ZINC19131995
REMARK  8 active torsions:
REMARK  status: ('A' for Active; 'I' for Inactive)
REMARK    1  A    between atoms: C_1  and  C_2
REMARK    2  A    between atoms: C_5  and  C_32
REMARK    3  A    between atoms: C_6  and  C_8
REMARK    4  A    between atoms: C_8  and  C_10
REMARK    5  A    between atoms: C_8  and  O_31
REMARK    6  A    between atoms: C_10  and  N_11
REMARK    7  A    between atoms: C_19  and  C_21
REMARK    8  A    between atoms: C_19  and  O_30
REMARK                            x       y       z     vdW  Elec       q    Type
REMARK                         _______ _______ _______ _____ _____    ______ ____
ROOT
ATOM      1  N   UNL     1       1.197  -3.938   4.123  0.00  0.00    +0.385 N 
ATOM      2  C   UNL     1       0.736  -3.254   5.360  0.00  0.00    -0.065 C 
ATOM      3  C   UNL     1       1.958  -2.421   5.812  0.00  0.00    -0.017 C 
ATOM      4  C   UNL     1       3.178  -3.154   5.216  0.00  0.00    -0.017 C 
ATOM      5  C   UNL     1       2.582  -4.364   4.459  0.00  0.00    -0.065 C 
ATOM      6  C   UNL     1       2.472  -5.532   5.452  0.00  0.00    +0.024 C 
ATOM      7  C   UNL     1       1.822  -5.026   6.743  0.00  0.00    +0.088 C 
ATOM      8  C   UNL     1       0.476  -4.343   6.413  0.00  0.00    +0.024 C 
ATOM      9  H   UNL     1       0.619  -4.740   3.921  0.00  0.00    -0.081 HD
ENDROOT
BRANCH   7  10
ATOM     10  C   UNL     1       2.743  -4.039   7.414  0.00  0.00    -0.013 A 
ATOM     11  C   UNL     1       2.217  -3.019   8.185  0.00  0.00    +0.010 A 
ATOM     12  C   UNL     1       3.057  -2.111   8.803  0.00  0.00    +0.050 A 
ATOM     13  C   UNL     1       4.429  -2.222   8.649  0.00  0.00    +0.166 A 
ATOM     14  C   UNL     1       4.959  -3.249   7.872  0.00  0.00    +0.167 A 
ATOM     15  C   UNL     1       4.111  -4.158   7.261  0.00  0.00    +0.056 A 
ATOM     16  O   UNL     1       6.320  -3.142   7.877  0.00  0.00    -0.453 OA
ATOM     17  C   UNL     1       6.599  -1.803   8.328  0.00  0.00    +0.466 C 
ATOM     18  O   UNL     1       5.458  -1.472   9.141  0.00  0.00    -0.453 OA
ENDBRANCH   7  10
BRANCH   7  19
ATOM     19  O   UNL     1       1.588  -6.128   7.622  0.00  0.00    -0.384 OA
ATOM     20  H   UNL     1       1.177  -5.881   8.461  0.00  0.00    +0.211 HD
ENDBRANCH   7  19
BRANCH   1  21
ATOM     21  C   UNL     1       1.204  -3.006   2.988  0.00  0.00    -0.041 C 
BRANCH  21  22
ATOM     22  C   UNL     1       1.679  -3.737   1.730  0.00  0.00    +0.128 C 
BRANCH  22  28
ATOM     23  C   UNL     1      -0.577  -1.768  -2.279  0.00  0.00    +0.044 C 
ATOM     24  C   UNL     1       0.609  -1.838  -1.352  0.00  0.00    -0.050 A 
ATOM     25  C   UNL     1       1.706  -1.025  -1.570  0.00  0.00    +0.003 A 
ATOM     26  C   UNL     1       2.794  -1.090  -0.720  0.00  0.00    +0.004 A 
ATOM     27  C   UNL     1       2.785  -1.968   0.348  0.00  0.00    -0.045 A 
ATOM     28  C   UNL     1       1.688  -2.780   0.566  0.00  0.00    -0.018 A 
ATOM     29  C   UNL     1       0.598  -2.712  -0.281  0.00  0.00    +0.009 A 
ATOM     30  C   UNL     1       3.972  -2.039   1.275  0.00  0.00    +0.044 C 
ENDBRANCH  22  28
BRANCH  22  31
ATOM     31  O   UNL     1       0.794  -4.823   1.447  0.00  0.00    -0.389 OA
ATOM     32  H   UNL     1      -0.122  -4.554   1.292  0.00  0.00    +0.210 HD
ENDBRANCH  22  31
ENDBRANCH  21  22
ENDBRANCH   1  21
TORSDOF 6
