REMARK  Name = ZINC36139313
REMARK  10 active torsions:
REMARK  status: ('A' for Active; 'I' for Inactive)
REMARK    1  A    between atoms: C_1  and  C_2
REMARK    2  A    between atoms: C_2  and  C_3
REMARK    3  A    between atoms: C_2  and  C_4
REMARK    4  A    between atoms: C_14  and  C_40
REMARK    5  A    between atoms: C_18  and  C_19
REMARK    6  A    between atoms: C_18  and  C_20
REMARK    7  A    between atoms: C_20  and  N_21
REMARK    8  A    between atoms: N_21  and  C_22
REMARK    9  A    between atoms: N_32  and  C_33
REMARK   10  A    between atoms: C_33  and  C_34
REMARK                            x       y       z     vdW  Elec       q    Type
REMARK                         _______ _______ _______ _____ _____    ______ ____
ROOT
ATOM      1  C   UNL     1      -7.837  -2.717  -1.618  0.00  0.00    -0.073 C 
ENDROOT
BRANCH   1  15
ATOM      2  C   UNL     1      -1.785  -0.170   1.516  0.00  0.00    -0.045 A 
ATOM      3  C   UNL     1      -2.829   0.064   2.391  0.00  0.00    +0.004 A 
ATOM      4  C   UNL     1      -4.098  -0.380   2.074  0.00  0.00    +0.005 A 
ATOM      5  C   UNL     1      -4.327  -1.058   0.888  0.00  0.00    -0.038 A 
ATOM      6  C   UNL     1      -3.291  -1.292   0.010  0.00  0.00    -0.043 A 
ATOM      7  C   UNL     1      -2.015  -0.842   0.335  0.00  0.00    +0.007 A 
ATOM      8  C   UNL     1      -3.452  -2.017  -1.298  0.00  0.00    +0.036 C 
ATOM      9  C   UNL     1      -4.920  -2.275  -1.643  0.00  0.00    +0.009 C 
ATOM     10  C   UNL     1      -5.638  -2.708  -0.366  0.00  0.00    +0.004 C 
ATOM     11  C   UNL     1      -5.733  -1.527   0.581  0.00  0.00    -0.004 C 
ATOM     12  C   UNL     1      -6.447  -1.924   1.870  0.00  0.00    +0.011 C 
ATOM     13  C   UNL     1      -7.830  -2.487   1.535  0.00  0.00    +0.001 C 
ATOM     14  C   UNL     1      -7.691  -3.731   0.669  0.00  0.00    +0.005 C 
ATOM     15  C   UNL     1      -6.931  -3.448  -0.628  0.00  0.00    -0.044 C 
ATOM     16  C   UNL     1      -6.585  -4.823  -1.249  0.00  0.00    +0.009 C 
ATOM     17  C   UNL     1      -6.465  -0.339  -0.042  0.00  0.00    +0.016 C 
BRANCH   2  19
ATOM     18  C   UNL     1      -0.408   1.831   2.017  0.00  0.00    +0.012 C 
ATOM     19  C   UNL     1      -0.396   0.310   1.854  0.00  0.00    +0.013 C 
ATOM     20  C   UNL     1       0.064  -0.340   3.160  0.00  0.00    +0.012 C 
ENDBRANCH   2  19
ENDBRANCH   1  15
BRANCH   1  21
ATOM     21  N   UNL     1      -9.016  -3.544  -1.905  0.00  0.00    +0.394 N 
ATOM     22  H   UNL     1      -8.720  -4.456  -2.220  0.00  0.00    -0.083 HD
ATOM     23  H   UNL     1      -9.570  -3.642  -1.068  0.00  0.00    -0.083 HD
BRANCH  21  24
ATOM     24  C   UNL     1      -9.821  -2.902  -2.953  0.00  0.00    +0.046 C 
ATOM     25  C   UNL     1     -10.484  -1.663  -2.414  0.00  0.00    -0.059 C 
ATOM     26  C   UNL     1     -11.802  -1.840  -2.515  0.00  0.00    +0.014 C 
ATOM     27  C   UNL     1     -12.823  -0.816  -2.075  0.00  0.00    +0.040 C 
ATOM     28  C   UNL     1     -12.133   0.195  -1.152  0.00  0.00    +0.005 C 
ATOM     29  C   UNL     1     -10.850   0.702  -1.817  0.00  0.00    +0.005 C 
ATOM     30  C   UNL     1      -9.818  -0.432  -1.857  0.00  0.00    +0.031 C 
ATOM     31  C   UNL     1     -12.074  -3.153  -3.104  0.00  0.00    +0.241 C 
ATOM     32  O   UNL     1     -13.183  -3.602  -3.323  0.00  0.00    -0.270 OA
ATOM     33  N   UNL     1     -10.916  -3.792  -3.369  0.00  0.00    -0.305 N 
BRANCH  33  34
ATOM     34  C   UNL     1     -10.774  -5.124  -3.961  0.00  0.00    +0.138 C 
BRANCH  34  35
ATOM     35  C   UNL     1     -10.863  -6.183  -2.860  0.00  0.00    +0.136 C 
ATOM     36  C   UNL     1     -10.617  -7.584  -3.460  0.00  0.00    +0.035 C 
ATOM     37  C   UNL     1     -11.644  -8.458  -2.689  0.00  0.00    +0.031 C 
ATOM     38  C   UNL     1     -12.809  -7.452  -2.509  0.00  0.00    +0.160 C 
ATOM     39  O   UNL     1     -12.177  -6.180  -2.288  0.00  0.00    -0.375 OA
ENDBRANCH  34  35
ENDBRANCH  33  34
ENDBRANCH  21  24
ENDBRANCH   1  21
TORSDOF 6
