REMARK  Name = ZINC39289917
REMARK  4 active torsions:
REMARK  status: ('A' for Active; 'I' for Inactive)
REMARK    1  A    between atoms: C_6  and  N_7
REMARK    2  A    between atoms: C_13  and  C_14
REMARK    3  A    between atoms: C_17  and  S_19
REMARK    4  A    between atoms: S_19  and  C_20
REMARK                            x       y       z     vdW  Elec       q    Type
REMARK                         _______ _______ _______ _____ _____    ______ ____
ROOT
ATOM      1  N   UNL     1      -1.807  -1.533  -0.319  0.00  0.00    -0.226 NA
ATOM      2  C   UNL     1      -1.831  -2.443  -1.269  0.00  0.00    +0.166 C 
ATOM      3  N   UNL     1      -2.864  -3.281  -1.639  0.00  0.00    -0.260 N 
ATOM      4  C   UNL     1      -2.697  -4.139  -2.630  0.00  0.00    +0.257 C 
ATOM      5  O   UNL     1      -3.600  -4.884  -2.968  0.00  0.00    -0.269 OA
ATOM      6  C   UNL     1      -1.441  -4.173  -3.294  0.00  0.00    +0.081 C 
ATOM      7  C   UNL     1      -1.028  -4.968  -4.341  0.00  0.00    +0.066 C 
ATOM      8  S   UNL     1      -0.540  -2.904  -2.414  0.00  0.00    -0.049 S 
ATOM      9  H   UNL     1      -3.712  -3.240  -1.171  0.00  0.00    +0.157 HD
ENDROOT
BRANCH   1  15
ATOM     10  C   UNL     1      -0.599   0.521  -0.061  0.00  0.00    +0.029 A 
ATOM     11  C   UNL     1       0.579   1.178   0.230  0.00  0.00    +0.023 A 
ATOM     12  C   UNL     1       1.717   0.458   0.549  0.00  0.00    +0.059 A 
ATOM     13  C   UNL     1       1.682  -0.927   0.579  0.00  0.00    +0.061 A 
ATOM     14  C   UNL     1       0.510  -1.597   0.290  0.00  0.00    +0.049 A 
ATOM     15  C   UNL     1      -0.641  -0.875  -0.032  0.00  0.00    +0.068 A 
ATOM     16 CL   UNL     1       3.115  -1.822   0.980  0.00  0.00    -0.082 Cl
ATOM     17 CL   UNL     1       3.195   1.293   0.911  0.00  0.00    -0.082 Cl
ENDBRANCH   1  15
BRANCH   7  18
ATOM     18  C   UNL     1       0.308  -4.920  -4.777  0.00  0.00    +0.131 A 
ATOM     19  C   UNL     1       0.880  -5.732  -5.742  0.00  0.00    +0.050 A 
ATOM     20  C   UNL     1       2.216  -5.339  -5.857  0.00  0.00    +0.057 A 
ATOM     21  C   UNL     1       2.414  -4.317  -4.973  0.00  0.00    +0.165 A 
ATOM     22  O   UNL     1       1.260  -4.068  -4.332  0.00  0.00    -0.449 OA
BRANCH  21  23
ATOM     23  S   UNL     1       3.933  -3.460  -4.720  0.00  0.00    -0.046 S 
BRANCH  23  24
ATOM     24  C   UNL     1       4.835  -4.505  -3.543  0.00  0.00    +0.240 C 
ATOM     25  N   UNL     1       4.088  -4.597  -2.259  0.00  0.00    -0.275 NA
ATOM     26  C   UNL     1       3.250  -5.780  -2.499  0.00  0.00    +0.128 C 
ATOM     27  C   UNL     1       2.818  -6.410  -1.202  0.00  0.00    -0.002 C 
ATOM     28  C   UNL     1       2.808  -7.750  -1.154  0.00  0.00    -0.002 C 
ATOM     29  C   UNL     1       3.201  -8.557  -2.304  0.00  0.00    +0.002 C 
ATOM     30  C   UNL     1       3.809  -8.041  -3.395  0.00  0.00    +0.025 C 
ATOM     31  C   UNL     1       4.060  -6.638  -3.456  0.00  0.00    +0.060 C 
ATOM     32  N   UNL     1       4.925  -5.883  -4.052  0.00  0.00    -0.256 NA
ATOM     33  H   UNL     1       4.717  -4.750  -1.485  0.00  0.00    +0.126 HD
ENDBRANCH  23  24
ENDBRANCH  21  23
ENDBRANCH   7  18
TORSDOF 4
