REMARK  Name = ZINC21302373
REMARK  4 active torsions:
REMARK  status: ('A' for Active; 'I' for Inactive)
REMARK    1  A    between atoms: C_1  and  C_2
REMARK    2  A    between atoms: C_2  and  C_4
REMARK    3  A    between atoms: C_2  and  N_14
REMARK    4  A    between atoms: N_14  and  C_15
REMARK                            x       y       z     vdW  Elec       q    Type
REMARK                         _______ _______ _______ _____ _____    ______ ____
ROOT
ATOM      1  C   UNL     1      -4.266  -0.838  -1.400  0.00  0.00    +0.033 C 
ATOM      2  C   UNL     1      -3.692  -0.803   0.018  0.00  0.00    +0.098 C 
ENDROOT
BRANCH   2   3
ATOM      3  C   UNL     1      -2.397  -0.033   0.016  0.00  0.00    -0.024 A 
ATOM      4  C   UNL     1      -2.415   1.349   0.025  0.00  0.00    +0.009 A 
ATOM      5  C   UNL     1      -1.229   2.059   0.019  0.00  0.00    +0.050 A 
ATOM      6  C   UNL     1      -0.017   1.385   0.010  0.00  0.00    +0.162 A 
ATOM      7  C   UNL     1       0.002  -0.004   0.002  0.00  0.00    +0.162 A 
ATOM      8  C   UNL     1      -1.192  -0.710   0.004  0.00  0.00    +0.055 A 
ATOM      9  O   UNL     1       1.181  -0.685  -0.007  0.00  0.00    -0.485 OA
ATOM     10  C   UNL     1       2.347   0.053  -0.387  0.00  0.00    +0.270 C 
ATOM     11  C   UNL     1       2.334   1.392   0.364  0.00  0.00    +0.270 C 
ATOM     12  O   UNL     1       1.143   2.098   0.002  0.00  0.00    -0.485 OA
ENDBRANCH   2   3
BRANCH   2  13
ATOM     13  N   UNL     1      -4.647  -0.149   0.915  0.00  0.00    -0.337 N 
ATOM     14  H   UNL     1      -4.552   0.925   1.132  0.00  0.00    +0.147 HD
BRANCH  13  15
ATOM     15  C   UNL     1      -5.681  -0.891   1.497  0.00  0.00    +0.031 A 
ATOM     16  C   UNL     1      -5.802  -2.247   1.223  0.00  0.00    +0.027 A 
ATOM     17  C   UNL     1      -6.822  -2.981   1.798  0.00  0.00    +0.051 A 
ATOM     18  C   UNL     1      -7.728  -2.367   2.647  0.00  0.00    +0.166 A 
ATOM     19  C   UNL     1      -7.609  -1.007   2.924  0.00  0.00    +0.168 A 
ATOM     20  C   UNL     1      -6.583  -0.273   2.352  0.00  0.00    +0.072 A 
ATOM     21  O   UNL     1      -8.611  -0.646   3.778  0.00  0.00    -0.453 OA
ATOM     22  C   UNL     1      -9.098  -1.878   4.343  0.00  0.00    +0.466 C 
ATOM     23  O   UNL     1      -8.805  -2.858   3.329  0.00  0.00    -0.453 OA
ENDBRANCH  13  15
ENDBRANCH   2  13
TORSDOF 3
