REMARK  Name = ZINC01407921
REMARK  11 active torsions:
REMARK  status: ('A' for Active; 'I' for Inactive)
REMARK    1  A    between atoms: C_1  and  C_2
REMARK    2  A    between atoms: C_4  and  C_41
REMARK    3  A    between atoms: C_6  and  S_8
REMARK    4  A    between atoms: S_8  and  C_9
REMARK    5  A    between atoms: C_9  and  C_10
REMARK    6  A    between atoms: N_12  and  C_13
REMARK    7  A    between atoms: N_12  and  C_20
REMARK    8  A    between atoms: C_13  and  C_14
REMARK    9  A    between atoms: C_20  and  C_22
REMARK   10  A    between atoms: C_20  and  C_29
REMARK   11  A    between atoms: N_31  and  C_32
REMARK                            x       y       z     vdW  Elec       q    Type
REMARK                         _______ _______ _______ _____ _____    ______ ____
ROOT
ATOM      1  C   UNL     1       4.430  -2.226  -2.958  0.00  0.00    +0.227 C 
ATOM      2  O   UNL     1       4.438  -1.802  -4.094  0.00  0.00    -0.275 OA
ATOM      3  N   UNL     1       4.793  -1.424  -1.937  0.00  0.00    -0.285 N 
ENDROOT
BRANCH   1   4
ATOM      4  C   UNL     1       4.013  -3.649  -2.687  0.00  0.00    +0.173 C 
BRANCH   4   5
ATOM      5  S   UNL     1       3.818  -4.529  -4.256  0.00  0.00    -0.077 S 
BRANCH   5  11
ATOM      6  C   UNL     1       2.771  -7.707  -0.384  0.00  0.00    +0.066 C 
ATOM      7  C   UNL     1       2.886  -7.493  -1.871  0.00  0.00    +0.043 A 
ATOM      8  C   UNL     1       2.621  -8.531  -2.751  0.00  0.00    +0.046 A 
ATOM      9  C   UNL     1       2.738  -8.292  -4.112  0.00  0.00    +0.043 A 
ATOM     10  N   UNL     1       3.097  -7.088  -4.527  0.00  0.00    -0.227 NA
ATOM     11  C   UNL     1       3.343  -6.118  -3.659  0.00  0.00    +0.189 A 
ATOM     12  N   UNL     1       3.245  -6.315  -2.352  0.00  0.00    -0.227 NA
ATOM     13  C   UNL     1       2.460  -9.390  -5.106  0.00  0.00    +0.066 C 
ENDBRANCH   5  11
ENDBRANCH   4   5
ENDBRANCH   1   4
BRANCH   3  14
ATOM     14  C   UNL     1       4.682  -1.901  -0.556  0.00  0.00    +0.143 C 
BRANCH  14  15
ATOM     15  C   UNL     1       3.354  -1.478   0.017  0.00  0.00    -0.030 A 
ATOM     16  C   UNL     1       2.217  -2.215  -0.257  0.00  0.00    +0.005 A 
ATOM     17  C   UNL     1       0.999  -1.828   0.269  0.00  0.00    +0.000 A 
ATOM     18  C   UNL     1       0.917  -0.703   1.068  0.00  0.00    +0.000 A 
ATOM     19  C   UNL     1       2.054   0.035   1.341  0.00  0.00    +0.000 A 
ATOM     20  C   UNL     1       3.272  -0.353   0.816  0.00  0.00    +0.005 A 
ENDBRANCH  14  15
ENDBRANCH   3  14
BRANCH   3  21
ATOM     21  C   UNL     1       5.298  -0.076  -2.208  0.00  0.00    +0.166 C 
BRANCH  21  22
ATOM     22  C   UNL     1       4.352   0.957  -1.594  0.00  0.00    +0.023 C 
ATOM     23  C   UNL     1       4.834   2.370  -1.943  0.00  0.00    +0.010 C 
ATOM     24  C   UNL     1       3.979   3.378  -1.173  0.00  0.00    +0.027 C 
ATOM     25  C   UNL     1       2.522   3.065  -1.354  0.00  0.00    -0.031 C 
ATOM     26  C   UNL     1       2.073   1.929  -1.782  0.00  0.00    -0.031 C 
ATOM     27  C   UNL     1       2.945   0.770  -2.167  0.00  0.00    +0.032 C 
ENDBRANCH  21  22
BRANCH  21  28
ATOM     28  C   UNL     1       6.670   0.077  -1.603  0.00  0.00    +0.238 C 
ATOM     29  O   UNL     1       7.082  -0.750  -0.817  0.00  0.00    -0.273 OA
ATOM     30  N   UNL     1       7.440   1.132  -1.937  0.00  0.00    -0.284 N 
ATOM     31  H   UNL     1       7.084   1.830  -2.509  0.00  0.00    +0.155 HD
BRANCH  30  32
ATOM     32  C   UNL     1       8.753   1.221  -1.456  0.00  0.00    +0.037 A 
ATOM     33  C   UNL     1       9.738   1.814  -2.235  0.00  0.00    +0.027 A 
ATOM     34  C   UNL     1      11.033   1.906  -1.761  0.00  0.00    +0.051 A 
ATOM     35  C   UNL     1      11.354   1.399  -0.512  0.00  0.00    +0.166 A 
ATOM     36  C   UNL     1      10.369   0.798   0.269  0.00  0.00    +0.168 A 
ATOM     37  C   UNL     1       9.070   0.710  -0.205  0.00  0.00    +0.072 A 
ATOM     38  O   UNL     1      10.933   0.384   1.441  0.00  0.00    -0.453 OA
ATOM     39  C   UNL     1      12.352   0.370   1.200  0.00  0.00    +0.466 C 
ATOM     40  O   UNL     1      12.535   1.361   0.172  0.00  0.00    -0.453 OA
ENDBRANCH  30  32
ENDBRANCH  21  28
ENDBRANCH   3  21
TORSDOF 9
