REMARK  Name = ZINC21308877
REMARK  7 active torsions:
REMARK  status: ('A' for Active; 'I' for Inactive)
REMARK    1  A    between atoms: C_8  and  C_25
REMARK    2  A    between atoms: N_10  and  C_12
REMARK    3  A    between atoms: C_12  and  C_13
REMARK    4  A    between atoms: C_13  and  C_15
REMARK    5  A    between atoms: C_13  and  O_24
REMARK    6  A    between atoms: C_15  and  O_16
REMARK    7  A    between atoms: O_16  and  C_17
REMARK                            x       y       z     vdW  Elec       q    Type
REMARK                         _______ _______ _______ _____ _____    ______ ____
ROOT
ATOM      1  C   UNL     1      -0.051   7.119   2.425  0.00  0.00    +0.000 A 
ATOM      2  C   UNL     1      -0.825   7.807   1.510  0.00  0.00    +0.000 A 
ATOM      3  C   UNL     1      -1.580   7.112   0.586  0.00  0.00    +0.002 A 
ATOM      4  C   UNL     1      -1.567   5.724   0.572  0.00  0.00    -0.061 A 
ATOM      5  C   UNL     1      -0.797   5.039   1.487  0.00  0.00    -0.047 A 
ATOM      6  C   UNL     1      -0.038   5.738   2.413  0.00  0.00    +0.004 A 
ATOM      7  C   UNL     1      -0.750   3.531   1.513  0.00  0.00    +0.029 C 
ATOM      8  C   UNL     1      -1.299   2.971   0.201  0.00  0.00    +0.024 C 
ATOM      9  N   UNL     1      -2.596   3.607  -0.077  0.00  0.00    +0.392 N 
ATOM     10  C   UNL     1      -2.404   5.010  -0.457  0.00  0.00    -0.042 C 
ATOM     11  H   UNL     1      -3.204   3.578   0.839  0.00  0.00    -0.080 HD
ENDROOT
BRANCH   8  12
ATOM     12  C   UNL     1      -1.481   1.480   0.324  0.00  0.00    +0.197 C 
ATOM     13  O   UNL     1      -2.495   1.032   0.815  0.00  0.00    -0.278 OA
ATOM     14  N   UNL     1      -0.517   0.645  -0.112  0.00  0.00    -0.331 N 
ATOM     15  H   UNL     1      -0.650  -0.443  -0.022  0.00  0.00    +0.145 HD
ATOM     16  H   UNL     1       0.403   1.052  -0.558  0.00  0.00    +0.145 HD
ENDBRANCH   8  12
BRANCH   9  17
ATOM     17  C   UNL     1      -3.329   2.876  -1.120  0.00  0.00    -0.042 C 
BRANCH  17  18
ATOM     18  C   UNL     1      -4.796   3.309  -1.112  0.00  0.00    +0.135 C 
BRANCH  18  19
ATOM     19  O   UNL     1      -5.371   3.021   0.164  0.00  0.00    -0.390 OA
ATOM     20  H   UNL     1      -6.426   3.264   0.360  0.00  0.00    +0.210 HD
ENDBRANCH  18  19
BRANCH  18  21
ATOM     21  C   UNL     1      -5.558   2.547  -2.198  0.00  0.00    +0.258 C 
BRANCH  21  22
ATOM     22  O   UNL     1      -6.900   3.034  -2.269  0.00  0.00    -0.489 OA
BRANCH  22  23
ATOM     23  C   UNL     1      -7.717   2.459  -3.190  0.00  0.00    +0.121 A 
ATOM     24  C   UNL     1      -7.236   1.451  -4.013  0.00  0.00    +0.047 A 
ATOM     25  C   UNL     1      -8.070   0.865  -4.945  0.00  0.00    +0.023 A 
ATOM     26  C   UNL     1      -9.381   1.289  -5.066  0.00  0.00    +0.041 A 
ATOM     27  C   UNL     1      -9.861   2.299  -4.251  0.00  0.00    +0.023 A 
ATOM     28  C   UNL     1      -9.032   2.884  -3.313  0.00  0.00    +0.047 A 
ATOM     29 CL   UNL     1     -10.425   0.555  -6.243  0.00  0.00    -0.084 Cl
ENDBRANCH  22  23
ENDBRANCH  21  22
ENDBRANCH  18  21
ENDBRANCH  17  18
ENDBRANCH   9  17
TORSDOF 7
