REMARK  Name = ZINC04005967
REMARK  14 active torsions:
REMARK  status: ('A' for Active; 'I' for Inactive)
REMARK    1  A    between atoms: C_4  and  N_24
REMARK    2  A    between atoms: C_5  and  N_7
REMARK    3  A    between atoms: N_7  and  C_8
REMARK    4  A    between atoms: C_10  and  O_23
REMARK    5  A    between atoms: C_12  and  O_22
REMARK    6  A    between atoms: C_14  and  O_21
REMARK    7  A    between atoms: C_16  and  C_19
REMARK    8  A    between atoms: C_19  and  O_20
REMARK    9  A    between atoms: N_24  and  C_25
REMARK   10  A    between atoms: C_27  and  O_40
REMARK   11  A    between atoms: C_29  and  O_39
REMARK   12  A    between atoms: C_31  and  O_38
REMARK   13  A    between atoms: C_33  and  C_36
REMARK   14  A    between atoms: C_36  and  O_37
REMARK                            x       y       z     vdW  Elec       q    Type
REMARK                         _______ _______ _______ _____ _____    ______ ____
ROOT
ATOM      1  C   UNL     1      -0.058   1.097  -0.695  0.00  0.00    +0.002 A 
ATOM      2  C   UNL     1       1.062   1.906  -0.675  0.00  0.00    +0.002 A 
ATOM      3  C   UNL     1       2.311   1.360  -0.443  0.00  0.00    +0.025 A 
ATOM      4  C   UNL     1       2.442  -0.004  -0.230  0.00  0.00    +0.050 A 
ATOM      5  C   UNL     1       1.312  -0.821  -0.250  0.00  0.00    +0.050 A 
ATOM      6  C   UNL     1       0.064  -0.264  -0.483  0.00  0.00    +0.025 A 
ENDROOT
BRANCH   5   7
ATOM      7  N   UNL     1       1.438  -2.199  -0.036  0.00  0.00    -0.316 N 
ATOM      8  H   UNL     1       2.302  -2.577   0.191  0.00  0.00    +0.149 HD
BRANCH   7   9
ATOM      9  C   UNL     1       0.265  -3.068  -0.153  0.00  0.00    +0.235 C 
ATOM     10  C   UNL     1       0.386  -4.225   0.843  0.00  0.00    +0.192 C 
ATOM     11  C   UNL     1      -0.814  -5.162   0.672  0.00  0.00    +0.178 C 
ATOM     12  C   UNL     1      -0.866  -5.648  -0.780  0.00  0.00    +0.177 C 
ATOM     13  C   UNL     1      -0.938  -4.436  -1.713  0.00  0.00    +0.177 C 
ATOM     14  O   UNL     1       0.190  -3.590  -1.481  0.00  0.00    -0.348 OA
BRANCH  12  15
ATOM     15  O   UNL     1       0.308  -6.408  -1.071  0.00  0.00    -0.386 OA
ATOM     16  H   UNL     1       0.420  -7.189  -0.513  0.00  0.00    +0.210 HD
ENDBRANCH  12  15
BRANCH  11  17
ATOM     17  O   UNL     1      -0.674  -6.282   1.548  0.00  0.00    -0.386 OA
ATOM     18  H   UNL     1      -0.628  -6.046   2.485  0.00  0.00    +0.210 HD
ENDBRANCH  11  17
BRANCH  10  19
ATOM     19  O   UNL     1       1.595  -4.945   0.595  0.00  0.00    -0.385 OA
ATOM     20  H   UNL     1       2.396  -4.410   0.681  0.00  0.00    +0.210 HD
ENDBRANCH  10  19
BRANCH  13  21
ATOM     21  C   UNL     1      -0.930  -4.911  -3.167  0.00  0.00    +0.190 C 
BRANCH  21  22
ATOM     22  O   UNL     1      -1.114  -3.791  -4.035  0.00  0.00    -0.392 OA
ATOM     23  H   UNL     1      -1.120  -4.018  -4.975  0.00  0.00    +0.210 HD
ENDBRANCH  21  22
ENDBRANCH  13  21
ENDBRANCH   7   9
ENDBRANCH   5   7
BRANCH   4  24
ATOM     24  N   UNL     1       3.706  -0.559   0.005  0.00  0.00    -0.316 N 
ATOM     25  H   UNL     1       3.788  -1.497   0.238  0.00  0.00    +0.149 HD
BRANCH  24  26
ATOM     26  C   UNL     1       4.905   0.277  -0.101  0.00  0.00    +0.235 C 
ATOM     27  C   UNL     1       6.068  -0.564  -0.632  0.00  0.00    +0.192 C 
ATOM     28  C   UNL     1       7.332   0.301  -0.684  0.00  0.00    +0.178 C 
ATOM     29  C   UNL     1       7.611   0.861   0.715  0.00  0.00    +0.177 C 
ATOM     30  C   UNL     1       6.388   1.647   1.194  0.00  0.00    +0.177 C 
ATOM     31  O   UNL     1       5.242   0.793   1.188  0.00  0.00    -0.348 OA
BRANCH  29  32
ATOM     32  O   UNL     1       7.872  -0.216   1.617  0.00  0.00    -0.386 OA
ATOM     33  H   UNL     1       8.633  -0.760   1.371  0.00  0.00    +0.210 HD
ENDBRANCH  29  32
BRANCH  28  34
ATOM     34  O   UNL     1       8.439  -0.495  -1.111  0.00  0.00    -0.386 OA
ATOM     35  H   UNL     1       8.326  -0.887  -1.988  0.00  0.00    +0.210 HD
ENDBRANCH  28  34
BRANCH  27  36
ATOM     36  O   UNL     1       6.286  -1.679   0.234  0.00  0.00    -0.385 OA
ATOM     37  H   UNL     1       5.524  -2.268   0.316  0.00  0.00    +0.210 HD
ENDBRANCH  27  36
BRANCH  30  38
ATOM     38  C   UNL     1       6.635   2.159   2.614  0.00  0.00    +0.190 C 
BRANCH  38  39
ATOM     39  O   UNL     1       5.544   2.989   3.018  0.00  0.00    -0.392 OA
ATOM     40  H   UNL     1       5.634   3.350   3.911  0.00  0.00    +0.210 HD
ENDBRANCH  38  39
ENDBRANCH  30  38
ENDBRANCH  24  26
ENDBRANCH   4  24
TORSDOF 14
