REMARK  Name = ZINC32717477
REMARK  6 active torsions:
REMARK  status: ('A' for Active; 'I' for Inactive)
REMARK    1  A    between atoms: N_10  and  S_13
REMARK    2  A    between atoms: S_13  and  C_16
REMARK    3  A    between atoms: C_16  and  C_17
REMARK    4  A    between atoms: C_17  and  N_18
REMARK    5  A    between atoms: C_19  and  C_21
REMARK    6  A    between atoms: C_24  and  C_27
REMARK                            x       y       z     vdW  Elec       q    Type
REMARK                         _______ _______ _______ _____ _____    ______ ____
ROOT
ATOM      1  C   UNL     1       1.642  -6.644   2.886  0.00  0.00    +0.204 C 
ENDROOT
BRANCH   1   2
ATOM      2  S   UNL     1       1.470  -6.171   1.143  0.00  0.00    +0.033 S 
ATOM      3  O   UNL     1       0.194  -6.562   0.654  0.00  0.00    -0.158 OA
ATOM      4  O   UNL     1       2.652  -6.501   0.427  0.00  0.00    -0.158 OA
BRANCH   2  14
ATOM      5  C   UNL     1       2.370   1.437   0.014  0.00  0.00    +0.005 A 
ATOM      6  C   UNL     1       1.127   2.057   0.003  0.00  0.00    +0.018 A 
ATOM      7  C   UNL     1      -0.015   1.282  -0.017  0.00  0.00    +0.084 A 
ATOM      8  N   UNL     1       0.061  -0.036  -0.024  0.00  0.00    -0.350 N 
ATOM      9  C   UNL     1       1.227  -0.664  -0.014  0.00  0.00    +0.099 A 
ATOM     10  C   UNL     1       2.418   0.054   0.005  0.00  0.00    +0.042 A 
ATOM     11  N   UNL     1       1.260  -2.054  -0.022  0.00  0.00    -0.314 N 
ATOM     12  C   UNL     1       2.538  -2.770  -0.142  0.00  0.00    +0.123 C 
ATOM     13  C   UNL     1       2.671  -3.737   1.041  0.00  0.00    +0.128 C 
ATOM     14  N   UNL     1       1.430  -4.516   1.153  0.00  0.00    -0.178 NA
ATOM     15  C   UNL     1       0.152  -3.799   1.273  0.00  0.00    +0.128 C 
ATOM     16  C   UNL     1       0.020  -2.833   0.096  0.00  0.00    +0.123 C 
ATOM     17  H   UNL     1      -0.757  -0.557  -0.038  0.00  0.00    +0.166 HD
ENDBRANCH   2  14
ENDBRANCH   1   2
BRANCH   1  18
ATOM     18  C   UNL     1       1.690  -8.169   2.999  0.00  0.00    +0.128 C 
BRANCH  18  19
ATOM     19  N   UNL     1       1.830  -8.550   4.406  0.00  0.00    -0.310 N 
ATOM     20  C   UNL     1       1.893  -9.852   4.748  0.00  0.00    +0.244 C 
ATOM     21  O   UNL     1       1.835 -10.710   3.889  0.00  0.00    -0.270 OA
ATOM     22  H   UNL     1       1.876  -7.866   5.092  0.00  0.00    +0.149 HD
BRANCH  20  23
ATOM     23  C   UNL     1       2.034 -10.237   6.169  0.00  0.00    +0.037 A 
ATOM     24  C   UNL     1       2.095  -9.255   7.159  0.00  0.00    +0.013 A 
ATOM     25  C   UNL     1       2.226  -9.621   8.482  0.00  0.00    +0.004 A 
ATOM     26  C   UNL     1       2.297 -10.959   8.830  0.00  0.00    -0.044 A 
ATOM     27  C   UNL     1       2.237 -11.937   7.854  0.00  0.00    +0.004 A 
ATOM     28  C   UNL     1       2.100 -11.585   6.527  0.00  0.00    +0.013 A 
BRANCH  26  29
ATOM     29  C   UNL     1       2.440 -11.351  10.278  0.00  0.00    +0.019 C 
ATOM     30  C   UNL     1       3.736 -12.143  10.466  0.00  0.00    +0.008 C 
ATOM     31  C   UNL     1       3.881 -12.542  11.935  0.00  0.00    +0.001 C 
ATOM     32  C   UNL     1       2.689 -13.407  12.350  0.00  0.00    +0.000 C 
ATOM     33  C   UNL     1       1.394 -12.615  12.162  0.00  0.00    +0.001 C 
ATOM     34  C   UNL     1       1.248 -12.217  10.692  0.00  0.00    +0.008 C 
ENDBRANCH  26  29
ENDBRANCH  20  23
ENDBRANCH  18  19
ENDBRANCH   1  18
TORSDOF 6
