REMARK  Name = ZINC13400022
REMARK  8 active torsions:
REMARK  status: ('A' for Active; 'I' for Inactive)
REMARK    1  A    between atoms: C_1  and  C_2
REMARK    2  A    between atoms: C_5  and  C_8
REMARK    3  A    between atoms: C_16  and  C_21
REMARK    4  A    between atoms: C_18  and  C_20
REMARK    5  A    between atoms: C_21  and  C_23
REMARK    6  A    between atoms: C_21  and  C_29
REMARK    7  A    between atoms: C_29  and  C_31
REMARK    8  A    between atoms: C_29  and  C_33
REMARK                            x       y       z     vdW  Elec       q    Type
REMARK                         _______ _______ _______ _____ _____    ______ ____
ROOT
ATOM      1  C   UNL     1      -1.238  -4.688  -0.088  0.00  0.00    +0.080 A 
ATOM      2  C   UNL     1      -1.359  -5.454   1.038  0.00  0.00    +0.077 A 
ATOM      3  S   UNL     1      -1.036  -7.080   0.369  0.00  0.00    -0.058 S 
ATOM      4  C   UNL     1      -0.777  -6.576  -1.326  0.00  0.00    +0.188 A 
ATOM      5  N   UNL     1      -0.955  -5.271  -1.243  0.00  0.00    -0.223 NA
ATOM      6  N   UNL     1      -0.473  -7.353  -2.439  0.00  0.00    -0.135 N 
ATOM      7  C   UNL     1      -0.322  -8.694  -2.415  0.00  0.00    +0.250 C 
ATOM      8  O   UNL     1      -0.419  -9.431  -1.457  0.00  0.00    -0.273 OA
ATOM      9  C   UNL     1      -0.003  -9.078  -3.848  0.00  0.00    +0.132 C 
ATOM     10  C   UNL     1      -0.016  -7.754  -4.582  0.00  0.00    +0.047 C 
ATOM     11  N   UNL     1      -0.291  -6.851  -3.724  0.00  0.00    -0.179 NA
ATOM     12  C   UNL     1       0.240  -7.543  -6.052  0.00  0.00    +0.063 C 
ENDROOT
BRANCH   1  17
ATOM     13  C   UNL     1      -1.981   1.016   0.184  0.00  0.00    +0.044 C 
ATOM     14  C   UNL     1      -1.786  -0.476   0.113  0.00  0.00    -0.050 A 
ATOM     15  C   UNL     1      -1.490  -1.076  -1.098  0.00  0.00    +0.004 A 
ATOM     16  C   UNL     1      -1.311  -2.442  -1.169  0.00  0.00    +0.010 A 
ATOM     17  C   UNL     1      -1.429  -3.219  -0.018  0.00  0.00    +0.001 A 
ATOM     18  C   UNL     1      -1.728  -2.610   1.200  0.00  0.00    +0.010 A 
ATOM     19  C   UNL     1      -1.900  -1.242   1.260  0.00  0.00    +0.004 A 
ENDBRANCH   1  17
BRANCH   9  20
ATOM     20  C   UNL     1       1.377  -9.733  -3.935  0.00  0.00    +0.062 C 
BRANCH  20  21
ATOM     21  C   UNL     1       2.432  -8.739  -3.521  0.00  0.00    -0.042 A 
ATOM     22  C   UNL     1       2.406  -8.192  -2.251  0.00  0.00    +0.004 A 
ATOM     23  C   UNL     1       3.373  -7.280  -1.872  0.00  0.00    +0.000 A 
ATOM     24  C   UNL     1       4.366  -6.915  -2.761  0.00  0.00    +0.000 A 
ATOM     25  C   UNL     1       4.392  -7.462  -4.031  0.00  0.00    +0.000 A 
ATOM     26  C   UNL     1       3.427  -8.377  -4.409  0.00  0.00    +0.004 A 
ENDBRANCH  20  21
BRANCH  20  27
ATOM     27  C   UNL     1       1.427 -10.946  -3.004  0.00  0.00    +0.185 C 
BRANCH  27  28
ATOM     28  C   UNL     1       2.730 -11.677  -3.200  0.00  0.00    +0.228 C 
ATOM     29  O   UNL     1       2.727 -12.834  -3.563  0.00  0.00    -0.275 OA
ATOM     30  N   UNL     1       3.898 -11.045  -2.973  0.00  0.00    -0.328 N 
ATOM     31  H   UNL     1       3.900 -10.119  -2.684  0.00  0.00    +0.145 HD
ATOM     32  H   UNL     1       4.737 -11.515  -3.100  0.00  0.00    +0.145 HD
ENDBRANCH  27  28
BRANCH  27  33
ATOM     33  C   UNL     1       0.306 -11.848  -3.314  0.00  0.00    +0.076 C 
ATOM     34  N   UNL     1      -0.559 -12.545  -3.554  0.00  0.00    -0.196 NA
ENDBRANCH  27  33
ENDBRANCH  20  27
ENDBRANCH   9  20
TORSDOF 6
