REMARK  Name = ZINC19354951
REMARK  13 active torsions:
REMARK  status: ('A' for Active; 'I' for Inactive)
REMARK    1  A    between atoms: C_1  and  C_2
REMARK    2  A    between atoms: C_2  and  O_3
REMARK    3  A    between atoms: O_3  and  C_4
REMARK    4  A    between atoms: C_4  and  C_6
REMARK    5  A    between atoms: C_7  and  C_19
REMARK    6  A    between atoms: C_12  and  C_14
REMARK    7  A    between atoms: C_19  and  S_20
REMARK    8  A    between atoms: S_20  and  C_21
REMARK    9  A    between atoms: C_24  and  C_26
REMARK   10  A    between atoms: C_29  and  C_32
REMARK   11  A    between atoms: C_32  and  C_33
REMARK   12  A    between atoms: C_32  and  C_34
REMARK   13  A    between atoms: C_32  and  C_35
REMARK                            x       y       z     vdW  Elec       q    Type
REMARK                         _______ _______ _______ _____ _____    ______ ____
ROOT
ATOM      1  C   UNL     1       2.043  -2.346   1.307  0.00  0.00    +0.082 C 
ATOM      2  C   UNL     1       3.323  -2.349   1.735  0.00  0.00    +0.034 C 
ATOM      3  N   UNL     1       4.360  -2.230   0.854  0.00  0.00    -0.272 N 
ATOM      4  C   UNL     1       4.199  -2.106  -0.470  0.00  0.00    +0.304 C 
ATOM      5  O   UNL     1       5.185  -2.006  -1.175  0.00  0.00    -0.252 OA
ATOM      6  N   UNL     1       2.981  -2.088  -1.046  0.00  0.00    -0.285 N 
ATOM      7  C   UNL     1       1.795  -2.209  -0.181  0.00  0.00    +0.179 C 
ATOM      8  H   UNL     1       5.397  -2.233   1.221  0.00  0.00    +0.156 HD
ATOM      9  H   UNL     1       2.860  -1.985  -2.134  0.00  0.00    +0.151 HD
ENDROOT
BRANCH   7  10
ATOM     10  C   UNL     1       0.935  -0.991  -0.399  0.00  0.00    +0.130 A 
ATOM     11  C   UNL     1      -0.403  -0.988  -0.540  0.00  0.00    +0.047 A 
ATOM     12  C   UNL     1      -0.792   0.359  -0.722  0.00  0.00    +0.041 A 
ATOM     13  C   UNL     1       0.331   1.098  -0.681  0.00  0.00    +0.195 A 
ATOM     14  O   UNL     1       1.374   0.275  -0.485  0.00  0.00    -0.466 OA
ENDBRANCH   7  10
BRANCH   1  15
ATOM     15  C   UNL     1       0.968  -2.469   2.219  0.00  0.00    +0.339 C 
ATOM     16  O   UNL     1       1.189  -2.712   3.391  0.00  0.00    -0.245 OA
BRANCH  15  17
ATOM     17  O   UNL     1      -0.302  -2.316   1.790  0.00  0.00    -0.462 OA
BRANCH  17  19
ATOM     18  C   UNL     1      -2.698  -2.249   2.096  0.00  0.00    +0.048 C 
ATOM     19  C   UNL     1      -1.337  -2.453   2.765  0.00  0.00    +0.229 C 
ENDBRANCH  17  19
ENDBRANCH  15  17
ENDBRANCH   1  15
BRANCH   2  20
ATOM     20  C   UNL     1       3.613  -2.484   3.207  0.00  0.00    +0.130 C 
BRANCH  20  21
ATOM     21  S   UNL     1       3.837  -4.231   3.621  0.00  0.00    -0.060 S 
BRANCH  21  22
ATOM     22  C   UNL     1       4.153  -4.099   5.349  0.00  0.00    +0.278 A 
ATOM     23  N   UNL     1       4.199  -2.988   6.048  0.00  0.00    -0.101 NA
ATOM     24  N   UNL     1       4.450  -3.267   7.279  0.00  0.00    -0.106 NA
ATOM     25  C   UNL     1       4.583  -4.564   7.413  0.00  0.00    +0.249 A 
ATOM     26  O   UNL     1       4.398  -5.118   6.195  0.00  0.00    -0.411 OA
BRANCH  25  27
ATOM     27  C   UNL     1       4.880  -5.287   8.667  0.00  0.00    +0.039 A 
ATOM     28  C   UNL     1       4.989  -6.678   8.665  0.00  0.00    +0.013 A 
ATOM     29  C   UNL     1       5.271  -7.347   9.838  0.00  0.00    +0.005 A 
ATOM     30  C   UNL     1       5.436  -6.642  11.018  0.00  0.00    -0.042 A 
ATOM     31  C   UNL     1       5.324  -5.263  11.028  0.00  0.00    +0.005 A 
ATOM     32  C   UNL     1       5.047  -4.581   9.861  0.00  0.00    +0.013 A 
BRANCH  30  33
ATOM     33  C   UNL     1       5.738  -7.379  12.296  0.00  0.00    -0.013 C 
ATOM     34  C   UNL     1       4.633  -7.104  13.318  0.00  0.00    +0.015 C 
ATOM     35  C   UNL     1       5.809  -8.881  12.014  0.00  0.00    +0.015 C 
ATOM     36  C   UNL     1       7.080  -6.901  12.856  0.00  0.00    +0.015 C 
ENDBRANCH  30  33
ENDBRANCH  25  27
ENDBRANCH  21  22
ENDBRANCH  20  21
ENDBRANCH   2  20
TORSDOF 9
