REMARK  Name = ZINC63373180
REMARK  7 active torsions:
REMARK  status: ('A' for Active; 'I' for Inactive)
REMARK    1  A    between atoms: C_1  and  O_2
REMARK    2  A    between atoms: O_2  and  C_3
REMARK    3  A    between atoms: C_8  and  O_9
REMARK    4  A    between atoms: O_9  and  C_10
REMARK    5  A    between atoms: N_21  and  C_22
REMARK    6  A    between atoms: C_22  and  C_23
REMARK    7  A    between atoms: C_23  and  C_24
REMARK                            x       y       z     vdW  Elec       q    Type
REMARK                         _______ _______ _______ _____ _____    ______ ____
ROOT
ATOM      1  C   UNL     1      -1.488  -0.698  -1.038  0.00  0.00    +0.162 A 
ATOM      2  C   UNL     1      -2.649   0.034  -0.881  0.00  0.00    +0.053 A 
ATOM      3  C   UNL     1      -3.864  -0.603  -0.654  0.00  0.00    -0.037 A 
ATOM      4  C   UNL     1      -3.912  -1.978  -0.593  0.00  0.00    -0.020 A 
ATOM      5  C   UNL     1      -2.745  -2.718  -0.742  0.00  0.00    +0.055 A 
ATOM      6  C   UNL     1      -1.536  -2.087  -0.970  0.00  0.00    +0.162 A 
ATOM      7  C   UNL     1      -5.195  -2.733  -0.381  0.00  0.00    +0.115 C 
ATOM      8  C   UNL     1      -4.995  -3.742   0.757  0.00  0.00    +0.098 C 
ATOM      9  C   UNL     1      -6.349  -4.335   1.094  0.00  0.00    +0.099 C 
ATOM     10  N   UNL     1      -7.385  -3.439   1.295  0.00  0.00    -0.258 N 
ATOM     11  C   UNL     1      -7.317  -2.224   0.729  0.00  0.00    +0.308 C 
ATOM     12  O   UNL     1      -8.208  -1.428   0.958  0.00  0.00    -0.252 OA
ATOM     13  N   UNL     1      -6.304  -1.846  -0.061  0.00  0.00    -0.278 N 
ATOM     14  C   UNL     1      -6.370  -0.503  -0.637  0.00  0.00    +0.114 C 
ATOM     15  C   UNL     1      -5.081   0.257  -0.478  0.00  0.00    +0.054 C 
ATOM     16  N   UNL     1      -6.527  -5.611   1.187  0.00  0.00    -0.273 NA
ATOM     17  H   UNL     1      -8.149  -3.687   1.837  0.00  0.00    +0.157 HD
ENDROOT
BRANCH   1  19
ATOM     18  C   UNL     1      -0.334   1.362  -1.320  0.00  0.00    +0.277 C 
ATOM     19  O   UNL     1      -0.305  -0.065  -1.263  0.00  0.00    -0.491 OA
ENDBRANCH   1  19
BRANCH   6  20
ATOM     20  O   UNL     1      -0.400  -2.820  -1.123  0.00  0.00    -0.491 OA
ATOM     21  C   UNL     1      -0.529  -4.241  -1.041  0.00  0.00    +0.277 C 
ENDBRANCH   6  20
BRANCH  16  22
ATOM     22  C   UNL     1      -7.874  -6.150   1.389  0.00  0.00    +0.147 C 
BRANCH  22  23
ATOM     23  C   UNL     1      -7.954  -6.823   2.760  0.00  0.00    +0.056 C 
BRANCH  23  24
ATOM     24  C   UNL     1      -9.340  -7.378   2.967  0.00  0.00    -0.040 C 
ATOM     25  C   UNL     1      -9.754  -8.643   2.728  0.00  0.00    -0.001 A 
ATOM     26  C   UNL     1      -9.064  -9.836   2.223  0.00  0.00    +0.010 A 
ATOM     27  C   UNL     1      -9.759 -10.988   2.088  0.00  0.00    +0.001 A 
ATOM     28  C   UNL     1     -11.119 -11.071   2.417  0.00  0.00    +0.002 A 
ATOM     29  C   UNL     1     -11.821 -10.018   2.887  0.00  0.00    +0.026 A 
ATOM     30  C   UNL     1     -11.190  -8.757   3.069  0.00  0.00    +0.043 A 
ATOM     31  N   UNL     1     -11.646  -7.607   3.502  0.00  0.00    -0.380 N 
ATOM     32  C   UNL     1     -10.548  -6.634   3.490  0.00  0.00    +0.144 C 
ATOM     33  H   UNL     1     -12.556  -7.430   3.786  0.00  0.00    +0.160 HD
ENDBRANCH  23  24
ENDBRANCH  22  23
ENDBRANCH  16  22
TORSDOF 5
