REMARK  Name = ZINC12071264
REMARK  10 active torsions:
REMARK  status: ('A' for Active; 'I' for Inactive)
REMARK    1  A    between atoms: C_1  and  C_2
REMARK    2  A    between atoms: C_2  and  C_3
REMARK    3  A    between atoms: C_2  and  S_4
REMARK    4  A    between atoms: S_4  and  C_5
REMARK    5  A    between atoms: C_8  and  C_11
REMARK    6  A    between atoms: C_11  and  C_12
REMARK    7  A    between atoms: N_14  and  C_15
REMARK    8  A    between atoms: C_16  and  C_30
REMARK    9  A    between atoms: C_23  and  C_24
REMARK   10  A    between atoms: C_23  and  N_62
REMARK                            x       y       z     vdW  Elec       q    Type
REMARK                         _______ _______ _______ _____ _____    ______ ____
ROOT
ATOM      1  C   UNL     1       2.631   4.471  -6.459  0.00  0.00    +0.084 A 
ATOM      2  C   UNL     1       3.742   4.138  -5.695  0.00  0.00    +0.068 A 
ATOM      3  C   UNL     1       3.503   3.536  -4.396  0.00  0.00    -0.027 A 
ATOM      4  C   UNL     1       2.202   3.363  -4.070  0.00  0.00    -0.021 A 
ATOM      5  S   UNL     1       1.302   3.988  -5.458  0.00  0.00    -0.079 S 
ATOM      6  C   UNL     1       1.676   2.767  -2.802  0.00  0.00    -0.035 C 
ATOM      7  C   UNL     1       3.970   2.942  -2.040  0.00  0.00    -0.073 C 
ATOM      8  C   UNL     1       4.599   3.109  -3.426  0.00  0.00    +0.018 C 
ATOM      9  N   UNL     1       2.794   2.053  -2.139  0.00  0.00    +0.386 N 
ATOM     10  H   UNL     1       3.044   1.229  -2.699  0.00  0.00    -0.081 HD
ENDROOT
BRANCH   2  11
ATOM     11  C   UNL     1       5.103   4.385  -6.181  0.00  0.00    +0.244 C 
ATOM     12  O   UNL     1       5.684   3.530  -6.824  0.00  0.00    -0.270 OA
ATOM     13  N   UNL     1       5.710   5.558  -5.917  0.00  0.00    -0.325 N 
ATOM     14  H   UNL     1       5.247   6.239  -5.404  0.00  0.00    +0.145 HD
ATOM     15  H   UNL     1       6.611   5.721  -6.238  0.00  0.00    +0.145 HD
ENDBRANCH   2  11
BRANCH   1  18
ATOM     16  C   UNL     1       1.411   5.305  -8.309  0.00  0.00    +0.222 C 
ATOM     17  O   UNL     1       0.377   5.025  -7.741  0.00  0.00    -0.275 OA
ATOM     18  N   UNL     1       2.595   5.052  -7.718  0.00  0.00    -0.279 N 
ATOM     19  H   UNL     1       3.422   5.275  -8.173  0.00  0.00    +0.155 HD
BRANCH  16  20
ATOM     20  C   UNL     1       1.371   5.935  -9.678  0.00  0.00    +0.131 C 
BRANCH  20  24
ATOM     21  C   UNL     1      -2.694   6.432 -10.901  0.00  0.00    +0.008 A 
ATOM     22  C   UNL     1      -2.049   7.443 -10.198  0.00  0.00    +0.015 A 
ATOM     23  C   UNL     1      -0.736   7.279  -9.804  0.00  0.00    +0.005 A 
ATOM     24  C   UNL     1      -0.062   6.111 -10.109  0.00  0.00    -0.039 A 
ATOM     25  C   UNL     1      -0.698   5.105 -10.813  0.00  0.00    +0.005 A 
ATOM     26  C   UNL     1      -2.013   5.260 -11.206  0.00  0.00    +0.015 A 
BRANCH  21  27
ATOM     27  S   UNL     1      -4.370   6.637 -11.405  0.00  0.00    -0.122 S 
BRANCH  27  29
ATOM     28  C   UNL     1      -5.639   7.301 -13.735  0.00  0.00    +0.019 C 
ATOM     29  C   UNL     1      -4.244   7.250 -13.108  0.00  0.00    +0.045 C 
ATOM     30  C   UNL     1      -3.636   8.653 -13.102  0.00  0.00    +0.019 C 
ENDBRANCH  27  29
ENDBRANCH  21  27
ENDBRANCH  20  24
ENDBRANCH  16  20
ENDBRANCH   1  18
BRANCH   9  31
ATOM     31  C   UNL     1       2.381   1.608  -0.790  0.00  0.00    -0.043 C 
BRANCH  31  32
ATOM     32  C   UNL     1       1.039   0.930  -0.882  0.00  0.00    -0.064 A 
ATOM     33  C   UNL     1       0.965  -0.429  -1.125  0.00  0.00    +0.002 A 
ATOM     34  C   UNL     1      -0.266  -1.050  -1.209  0.00  0.00    +0.000 A 
ATOM     35  C   UNL     1      -1.425  -0.312  -1.056  0.00  0.00    +0.000 A 
ATOM     36  C   UNL     1      -1.352   1.046  -0.808  0.00  0.00    +0.000 A 
ATOM     37  C   UNL     1      -0.120   1.667  -0.723  0.00  0.00    +0.002 A 
ENDBRANCH  31  32
ENDBRANCH   9  31
TORSDOF 8
