REMARK  Name = ZINC05260511
REMARK  14 active torsions:
REMARK  status: ('A' for Active; 'I' for Inactive)
REMARK    1  A    between atoms: C_3  and  O_10
REMARK    2  A    between atoms: C_6  and  N_7
REMARK    3  A    between atoms: O_10  and  C_11
REMARK    4  A    between atoms: C_13  and  O_26
REMARK    5  A    between atoms: C_15  and  O_25
REMARK    6  A    between atoms: C_17  and  O_24
REMARK    7  A    between atoms: C_19  and  C_22
REMARK    8  A    between atoms: C_22  and  O_23
REMARK    9  A    between atoms: O_26  and  C_27
REMARK   10  A    between atoms: C_29  and  O_42
REMARK   11  A    between atoms: C_31  and  O_41
REMARK   12  A    between atoms: C_33  and  O_40
REMARK   13  A    between atoms: C_35  and  C_38
REMARK   14  A    between atoms: C_38  and  O_39
REMARK                            x       y       z     vdW  Elec       q    Type
REMARK                         _______ _______ _______ _____ _____    ______ ____
ROOT
ATOM      1  C   UNL     1      -1.262  -0.670   0.011  0.00  0.00    +0.340 C 
ATOM      2  C   UNL     1      -1.045  -2.179  -0.126  0.00  0.00    +0.221 C 
ATOM      3  C   UNL     1      -0.246  -2.683   1.081  0.00  0.00    +0.180 C 
ATOM      4  C   UNL     1      -0.996  -2.317   2.365  0.00  0.00    +0.177 C 
ATOM      5  C   UNL     1      -1.215  -0.802   2.405  0.00  0.00    +0.179 C 
ATOM      6  O   UNL     1      -1.937  -0.396   1.240  0.00  0.00    -0.331 OA
ENDROOT
BRANCH   4   7
ATOM      7  O   UNL     1      -2.260  -2.984   2.387  0.00  0.00    -0.386 OA
ATOM      8  H   UNL     1      -2.790  -2.798   3.174  0.00  0.00    +0.210 HD
ENDBRANCH   4   7
BRANCH   3   9
ATOM      9  O   UNL     1      -0.102  -4.103   0.999  0.00  0.00    -0.386 OA
ATOM     10  H   UNL     1       0.395  -4.490   1.733  0.00  0.00    +0.210 HD
ENDBRANCH   3   9
BRANCH   1  11
ATOM     11  O   UNL     1       0.002  -0.004   0.002  0.00  0.00    -0.461 OA
BRANCH  11  14
ATOM     12  C   UNL     1       1.153   3.447   0.010  0.00  0.00    +0.036 A 
ATOM     13  C   UNL     1       1.175   2.066   0.002  0.00  0.00    +0.048 A 
ATOM     14  C   UNL     1      -0.016   1.355   0.009  0.00  0.00    +0.124 A 
ATOM     15  C   UNL     1      -1.226   2.033   0.019  0.00  0.00    +0.048 A 
ATOM     16  C   UNL     1      -1.242   3.414   0.032  0.00  0.00    +0.036 A 
ATOM     17  C   UNL     1      -0.054   4.121   0.025  0.00  0.00    +0.126 A 
BRANCH  17  18
ATOM     18  N   UNL     1      -0.074   5.601   0.034  0.00  0.00    +0.056 N 
ATOM     19  O   UNL     1       0.973   6.224   0.027  0.00  0.00    -0.126 OA
ATOM     20  O   UNL     1      -1.137   6.195   0.047  0.00  0.00    -0.126 OA
ENDBRANCH  17  18
ENDBRANCH  11  14
ENDBRANCH   1  11
BRANCH   5  21
ATOM     21  C   UNL     1      -2.017  -0.435   3.655  0.00  0.00    +0.190 C 
BRANCH  21  22
ATOM     22  O   UNL     1      -2.121   0.986   3.754  0.00  0.00    -0.392 OA
ATOM     23  H   UNL     1      -2.618   1.292   4.526  0.00  0.00    +0.210 HD
ENDBRANCH  21  22
ENDBRANCH   5  21
BRANCH   2  24
ATOM     24  O   UNL     1      -0.320  -2.451  -1.326  0.00  0.00    -0.337 OA
BRANCH  24  25
ATOM     25  C   UNL     1      -1.148  -2.664  -2.470  0.00  0.00    +0.282 C 
ATOM     26  C   UNL     1      -0.295  -3.186  -3.629  0.00  0.00    +0.201 C 
ATOM     27  C   UNL     1      -1.179  -3.355  -4.869  0.00  0.00    +0.179 C 
ATOM     28  C   UNL     1      -1.844  -2.014  -5.194  0.00  0.00    +0.177 C 
ATOM     29  C   UNL     1      -2.638  -1.538  -3.975  0.00  0.00    +0.178 C 
ATOM     30  O   UNL     1      -1.762  -1.431  -2.850  0.00  0.00    -0.341 OA
BRANCH  28  31
ATOM     31  O   UNL     1      -0.840  -1.049  -5.518  0.00  0.00    -0.386 OA
ATOM     32  H   UNL     1      -0.298  -1.287  -6.282  0.00  0.00    +0.210 HD
ENDBRANCH  28  31
BRANCH  27  33
ATOM     33  O   UNL     1      -0.377  -3.772  -5.976  0.00  0.00    -0.386 OA
ATOM     34  H   UNL     1       0.074  -4.616  -5.839  0.00  0.00    +0.210 HD
ENDBRANCH  27  33
BRANCH  26  35
ATOM     35  O   UNL     1       0.750  -2.252  -3.911  0.00  0.00    -0.384 OA
ATOM     36  H   UNL     1       1.346  -2.093  -3.167  0.00  0.00    +0.210 HD
ENDBRANCH  26  35
BRANCH  29  37
ATOM     37  C   UNL     1      -3.256  -0.170  -4.272  0.00  0.00    +0.190 C 
BRANCH  37  38
ATOM     38  O   UNL     1      -4.090   0.223  -3.180  0.00  0.00    -0.392 OA
ATOM     39  H   UNL     1      -4.516   1.083  -3.299  0.00  0.00    +0.210 HD
ENDBRANCH  37  38
ENDBRANCH  29  37
ENDBRANCH  24  25
ENDBRANCH   2  24
TORSDOF 14
