REMARK  Name = ZINC35745836
REMARK  18 active torsions:
REMARK  status: ('A' for Active; 'I' for Inactive)
REMARK    1  A    between atoms: C_1  and  C_2
REMARK    2  A    between atoms: C_7  and  C_8
REMARK    3  A    between atoms: C_17  and  C_19
REMARK    4  A    between atoms: C_19  and  N_20
REMARK    5  A    between atoms: N_20  and  C_21
REMARK    6  A    between atoms: N_20  and  C_26
REMARK    7  A    between atoms: C_21  and  C_22
REMARK    8  A    between atoms: C_22  and  C_23
REMARK    9  A    between atoms: C_23  and  O_24
REMARK   10  A    between atoms: O_24  and  C_25
REMARK   11  A    between atoms: C_26  and  C_27
REMARK   12  A    between atoms: C_27  and  C_29
REMARK   13  A    between atoms: C_27  and  O_35
REMARK   14  A    between atoms: C_29  and  O_30
REMARK   15  A    between atoms: O_30  and  C_31
REMARK   16  A    between atoms: C_31  and  C_32
REMARK   17  A    between atoms: C_31  and  C_33
REMARK   18  A    between atoms: C_31  and  C_34
REMARK                            x       y       z     vdW  Elec       q    Type
REMARK                         _______ _______ _______ _____ _____    ______ ____
ROOT
ATOM      1  C   UNL     1       1.445   3.050   2.217  0.00  0.00    +0.004 A 
ATOM      2  C   UNL     1       2.412   3.134   3.163  0.00  0.00    +0.056 A 
ATOM      3  S   UNL     1       1.503   3.506   4.650  0.00  0.00    -0.076 S 
ATOM      4  C   UNL     1      -0.137   3.540   3.974  0.00  0.00    +0.116 A 
ATOM      5  C   UNL     1       0.058   3.268   2.611  0.00  0.00    +0.080 A 
ATOM      6  C   UNL     1      -1.127   3.238   1.808  0.00  0.00    +0.260 A 
ATOM      7  O   UNL     1      -1.059   3.005   0.613  0.00  0.00    -0.267 OA
ATOM      8  N   UNL     1      -2.316   3.471   2.393  0.00  0.00    -0.312 N 
ATOM      9  H   UNL     1      -3.123   3.452   1.853  0.00  0.00    +0.170 HD
ATOM     10  C   UNL     1      -2.410   3.731   3.722  0.00  0.00    +0.094 A 
ATOM     11  N   UNL     1      -1.348   3.756   4.482  0.00  0.00    -0.229 NA
ENDROOT
BRANCH   1  18
ATOM     12  C   UNL     1       0.983   5.042   0.171  0.00  0.00    +0.044 C 
ATOM     13  C   UNL     1       1.573   3.702  -0.186  0.00  0.00    -0.043 A 
ATOM     14  C   UNL     1       1.903   3.418  -1.496  0.00  0.00    +0.004 A 
ATOM     15  C   UNL     1       2.444   2.188  -1.824  0.00  0.00    +0.000 A 
ATOM     16  C   UNL     1       2.658   1.236  -0.843  0.00  0.00    +0.001 A 
ATOM     17  C   UNL     1       2.332   1.509   0.469  0.00  0.00    +0.009 A 
ATOM     18  C   UNL     1       1.792   2.749   0.808  0.00  0.00    -0.014 A 
ENDBRANCH   1  18
BRANCH  10  19
ATOM     19  C   UNL     1      -3.764   3.986   4.332  0.00  0.00    -0.003 C 
BRANCH  19  20
ATOM     20  N   UNL     1      -3.632   4.088   5.792  0.00  0.00    +0.386 N 
ATOM     21  H   UNL     1      -2.924   4.770   6.019  0.00  0.00    -0.081 HD
BRANCH  20  22
ATOM     22  C   UNL     1      -3.245   2.781   6.341  0.00  0.00    -0.076 C 
BRANCH  22  23
ATOM     23  C   UNL     1      -4.360   1.767   6.076  0.00  0.00    +0.009 C 
BRANCH  23  24
ATOM     24  C   UNL     1      -4.000   0.431   6.731  0.00  0.00    +0.157 C 
BRANCH  24  25
ATOM     25  O   UNL     1      -5.041  -0.516   6.483  0.00  0.00    -0.383 OA
ATOM     26  C   UNL     1      -4.803  -1.804   7.055  0.00  0.00    +0.193 C 
ENDBRANCH  24  25
ENDBRANCH  23  24
ENDBRANCH  22  23
ENDBRANCH  20  22
BRANCH  20  27
ATOM     27  C   UNL     1      -4.916   4.502   6.373  0.00  0.00    -0.044 C 
BRANCH  27  28
ATOM     28  C   UNL     1      -4.736   4.771   7.868  0.00  0.00    +0.124 C 
BRANCH  28  29
ATOM     29  O   UNL     1      -4.455   3.542   8.542  0.00  0.00    -0.391 OA
ATOM     30  H   UNL     1      -5.151   2.877   8.453  0.00  0.00    +0.210 HD
ENDBRANCH  28  29
BRANCH  28  31
ATOM     31  C   UNL     1      -6.020   5.381   8.434  0.00  0.00    +0.189 C 
BRANCH  31  32
ATOM     32  O   UNL     1      -5.814   5.739   9.803  0.00  0.00    -0.372 OA
BRANCH  32  33
ATOM     33  C   UNL     1      -6.959   6.321  10.430  0.00  0.00    +0.061 C 
ATOM     34  C   UNL     1      -8.121   5.327  10.393  0.00  0.00    +0.041 C 
ATOM     35  C   UNL     1      -6.625   6.662  11.883  0.00  0.00    +0.041 C 
ATOM     36  C   UNL     1      -7.355   7.597   9.684  0.00  0.00    +0.041 C 
ENDBRANCH  32  33
ENDBRANCH  31  32
ENDBRANCH  28  31
ENDBRANCH  27  28
ENDBRANCH  20  27
ENDBRANCH  19  20
ENDBRANCH  10  19
TORSDOF 13
