REMARK  Name = ZINC12547951
REMARK  11 active torsions:
REMARK  status: ('A' for Active; 'I' for Inactive)
REMARK    1  A    between atoms: C_4  and  C_7
REMARK    2  A    between atoms: C_10  and  C_13
REMARK    3  A    between atoms: C_13  and  C_14
REMARK    4  A    between atoms: N_16  and  C_17
REMARK    5  A    between atoms: C_17  and  C_18
REMARK    6  A    between atoms: C_18  and  C_19
REMARK    7  A    between atoms: C_19  and  C_20
REMARK    8  A    between atoms: C_20  and  C_21
REMARK    9  A    between atoms: C_21  and  C_22
REMARK   10  A    between atoms: C_23  and  C_29
REMARK   11  A    between atoms: C_24  and  N_28
REMARK                            x       y       z     vdW  Elec       q    Type
REMARK                         _______ _______ _______ _____ _____    ______ ____
ROOT
ATOM      1  C   UNL     1       9.463   1.142  -4.597  0.00  0.00    +0.217 C 
ATOM      2  O   UNL     1      10.260   1.172  -3.683  0.00  0.00    -0.275 OA
ATOM      3  N   UNL     1       8.142   1.081  -4.338  0.00  0.00    -0.315 N 
ATOM      4  H   UNL     1       7.505   1.057  -5.069  0.00  0.00    +0.149 HD
ENDROOT
BRANCH   1   5
ATOM      5  C   UNL     1       9.951   1.172  -6.023  0.00  0.00    +0.130 C 
BRANCH   5   9
ATOM      6  C   UNL     1      14.222   1.363  -6.065  0.00  0.00    -0.018 A 
ATOM      7  C   UNL     1      13.578   0.128  -6.065  0.00  0.00    +0.009 A 
ATOM      8  C   UNL     1      12.198   0.072  -6.051  0.00  0.00    +0.005 A 
ATOM      9  C   UNL     1      11.457   1.240  -6.037  0.00  0.00    -0.039 A 
ATOM     10  C   UNL     1      12.091   2.469  -6.042  0.00  0.00    +0.005 A 
ATOM     11  C   UNL     1      13.470   2.536  -6.051  0.00  0.00    +0.009 A 
BRANCH   6  15
ATOM     12  C   UNL     1      18.470   1.554  -6.107  0.00  0.00    +0.000 A 
ATOM     13  C   UNL     1      17.728   2.721  -6.093  0.00  0.00    +0.001 A 
ATOM     14  C   UNL     1      16.349   2.665  -6.080  0.00  0.00    +0.008 A 
ATOM     15  C   UNL     1      15.704   1.430  -6.080  0.00  0.00    -0.018 A 
ATOM     16  C   UNL     1      16.457   0.257  -6.088  0.00  0.00    +0.008 A 
ATOM     17  C   UNL     1      17.835   0.325  -6.107  0.00  0.00    +0.001 A 
ENDBRANCH   6  15
ENDBRANCH   5   9
ENDBRANCH   1   5
BRANCH   3  18
ATOM     18  C   UNL     1       7.668   1.052  -2.952  0.00  0.00    +0.104 C 
BRANCH  18  19
ATOM     19  C   UNL     1       6.139   0.983  -2.938  0.00  0.00    +0.019 C 
BRANCH  19  20
ATOM     20  C   UNL     1       5.644   0.953  -1.490  0.00  0.00    +0.002 C 
BRANCH  20  21
ATOM     21  C   UNL     1       4.116   0.884  -1.476  0.00  0.00    +0.006 C 
BRANCH  21  22
ATOM     22  C   UNL     1       3.621   0.853  -0.028  0.00  0.00    +0.058 C 
BRANCH  22  23
ATOM     23  C   UNL     1       2.115   0.786  -0.014  0.00  0.00    +0.082 A 
ATOM     24  C   UNL     1       1.338  -0.396  -0.013  0.00  0.00    +0.113 A 
ATOM     25  C   UNL     1       0.002  -0.004   0.002  0.00  0.00    +0.129 A 
ATOM     26  N   UNL     1      -0.016   1.345   0.009  0.00  0.00    -0.263 N 
ATOM     27  H   UNL     1      -0.836   1.918   0.020  0.00  0.00    +0.190 HD
ATOM     28  N   UNL     1       1.304   1.806  -0.001  0.00  0.00    -0.176 NA
BRANCH  25  29
ATOM     29  N   UNL     1      -1.098  -0.840   0.008  0.00  0.00    -0.342 N 
ATOM     30  H   UNL     1      -1.993  -0.464   0.018  0.00  0.00    +0.144 HD
ATOM     31  H   UNL     1      -0.976  -1.802   0.002  0.00  0.00    +0.144 HD
ENDBRANCH  25  29
BRANCH  24  32
ATOM     32  C   UNL     1       1.831  -1.740  -0.025  0.00  0.00    +0.104 C 
ATOM     33  N   UNL     1       2.223  -2.806  -0.035  0.00  0.00    -0.191 NA
ENDBRANCH  24  32
ENDBRANCH  22  23
ENDBRANCH  21  22
ENDBRANCH  20  21
ENDBRANCH  19  20
ENDBRANCH  18  19
ENDBRANCH   3  18
TORSDOF 11
