REMARK  Name = ZINC16866226
REMARK  13 active torsions:
REMARK  status: ('A' for Active; 'I' for Inactive)
REMARK    1  A    between atoms: C_1  and  C_2
REMARK    2  A    between atoms: C_2  and  C_4
REMARK    3  A    between atoms: C_2  and  S_15
REMARK    4  A    between atoms: N_6  and  C_7
REMARK    5  A    between atoms: C_8  and  C_12
REMARK    6  A    between atoms: S_15  and  C_16
REMARK    7  A    between atoms: C_19  and  C_24
REMARK    8  A    between atoms: N_20  and  C_21
REMARK    9  A    between atoms: C_21  and  C_22
REMARK   10  A    between atoms: C_27  and  C_30
REMARK   11  A    between atoms: C_30  and  C_31
REMARK   12  A    between atoms: C_30  and  C_32
REMARK   13  A    between atoms: C_30  and  C_33
REMARK                            x       y       z     vdW  Elec       q    Type
REMARK                         _______ _______ _______ _____ _____    ______ ____
ROOT
ATOM      1  C   UNL     1      -2.855   0.188   1.245  0.00  0.00    +0.193 A 
ATOM      2  N   UNL     1      -3.538   0.252   2.366  0.00  0.00    -0.122 NA
ATOM      3  N   UNL     1      -3.200   1.298   3.030  0.00  0.00    -0.128 NA
ATOM      4  C   UNL     1      -2.276   1.964   2.377  0.00  0.00    +0.165 A 
ATOM      5  N   UNL     1      -2.024   1.271   1.215  0.00  0.00    -0.298 N 
ENDROOT
BRANCH   4   6
ATOM      6  C   UNL     1      -1.628   3.221   2.808  0.00  0.00    +0.019 A 
ATOM      7  C   UNL     1      -0.949   4.013   1.881  0.00  0.00    +0.012 A 
ATOM      8  C   UNL     1      -0.351   5.188   2.290  0.00  0.00    +0.005 A 
ATOM      9  C   UNL     1      -0.415   5.575   3.616  0.00  0.00    -0.042 A 
ATOM     10  C   UNL     1      -1.081   4.791   4.541  0.00  0.00    +0.005 A 
ATOM     11  C   UNL     1      -1.688   3.617   4.145  0.00  0.00    +0.012 A 
BRANCH   9  12
ATOM     12  C   UNL     1       0.245   6.857   4.056  0.00  0.00    -0.013 C 
ATOM     13  C   UNL     1       1.306   6.547   5.114  0.00  0.00    +0.015 C 
ATOM     14  C   UNL     1       0.907   7.529   2.851  0.00  0.00    +0.015 C 
ATOM     15  C   UNL     1      -0.807   7.795   4.649  0.00  0.00    +0.015 C 
ENDBRANCH   9  12
ENDBRANCH   4   6
BRANCH   1  16
ATOM     16  S   UNL     1      -2.985  -1.064   0.011  0.00  0.00    -0.073 S 
BRANCH  16  18
ATOM     17  C   UNL     1      -3.721  -2.722   2.054  0.00  0.00    +0.029 C 
ATOM     18  C   UNL     1      -4.258  -2.111   0.758  0.00  0.00    +0.137 C 
BRANCH  18  19
ATOM     19  C   UNL     1      -4.630  -3.212  -0.201  0.00  0.00    +0.231 C 
ATOM     20  O   UNL     1      -3.836  -3.576  -1.042  0.00  0.00    -0.274 OA
ATOM     21  N   UNL     1      -5.843  -3.793  -0.123  0.00  0.00    -0.278 N 
ATOM     22  H   UNL     1      -6.478  -3.501   0.550  0.00  0.00    +0.155 HD
BRANCH  21  23
ATOM     23  C   UNL     1      -6.185  -4.806  -1.006  0.00  0.00    +0.084 A 
ATOM     24  C   UNL     1      -7.373  -5.523  -1.079  0.00  0.00    +0.065 A 
ATOM     25  C   UNL     1      -7.461  -6.531  -2.108  0.00  0.00    +0.022 A 
ATOM     26  C   UNL     1      -6.386  -6.696  -2.899  0.00  0.00    +0.048 A 
ATOM     27  S   UNL     1      -5.231  -5.491  -2.279  0.00  0.00    -0.081 S 
BRANCH  24  28
ATOM     28  C   UNL     1      -8.485  -5.266  -0.158  0.00  0.00    +0.244 C 
ATOM     29  O   UNL     1      -8.380  -4.407   0.698  0.00  0.00    -0.270 OA
ATOM     30  N   UNL     1      -9.623  -5.981  -0.258  0.00  0.00    -0.325 N 
ATOM     31  H   UNL     1      -9.707  -6.666  -0.940  0.00  0.00    +0.145 HD
ATOM     32  H   UNL     1     -10.358  -5.811   0.351  0.00  0.00    +0.145 HD
ENDBRANCH  24  28
ENDBRANCH  21  23
ENDBRANCH  18  19
ENDBRANCH  16  18
ENDBRANCH   1  16
BRANCH   5  33
ATOM     33  C   UNL     1      -1.069   1.625   0.163  0.00  0.00    +0.152 C 
BRANCH  33  34
ATOM     34  C   UNL     1      -1.758   2.469  -0.879  0.00  0.00    -0.013 C 
ATOM     35  C   UNL     1      -1.766   2.086  -2.132  0.00  0.00    +0.005 C 
ENDBRANCH  33  34
ENDBRANCH   5  33
TORSDOF 9
