REMARK  Name = ZINC18122898
REMARK  6 active torsions:
REMARK  status: ('A' for Active; 'I' for Inactive)
REMARK    1  A    between atoms: C_1  and  C_2
REMARK    2  A    between atoms: C_2  and  C_35
REMARK    3  A    between atoms: C_6  and  C_16
REMARK    4  A    between atoms: C_20  and  O_22
REMARK    5  A    between atoms: O_22  and  C_23
REMARK    6  A    between atoms: C_23  and  C_25
REMARK                            x       y       z     vdW  Elec       q    Type
REMARK                         _______ _______ _______ _____ _____    ______ ____
ROOT
ATOM      1  C   UNL     1       0.657   3.325   1.995  0.00  0.00    +0.011 C 
ATOM      2  C   UNL     1       0.963   3.564   0.515  0.00  0.00    -0.023 C 
ATOM      3  C   UNL     1      -0.243   4.210  -0.165  0.00  0.00    +0.058 C 
ATOM      4  C   UNL     1      -1.454   3.300  -0.041  0.00  0.00    +0.017 C 
ATOM      5  C   UNL     1      -1.305   1.965  -0.038  0.00  0.00    +0.036 C 
ATOM      6  C   UNL     1      -2.418   0.949   0.063  0.00  0.00    +0.136 C 
ATOM      7  N   UNL     1      -3.707   1.504   0.416  0.00  0.00    -0.331 N 
ATOM      8  C   UNL     1      -4.366   2.393  -0.431  0.00  0.00    +0.049 A 
ATOM      9  C   UNL     1      -5.541   2.041  -1.076  0.00  0.00    +0.025 A 
ATOM     10  C   UNL     1      -6.102   2.914  -1.992  0.00  0.00    +0.002 A 
ATOM     11  C   UNL     1      -5.497   4.128  -2.263  0.00  0.00    +0.002 A 
ATOM     12  C   UNL     1      -4.335   4.492  -1.604  0.00  0.00    +0.025 A 
ATOM     13  C   UNL     1      -3.782   3.627  -0.675  0.00  0.00    +0.052 A 
ATOM     14  N   UNL     1      -2.643   3.948   0.054  0.00  0.00    -0.316 N 
ATOM     15  C   UNL     1      -0.013   1.393  -0.115  0.00  0.00    +0.163 C 
ATOM     16  O   UNL     1       0.091   0.182  -0.130  0.00  0.00    -0.292 OA
ATOM     17  C   UNL     1       1.231   2.226  -0.183  0.00  0.00    +0.086 C 
ATOM     18  C   UNL     1       2.185   4.475   0.378  0.00  0.00    +0.011 C 
ATOM     19  H   UNL     1      -4.120   1.253   1.258  0.00  0.00    +0.147 HD
ATOM     20  H   UNL     1      -2.702   4.690   0.676  0.00  0.00    +0.152 HD
ENDROOT
BRANCH   6  21
ATOM     21  C   UNL     1      -2.545   0.257  -1.270  0.00  0.00    -0.019 A 
ATOM     22  C   UNL     1      -2.940   0.973  -2.385  0.00  0.00    +0.006 A 
ATOM     23  C   UNL     1      -3.057   0.341  -3.609  0.00  0.00    +0.004 A 
ATOM     24  C   UNL     1      -2.780  -1.008  -3.721  0.00  0.00    +0.046 A 
ATOM     25  C   UNL     1      -2.383  -1.728  -2.604  0.00  0.00    +0.132 A 
ATOM     26  C   UNL     1      -2.260  -1.091  -1.378  0.00  0.00    +0.052 A 
BRANCH  25  27
ATOM     27  O   UNL     1      -2.109  -3.055  -2.712  0.00  0.00    -0.422 OA
BRANCH  27  28
ATOM     28  C   UNL     1      -3.035  -3.912  -2.236  0.00  0.00    +0.344 C 
ATOM     29  O   UNL     1      -4.097  -3.490  -1.824  0.00  0.00    -0.245 OA
BRANCH  28  30
ATOM     30  C   UNL     1      -2.758  -5.362  -2.217  0.00  0.00    +0.059 A 
ATOM     31  C   UNL     1      -1.540  -5.849  -2.696  0.00  0.00    +0.016 A 
ATOM     32  C   UNL     1      -1.285  -7.204  -2.671  0.00  0.00    +0.021 A 
ATOM     33  C   UNL     1      -2.239  -8.082  -2.182  0.00  0.00    +0.041 A 
ATOM     34  C   UNL     1      -3.451  -7.605  -1.710  0.00  0.00    +0.021 A 
ATOM     35  C   UNL     1      -3.715  -6.252  -1.725  0.00  0.00    +0.016 A 
ATOM     36 CL   UNL     1      -1.914  -9.787  -2.160  0.00  0.00    -0.084 Cl
ENDBRANCH  28  30
ENDBRANCH  27  28
ENDBRANCH  25  27
ENDBRANCH   6  21
TORSDOF 4
