REMARK  Name = ZINC39846222
REMARK  9 active torsions:
REMARK  status: ('A' for Active; 'I' for Inactive)
REMARK    1  A    between atoms: C_1  and  C_2
REMARK    2  A    between atoms: C_2  and  C_3
REMARK    3  A    between atoms: C_8  and  N_9
REMARK    4  A    between atoms: C_10  and  C_12
REMARK    5  A    between atoms: C_15  and  C_29
REMARK    6  A    between atoms: C_16  and  C_17
REMARK    7  A    between atoms: C_16  and  C_18
REMARK    8  A    between atoms: C_22  and  C_27
REMARK    9  A    between atoms: C_23  and  C_25
REMARK                            x       y       z     vdW  Elec       q    Type
REMARK                         _______ _______ _______ _____ _____    ______ ____
ROOT
ATOM      1  C   UNL     1      -1.451  -0.272  -4.864  0.00  0.00    +0.097 C 
ATOM      2  C   UNL     1      -0.167  -1.115  -5.148  0.00  0.00    +0.024 C 
ATOM      3  C   UNL     1       0.042  -0.977  -6.675  0.00  0.00    +0.015 C 
ATOM      4  C   UNL     1      -1.139  -0.068  -7.140  0.00  0.00    +0.018 C 
ATOM      5  C   UNL     1      -2.275  -0.564  -6.171  0.00  0.00    -0.005 C 
ATOM      6  C   UNL     1      -2.562  -2.056  -6.357  0.00  0.00    +0.013 C 
ATOM      7  C   UNL     1      -3.548   0.280  -6.258  0.00  0.00    +0.013 C 
ATOM      8  C   UNL     1      -0.834   1.296  -6.514  0.00  0.00    +0.072 A 
ATOM      9  C   UNL     1      -1.040   1.179  -5.127  0.00  0.00    +0.080 A 
ATOM     10  N   UNL     1      -0.857   2.201  -4.326  0.00  0.00    -0.236 NA
ATOM     11  C   UNL     1      -0.492   3.379  -4.831  0.00  0.00    +0.176 A 
ATOM     12  C   UNL     1      -0.307   3.516  -6.218  0.00  0.00    +0.176 A 
ATOM     13  N   UNL     1      -0.460   2.440  -7.035  0.00  0.00    -0.236 NA
ATOM     14  C   UNL     1      -1.459  -0.086  -8.636  0.00  0.00    +0.018 C 
ENDROOT
BRANCH   1  16
ATOM     15  N   UNL     1      -1.505  -0.315  -2.391  0.00  0.00    -0.284 N 
ATOM     16  C   UNL     1      -2.147  -0.541  -3.555  0.00  0.00    +0.230 C 
ATOM     17  O   UNL     1      -3.285  -0.961  -3.548  0.00  0.00    -0.274 OA
ATOM     18  H   UNL     1      -0.620   0.082  -2.395  0.00  0.00    +0.155 HD
BRANCH  15  24
ATOM     19  C   UNL     1      -1.349  -1.119  -0.119  0.00  0.00    -0.026 A 
ATOM     20  C   UNL     1      -1.954  -1.445   1.079  0.00  0.00    +0.005 A 
ATOM     21  C   UNL     1      -3.323  -1.313   1.222  0.00  0.00    +0.000 A 
ATOM     22  C   UNL     1      -4.090  -0.853   0.168  0.00  0.00    +0.002 A 
ATOM     23  C   UNL     1      -3.491  -0.525  -1.033  0.00  0.00    +0.023 A 
ATOM     24  C   UNL     1      -2.116  -0.652  -1.178  0.00  0.00    +0.037 A 
BRANCH  19  26
ATOM     25  C   UNL     1       0.819   0.078   0.019  0.00  0.00    +0.009 C 
ATOM     26  C   UNL     1       0.143  -1.263  -0.275  0.00  0.00    +0.033 C 
ENDBRANCH  19  26
ENDBRANCH  15  24
ENDBRANCH   1  16
BRANCH  12  27
ATOM     27  C   UNL     1       0.084   4.779  -6.770  0.00  0.00    +0.122 C 
ATOM     28  N   UNL     1       0.394   5.780  -7.207  0.00  0.00    -0.189 NA
ENDBRANCH  12  27
BRANCH  11  29
ATOM     29  C   UNL     1      -0.290   4.501  -3.964  0.00  0.00    +0.122 C 
ATOM     30  N   UNL     1      -0.130   5.391  -3.277  0.00  0.00    -0.189 NA
ENDBRANCH  11  29
TORSDOF 5
