REMARK  Name = ZINC35990828
REMARK  8 active torsions:
REMARK  status: ('A' for Active; 'I' for Inactive)
REMARK    1  A    between atoms: C_1  and  C_2
REMARK    2  A    between atoms: C_2  and  O_3
REMARK    3  A    between atoms: O_3  and  C_4
REMARK    4  A    between atoms: C_4  and  C_6
REMARK    5  A    between atoms: C_7  and  C_23
REMARK    6  A    between atoms: N_8  and  C_22
REMARK    7  A    between atoms: C_12  and  C_14
REMARK    8  A    between atoms: C_23  and  N_24
REMARK                            x       y       z     vdW  Elec       q    Type
REMARK                         _______ _______ _______ _____ _____    ______ ____
ROOT
ATOM      1  C   UNL     1       1.646  -2.298  -2.667  0.00  0.00    +0.080 C 
ATOM      2  C   UNL     1       1.933  -3.558  -3.062  0.00  0.00    +0.041 C 
ATOM      3  N   UNL     1       2.526  -3.800  -4.268  0.00  0.00    -0.260 N 
ATOM      4  C   UNL     1       2.863  -2.839  -5.137  0.00  0.00    +0.307 C 
ATOM      5  O   UNL     1       3.388  -3.153  -6.187  0.00  0.00    -0.252 OA
ATOM      6  N   UNL     1       2.640  -1.534  -4.884  0.00  0.00    -0.288 N 
ATOM      7  C   UNL     1       1.999  -1.166  -3.611  0.00  0.00    +0.145 C 
ATOM      8  C   UNL     1       2.808  -5.191  -4.632  0.00  0.00    +0.139 C 
ATOM      9  H   UNL     1       2.894  -0.853  -5.527  0.00  0.00    +0.151 HD
ENDROOT
BRANCH   7  10
ATOM     10  C   UNL     1       2.926  -0.227  -2.883  0.00  0.00    -0.004 A 
ATOM     11  C   UNL     1       4.295  -0.397  -2.977  0.00  0.00    +0.008 A 
ATOM     12  C   UNL     1       5.146   0.464  -2.310  0.00  0.00    +0.020 A 
ATOM     13  C   UNL     1       4.628   1.496  -1.548  0.00  0.00    +0.042 A 
ATOM     14  C   UNL     1       3.259   1.667  -1.453  0.00  0.00    +0.040 A 
ATOM     15  C   UNL     1       2.408   0.808  -2.125  0.00  0.00    +0.048 A 
ATOM     16 CL   UNL     1       0.689   1.024  -2.012  0.00  0.00    -0.083 Cl
ATOM     17 CL   UNL     1       5.697   2.577  -0.709  0.00  0.00    -0.083 Cl
ENDBRANCH   7  10
BRANCH   1  18
ATOM     18  C   UNL     1       1.032  -2.046  -1.419  0.00  0.00    +0.339 C 
ATOM     19  O   UNL     1      -0.157  -1.790  -1.366  0.00  0.00    -0.245 OA
BRANCH  18  20
ATOM     20  O   UNL     1       1.763  -2.088  -0.286  0.00  0.00    -0.462 OA
BRANCH  20  22
ATOM     21  C   UNL     1       2.059  -1.887   2.104  0.00  0.00    +0.048 C 
ATOM     22  C   UNL     1       1.059  -1.934   0.948  0.00  0.00    +0.229 C 
ENDBRANCH  20  22
ENDBRANCH  18  20
ENDBRANCH   1  18
BRANCH   2  23
ATOM     23  C   UNL     1       1.594  -4.714  -2.157  0.00  0.00    +0.136 C 
BRANCH  23  24
ATOM     24  N   UNL     1       0.575  -5.556  -2.798  0.00  0.00    -0.299 NA
ATOM     25  C   UNL     1      -0.685  -4.801  -3.005  0.00  0.00    +0.083 C 
ATOM     26  C   UNL     1      -1.445  -5.442  -4.138  0.00  0.00    -0.004 C 
ATOM     27  C   UNL     1      -2.447  -6.502  -3.654  0.00  0.00    -0.081 C 
ATOM     28  N   UNL     1      -1.896  -7.360  -2.581  0.00  0.00    +0.380 N 
ATOM     29  C   UNL     1      -0.525  -7.739  -2.834  0.00  0.00    -0.067 C 
ATOM     30  C   UNL     1       0.400  -6.752  -2.096  0.00  0.00    +0.066 C 
ATOM     31  H   UNL     1      -1.941  -6.859  -1.706  0.00  0.00    -0.086 HD
ATOM     32  H   UNL     1      -2.458  -8.195  -2.508  0.00  0.00    -0.086 HD
ENDBRANCH  23  24
ENDBRANCH   2  23
TORSDOF 6
