REMARK  Name = ZINC15355665
REMARK  11 active torsions:
REMARK  status: ('A' for Active; 'I' for Inactive)
REMARK    1  A    between atoms: C_1  and  C_2
REMARK    2  A    between atoms: C_2  and  C_3
REMARK    3  A    between atoms: C_3  and  N_4
REMARK    4  A    between atoms: C_8  and  S_26
REMARK    5  A    between atoms: C_12  and  S_13
REMARK    6  A    between atoms: S_13  and  C_14
REMARK    7  A    between atoms: C_14  and  C_15
REMARK    8  A    between atoms: C_15  and  C_17
REMARK    9  A    between atoms: C_20  and  O_24
REMARK   10  A    between atoms: O_24  and  C_25
REMARK   11  A    between atoms: S_26  and  N_29
REMARK                            x       y       z     vdW  Elec       q    Type
REMARK                         _______ _______ _______ _____ _____    ______ ____
ROOT
ATOM      1  N   UNL     1      -5.718  -2.280  -0.277  0.00  0.00    -0.319 N 
ATOM      2  C   UNL     1      -4.741  -1.352   0.043  0.00  0.00    +0.070 A 
ATOM      3  C   UNL     1      -4.225  -0.873   1.238  0.00  0.00    +0.030 A 
ATOM      4  C   UNL     1      -3.226   0.079   1.222  0.00  0.00    +0.030 A 
ATOM      5  C   UNL     1      -2.733   0.560   0.018  0.00  0.00    +0.107 A 
ATOM      6  C   UNL     1      -3.237   0.099  -1.177  0.00  0.00    +0.058 A 
ATOM      7  C   UNL     1      -4.245  -0.868  -1.179  0.00  0.00    +0.092 A 
ATOM      8  N   UNL     1      -4.926  -1.506  -2.167  0.00  0.00    -0.222 NA
ATOM      9  C   UNL     1      -5.792  -2.337  -1.640  0.00  0.00    +0.170 A 
ENDROOT
BRANCH   5  10
ATOM     10  S   UNL     1      -1.456   1.774   0.019  0.00  0.00    +0.056 S 
ATOM     11  O   UNL     1      -1.536   2.446   1.268  0.00  0.00    -0.153 OA
ATOM     12  O   UNL     1      -1.548   2.460  -1.223  0.00  0.00    -0.153 OA
BRANCH  10  13
ATOM     13  N   UNL     1      -0.011   0.966   0.007  0.00  0.00    -0.204 NA
ATOM     14  H   UNL     1       0.002  -0.004   0.002  0.00  0.00    +0.144 HD
ATOM     15  H   UNL     1       0.822   1.462   0.002  0.00  0.00    +0.144 HD
ENDBRANCH  10  13
ENDBRANCH   5  10
BRANCH   1  16
ATOM     16  C   UNL     1      -6.523  -3.056   0.670  0.00  0.00    +0.124 C 
BRANCH  16  18
ATOM     17  C   UNL     1      -8.639  -3.092   1.998  0.00  0.00    +0.005 C 
ATOM     18  C   UNL     1      -7.798  -2.282   1.009  0.00  0.00    +0.018 C 
ENDBRANCH  16  18
ENDBRANCH   1  16
BRANCH   9  19
ATOM     19  S   UNL     1      -6.887  -3.372  -2.553  0.00  0.00    -0.080 S 
BRANCH  19  20
ATOM     20  C   UNL     1      -6.421  -2.911  -4.240  0.00  0.00    +0.157 C 
BRANCH  20  21
ATOM     21  C   UNL     1      -7.253  -3.695  -5.223  0.00  0.00    +0.173 C 
ATOM     22  O   UNL     1      -8.080  -4.487  -4.821  0.00  0.00    -0.291 OA
BRANCH  21  23
ATOM     23  C   UNL     1      -7.064  -3.499  -6.666  0.00  0.00    +0.020 A 
ATOM     24  C   UNL     1      -6.114  -2.581  -7.131  0.00  0.00    +0.015 A 
ATOM     25  C   UNL     1      -5.936  -2.405  -8.485  0.00  0.00    +0.047 A 
ATOM     26  C   UNL     1      -6.705  -3.129  -9.389  0.00  0.00    +0.134 A 
ATOM     27  C   UNL     1      -7.654  -4.038  -8.932  0.00  0.00    +0.060 A 
ATOM     28  C   UNL     1      -7.835  -4.226  -7.580  0.00  0.00    +0.030 A 
ATOM     29 BR   UNL     1      -8.694  -5.019 -10.170  0.00  0.00    -0.046 Br
BRANCH  26  30
ATOM     30  O   UNL     1      -6.529  -2.948 -10.723  0.00  0.00    -0.494 OA
ATOM     31  C   UNL     1      -5.539  -1.999 -11.123  0.00  0.00    +0.277 C 
ENDBRANCH  26  30
ENDBRANCH  21  23
ENDBRANCH  20  21
ENDBRANCH  19  20
ENDBRANCH   9  19
TORSDOF 9
