REMARK  Name = ZINC26044339
REMARK  7 active torsions:
REMARK  status: ('A' for Active; 'I' for Inactive)
REMARK    1  A    between atoms: C_1  and  C_2
REMARK    2  A    between atoms: C_2  and  C_4
REMARK    3  A    between atoms: C_2  and  S_18
REMARK    4  A    between atoms: N_9  and  C_10
REMARK    5  A    between atoms: C_15  and  C_16
REMARK    6  A    between atoms: S_18  and  C_19
REMARK    7  A    between atoms: C_22  and  C_25
REMARK                            x       y       z     vdW  Elec       q    Type
REMARK                         _______ _______ _______ _____ _____    ______ ____
ROOT
ATOM      1  C   UNL     1      -0.044   1.102   0.021  0.00  0.00    +0.029 C 
ATOM      2  C   UNL     1      -0.752   1.590   1.286  0.00  0.00    +0.137 C 
ENDROOT
BRANCH   2   3
ATOM      3  C   UNL     1      -0.015   1.087   2.501  0.00  0.00    +0.234 C 
ATOM      4  O   UNL     1       0.745   1.821   3.095  0.00  0.00    -0.274 OA
ATOM      5  N   UNL     1      -0.201  -0.178   2.925  0.00  0.00    -0.239 N 
ATOM      6  C   UNL     1       0.459  -0.628   4.011  0.00  0.00    +0.310 C 
ATOM      7  O   UNL     1       1.220   0.107   4.608  0.00  0.00    -0.252 OA
ATOM      8  N   UNL     1       0.273  -1.894   4.436  0.00  0.00    -0.268 N 
ATOM      9  H   UNL     1      -0.891  -0.844   2.386  0.00  0.00    +0.159 HD
ATOM     10  H   UNL     1      -0.472  -2.536   3.942  0.00  0.00    +0.156 HD
BRANCH   8  11
ATOM     11  C   UNL     1       1.023  -2.389   5.501  0.00  0.00    +0.052 A 
ATOM     12  C   UNL     1       1.385  -1.552   6.548  0.00  0.00    +0.024 A 
ATOM     13  C   UNL     1       2.124  -2.046   7.604  0.00  0.00    +0.002 A 
ATOM     14  C   UNL     1       2.520  -3.373   7.624  0.00  0.00    +0.001 A 
ATOM     15  C   UNL     1       2.175  -4.217   6.590  0.00  0.00    +0.021 A 
ATOM     16  C   UNL     1       1.423  -3.734   5.517  0.00  0.00    +0.073 A 
BRANCH  16  17
ATOM     17  C   UNL     1       1.061  -4.606   4.440  0.00  0.00    +0.101 C 
ATOM     18  N   UNL     1       0.774  -5.297   3.586  0.00  0.00    -0.191 NA
ENDBRANCH  16  17
ENDBRANCH   8  11
ENDBRANCH   2   3
BRANCH   2  19
ATOM     19  S   UNL     1      -0.778   3.400   1.303  0.00  0.00    -0.074 S 
BRANCH  19  20
ATOM     20  C   UNL     1      -1.800   3.704  -0.099  0.00  0.00    +0.185 A 
ATOM     21  N   UNL     1      -2.174   4.927  -0.579  0.00  0.00    -0.201 NA
ATOM     22  H   UNL     1      -2.283   1.700  -0.835  0.00  0.00    +0.191 HD
ATOM     23  C   UNL     1      -2.963   4.670  -1.677  0.00  0.00    +0.182 A 
ATOM     24  N   UNL     1      -3.036   3.365  -1.801  0.00  0.00    -0.152 NA
ATOM     25  N   UNL     1      -2.345   2.797  -0.878  0.00  0.00    -0.253 N 
BRANCH  23  26
ATOM     26  C   UNL     1      -3.606   5.673  -2.551  0.00  0.00    +0.021 A 
ATOM     27  C   UNL     1      -3.453   7.035  -2.286  0.00  0.00    +0.013 A 
ATOM     28  C   UNL     1      -4.052   7.967  -3.108  0.00  0.00    +0.021 A 
ATOM     29  C   UNL     1      -4.813   7.553  -4.189  0.00  0.00    +0.041 A 
ATOM     30  C   UNL     1      -4.973   6.204  -4.454  0.00  0.00    +0.021 A 
ATOM     31  C   UNL     1      -4.375   5.263  -3.642  0.00  0.00    +0.013 A 
ATOM     32 CL   UNL     1      -5.569   8.732  -5.215  0.00  0.00    -0.084 Cl
ENDBRANCH  23  26
ENDBRANCH  19  20
ENDBRANCH   2  19
TORSDOF 6
