REMARK  Name = ZINC44069266
REMARK  13 active torsions:
REMARK  status: ('A' for Active; 'I' for Inactive)
REMARK    1  A    between atoms: C_1  and  O_2
REMARK    2  A    between atoms: O_2  and  C_3
REMARK    3  A    between atoms: C_6  and  O_9
REMARK    4  A    between atoms: O_9  and  C_10
REMARK    5  A    between atoms: C_12  and  N_39
REMARK    6  A    between atoms: C_14  and  O_31
REMARK    7  A    between atoms: C_16  and  O_30
REMARK    8  A    between atoms: C_18  and  C_21
REMARK    9  A    between atoms: C_21  and  O_22
REMARK   10  A    between atoms: O_22  and  C_23
REMARK   11  A    between atoms: C_23  and  C_24
REMARK   12  A    between atoms: O_31  and  C_32
REMARK   13  A    between atoms: C_32  and  C_33
REMARK                            x       y       z     vdW  Elec       q    Type
REMARK                         _______ _______ _______ _____ _____    ______ ____
ROOT
ATOM      1  C   UNL     1      -4.834  -3.991   0.033  0.00  0.00    +0.296 C 
ATOM      2  C   UNL     1      -6.263  -4.521   0.169  0.00  0.00    +0.027 C 
ATOM      3  C   UNL     1      -6.240  -6.051   0.105  0.00  0.00    +0.141 C 
ATOM      4  C   UNL     1      -5.582  -6.487  -1.207  0.00  0.00    +0.173 C 
ATOM      5  C   UNL     1      -4.178  -5.880  -1.290  0.00  0.00    +0.179 C 
ATOM      6  O   UNL     1      -4.269  -4.458  -1.194  0.00  0.00    -0.335 OA
ENDROOT
BRANCH   2   7
ATOM      7  N   UNL     1      -6.826  -4.090   1.456  0.00  0.00    +0.386 N 
ATOM      8  H   UNL     1      -6.836  -3.082   1.498  0.00  0.00    -0.089 HD
ATOM      9  H   UNL     1      -7.768  -4.440   1.545  0.00  0.00    -0.089 HD
ATOM     10  H   UNL     1      -6.260  -4.453   2.208  0.00  0.00    -0.089 HD
ENDBRANCH   2   7
BRANCH   4  11
ATOM     11  O   UNL     1      -5.490  -7.912  -1.246  0.00  0.00    -0.387 OA
ATOM     12  H   UNL     1      -5.082  -8.259  -2.051  0.00  0.00    +0.210 HD
ENDBRANCH   4  11
BRANCH   1  13
ATOM     13  O   UNL     1      -4.853  -2.562   0.035  0.00  0.00    -0.465 OA
BRANCH  13  17
ATOM     14  C   UNL     1      -1.201  -0.638   0.010  0.00  0.00    +0.120 A 
ATOM     15  C   UNL     1      -2.374   0.102   0.019  0.00  0.00    +0.049 A 
ATOM     16  C   UNL     1      -3.596  -0.542   0.028  0.00  0.00    +0.049 A 
ATOM     17  C   UNL     1      -3.650  -1.928   0.026  0.00  0.00    +0.124 A 
ATOM     18  C   UNL     1      -2.477  -2.668   0.016  0.00  0.00    +0.049 A 
ATOM     19  C   UNL     1      -1.255  -2.024   0.003  0.00  0.00    +0.049 A 
BRANCH  14  21
ATOM     20  C   UNL     1      -0.017   1.425   0.010  0.00  0.00    +0.277 C 
ATOM     21  O   UNL     1       0.002  -0.004   0.002  0.00  0.00    -0.495 OA
ENDBRANCH  14  21
ENDBRANCH  13  17
ENDBRANCH   1  13
BRANCH   5  22
ATOM     22  C   UNL     1      -3.536  -6.262  -2.626  0.00  0.00    +0.194 C 
BRANCH  22  23
ATOM     23  O   UNL     1      -2.186  -5.795  -2.655  0.00  0.00    -0.373 OA
BRANCH  23  24
ATOM     24  C   UNL     1      -1.491  -6.101  -3.866  0.00  0.00    +0.195 C 
BRANCH  24  25
ATOM     25  C   UNL     1      -0.085  -5.566  -3.788  0.00  0.00    -0.022 A 
ATOM     26  C   UNL     1       0.191  -4.282  -4.220  0.00  0.00    +0.006 A 
ATOM     27  C   UNL     1       1.481  -3.791  -4.148  0.00  0.00    +0.000 A 
ATOM     28  C   UNL     1       2.495  -4.583  -3.644  0.00  0.00    +0.000 A 
ATOM     29  C   UNL     1       2.220  -5.867  -3.211  0.00  0.00    +0.000 A 
ATOM     30  C   UNL     1       0.929  -6.356  -3.279  0.00  0.00    +0.006 A 
ENDBRANCH  24  25
ENDBRANCH  23  24
ENDBRANCH  22  23
ENDBRANCH   5  22
BRANCH   3  31
ATOM     31  O   UNL     1      -7.578  -6.552   0.160  0.00  0.00    -0.371 OA
BRANCH  31  32
ATOM     32  C   UNL     1      -7.691  -7.840   0.768  0.00  0.00    +0.195 C 
BRANCH  32  33
ATOM     33  C   UNL     1      -9.136  -8.268   0.772  0.00  0.00    -0.022 A 
ATOM     34  C   UNL     1      -9.951  -7.941   1.840  0.00  0.00    +0.006 A 
ATOM     35  C   UNL     1     -11.276  -8.334   1.844  0.00  0.00    +0.000 A 
ATOM     36  C   UNL     1     -11.787  -9.052   0.780  0.00  0.00    +0.000 A 
ATOM     37  C   UNL     1     -10.973  -9.378  -0.289  0.00  0.00    +0.000 A 
ATOM     38  C   UNL     1      -9.649  -8.982  -0.295  0.00  0.00    +0.006 A 
ENDBRANCH  32  33
ENDBRANCH  31  32
ENDBRANCH   3  31
TORSDOF 12
