REMARK  Name = ZINC13008106
REMARK  10 active torsions:
REMARK  status: ('A' for Active; 'I' for Inactive)
REMARK    1  A    between atoms: C_1  and  C_2
REMARK    2  A    between atoms: C_2  and  O_3
REMARK    3  A    between atoms: O_3  and  C_4
REMARK    4  A    between atoms: C_9  and  N_10
REMARK    5  A    between atoms: C_11  and  C_13
REMARK    6  A    between atoms: N_15  and  C_16
REMARK    7  A    between atoms: C_16  and  C_17
REMARK    8  A    between atoms: C_17  and  C_19
REMARK    9  A    between atoms: C_17  and  N_67
REMARK   10  A    between atoms: N_27  and  C_28
REMARK                            x       y       z     vdW  Elec       q    Type
REMARK                         _______ _______ _______ _____ _____    ______ ____
ROOT
ATOM      1  C   UNL     1       1.909   2.032  -0.356  0.00  0.00    +0.094 C 
ENDROOT
BRANCH   1   4
ATOM      2  C   UNL     1       3.487   2.623   1.405  0.00  0.00    +0.299 C 
ATOM      3  O   UNL     1       3.794   3.604   0.761  0.00  0.00    -0.265 OA
ATOM      4  N   UNL     1       2.553   1.772   0.934  0.00  0.00    -0.309 N 
ATOM      5  H   UNL     1       2.307   0.988   1.450  0.00  0.00    +0.149 HD
BRANCH   2   7
ATOM      6  N   UNL     1       5.076   3.208   3.191  0.00  0.00    -0.275 N 
ATOM      7  C   UNL     1       4.143   2.358   2.720  0.00  0.00    +0.303 C 
ATOM      8  O   UNL     1       3.835   1.377   3.365  0.00  0.00    -0.265 OA
ATOM      9  H   UNL     1       5.263   4.034   2.718  0.00  0.00    +0.155 HD
BRANCH   6  15
ATOM     10  C   UNL     1       6.418   3.908   5.079  0.00  0.00    +0.142 A 
ATOM     11  C   UNL     1       7.109   3.597   6.238  0.00  0.00    +0.047 A 
ATOM     12  C   UNL     1       7.162   2.288   6.682  0.00  0.00    +0.004 A 
ATOM     13  C   UNL     1       6.525   1.287   5.971  0.00  0.00    +0.002 A 
ATOM     14  C   UNL     1       5.829   1.590   4.817  0.00  0.00    +0.027 A 
ATOM     15  C   UNL     1       5.776   2.900   4.362  0.00  0.00    +0.076 A 
BRANCH  10  16
ATOM     16  O   UNL     1       6.365   5.195   4.642  0.00  0.00    -0.490 OA
BRANCH  16  18
ATOM     17  C   UNL     1       6.877   7.552   4.783  0.00  0.00    +0.048 C 
ATOM     18  C   UNL     1       7.047   6.175   5.427  0.00  0.00    +0.226 C 
ENDBRANCH  16  18
ENDBRANCH  10  16
ENDBRANCH   6  15
ENDBRANCH   2   7
ENDBRANCH   1   4
BRANCH   1  19
ATOM     19  C   UNL     1       0.981   0.868  -0.706  0.00  0.00    -0.020 C 
BRANCH  19  20
ATOM     20  C   UNL     1       0.382   1.097  -2.070  0.00  0.00    -0.059 A 
ATOM     21  C   UNL     1      -0.244   2.296  -2.360  0.00  0.00    +0.004 A 
ATOM     22  C   UNL     1      -0.792   2.510  -3.607  0.00  0.00    +0.023 A 
ATOM     23  C   UNL     1      -0.729   1.515  -4.581  0.00  0.00    +0.033 A 
ATOM     24  C   UNL     1      -0.099   0.314  -4.280  0.00  0.00    -0.025 A 
ATOM     25  C   UNL     1       0.451   0.105  -3.032  0.00  0.00    +0.007 A 
ATOM     26  C   UNL     1      -0.165  -0.570  -5.510  0.00  0.00    +0.056 C 
ATOM     27  C   UNL     1      -0.529   0.430  -6.631  0.00  0.00    +0.109 C 
ATOM     28  N   UNL     1      -1.222   1.507  -5.892  0.00  0.00    -0.332 N 
ATOM     29  C   UNL     1      -1.013   2.809  -6.540  0.00  0.00    +0.129 C 
ENDBRANCH  19  20
BRANCH  19  35
ATOM     30  C   UNL     1      -1.243   0.035  -0.236  0.00  0.00    -0.078 C 
ATOM     31  C   UNL     1      -2.278  -0.162   0.874  0.00  0.00    -0.019 C 
ATOM     32  C   UNL     1      -2.728   1.206   1.395  0.00  0.00    -0.004 C 
ATOM     33  C   UNL     1      -1.505   1.980   1.894  0.00  0.00    -0.019 C 
ATOM     34  C   UNL     1      -0.492   2.115   0.755  0.00  0.00    -0.078 C 
ATOM     35  N   UNL     1      -0.081   0.765   0.315  0.00  0.00    +0.385 N 
ATOM     36  H   UNL     1       0.283   0.248   1.124  0.00  0.00    -0.081 HD
ENDBRANCH  19  35
ENDBRANCH   1  19
TORSDOF 8
