REMARK  Name = ZINC39690521
REMARK  9 active torsions:
REMARK  status: ('A' for Active; 'I' for Inactive)
REMARK    1  A    between atoms: CG_7  and  CB_10
REMARK    2  A    between atoms: CB_10  and  CA_11
REMARK    3  A    between atoms: CA_11  and  C_13
REMARK    4  A    between atoms: CA_11  and  N_16
REMARK    5  A    between atoms: C_17  and  C_19
REMARK    6  A    between atoms: C_19  and  S_20
REMARK    7  A    between atoms: S_20  and  C_21
REMARK    8  A    between atoms: C_25  and  N_28
REMARK    9  A    between atoms: N_28  and  C_29
REMARK                            x       y       z     vdW  Elec       q    Type
REMARK                         _______ _______ _______ _____ _____    ______ ____
ROOT
ATOM      1  N   TRP A   1      -3.086   3.789  -1.929  0.00  0.00    -0.301 N 
ATOM      2  C   UNK A   0      -2.899   3.737  -3.263  0.00  0.00    +0.224 C 
ATOM      3  O   UNK A   0      -3.849   3.599  -4.003  0.00  0.00    -0.275 OA
ATOM      4  H   TRP A   1      -2.325   3.899  -1.337  0.00  0.00    +0.150 HD
ENDROOT
BRANCH   1   5
ATOM      5  CA  TRP A   1      -4.437   3.680  -1.374  0.00  0.00    +0.191 C 
BRANCH   5   6
ATOM      6  C   TRP A   1      -5.091   5.038  -1.373  0.00  0.00    +0.376 C 
ATOM      7  O   TRP A   1      -4.410   6.042  -1.257  0.00  0.00    -0.244 OA
ATOM      8  OXT TRP A   1      -6.301   5.132  -1.489  0.00  0.00    -0.244 OA
ENDBRANCH   5   6
BRANCH   5   9
ATOM      9  CB  TRP A   1      -4.358   3.151   0.060  0.00  0.00    +0.071 C 
BRANCH   9  16
ATOM     10  CZ3 TRP A   1      -0.017   1.384   0.010  0.00  0.00    +0.001 A 
ATOM     11  CH2 TRP A   1       0.002  -0.004   0.002  0.00  0.00    +0.002 A 
ATOM     12  CZ2 TRP A   1      -1.173  -0.723   0.009  0.00  0.00    +0.026 A 
ATOM     13  CE2 TRP A   1      -2.392  -0.053   0.024  0.00  0.00    +0.047 A 
ATOM     14  NE1 TRP A   1      -3.704  -0.472   0.034  0.00  0.00    -0.360 N 
ATOM     15  CD1 TRP A   1      -4.539   0.612   0.047  0.00  0.00    +0.087 A 
ATOM     16  CG  TRP A   1      -3.818   1.744   0.047  0.00  0.00    -0.020 A 
ATOM     17  CD2 TRP A   1      -2.406   1.353   0.032  0.00  0.00    +0.003 A 
ATOM     18  CE3 TRP A   1      -1.203   2.062   0.030  0.00  0.00    +0.010 A 
ATOM     19  HE1 TRP A   1      -3.993  -1.398   0.030  0.00  0.00    +0.165 HD
ENDBRANCH   9  16
ENDBRANCH   5   9
ENDBRANCH   1   5
BRANCH   2  20
ATOM     20  C   UNK A   0      -1.509   3.849  -3.834  0.00  0.00    +0.167 C 
BRANCH  20  21
ATOM     21  S   UNK A   0      -1.588   3.744  -5.643  0.00  0.00    -0.113 S 
BRANCH  21  22
ATOM     22  C   UNK A   0       0.142   3.893  -6.167  0.00  0.00    +0.246 C 
ATOM     23  N   UNK A   0       0.998   2.887  -5.498  0.00  0.00    -0.164 NA
ATOM     24  N   UNK A   0       2.042   3.214  -4.968  0.00  0.00    -0.156 NA
ATOM     25  C   UNK A   0       2.484   4.627  -4.979  0.00  0.00    +0.274 C 
ATOM     26  S   UNK A   0       0.912   5.442  -5.515  0.00  0.00    -0.075 S 
BRANCH  25  27
ATOM     27  N   UNK A   0       2.888   5.070  -3.642  0.00  0.00    -0.311 N 
ATOM     28  H   UNK A   0       2.298   5.636  -3.120  0.00  0.00    +0.149 HD
BRANCH  27  29
ATOM     29  C   UNK A   0       4.124   4.677  -3.119  0.00  0.00    +0.065 A 
ATOM     30  C   UNK A   0       4.972   3.872  -3.867  0.00  0.00    +0.026 A 
ATOM     31  C   UNK A   0       6.192   3.485  -3.347  0.00  0.00    +0.002 A 
ATOM     32  C   UNK A   0       6.570   3.899  -2.083  0.00  0.00    +0.003 A 
ATOM     33  C   UNK A   0       5.729   4.701  -1.334  0.00  0.00    +0.040 A 
ATOM     34  C   UNK A   0       4.509   5.097  -1.850  0.00  0.00    +0.144 A 
ATOM     35  F   UNK A   0       3.689   5.885  -1.120  0.00  0.00    -0.204 F 
ENDBRANCH  27  29
ENDBRANCH  25  27
ENDBRANCH  21  22
ENDBRANCH  20  21
ENDBRANCH   2  20
TORSDOF 9
