REMARK  Name = ZINC24986498
REMARK  6 active torsions:
REMARK  status: ('A' for Active; 'I' for Inactive)
REMARK    1  A    between atoms: C_1  and  C_2
REMARK    2  A    between atoms: C_2  and  C_4
REMARK    3  A    between atoms: C_2  and  N_21
REMARK    4  A    between atoms: C_22  and  C_24
REMARK    5  A    between atoms: C_24  and  O_25
REMARK    6  A    between atoms: O_25  and  C_26
REMARK                            x       y       z     vdW  Elec       q    Type
REMARK                         _______ _______ _______ _____ _____    ______ ____
ROOT
ATOM      1  C   UNL     1      -1.391  -0.566   0.128  0.00  0.00    +0.236 C 
ATOM      2  O   UNL     1      -1.698  -1.209   1.109  0.00  0.00    -0.274 OA
ATOM      3  N   UNL     1      -2.294  -0.354  -0.850  0.00  0.00    -0.300 N 
ATOM      4  C   UNL     1      -1.904   0.322  -2.095  0.00  0.00    +0.110 C 
ATOM      5  C   UNL     1      -2.303  -0.563  -3.281  0.00  0.00    +0.047 C 
ATOM      6  C   UNL     1      -3.792  -0.899  -3.185  0.00  0.00    +0.064 C 
ATOM      7  C   UNL     1      -4.066  -1.668  -1.892  0.00  0.00    +0.047 C 
ATOM      8  C   UNL     1      -3.685  -0.801  -0.694  0.00  0.00    +0.110 C 
ATOM      9  C   UNL     1      -4.202  -1.732  -4.369  0.00  0.00    +0.057 A 
ATOM     10  C   UNL     1      -5.334  -1.522  -5.079  0.00  0.00    +0.039 A 
ATOM     11  N   UNL     1      -5.386  -2.430  -6.053  0.00  0.00    -0.349 N 
ATOM     12  C   UNL     1      -4.331  -3.200  -5.977  0.00  0.00    +0.171 A 
ATOM     13  N   UNL     1      -3.569  -2.793  -4.935  0.00  0.00    -0.348 N 
ATOM     14  H   UNL     1      -2.729  -3.185  -4.647  0.00  0.00    +0.166 HD
ATOM     15  C   UNL     1      -6.317  -0.424  -4.752  0.00  0.00    +0.070 C 
ATOM     16  C   UNL     1      -6.017   0.069  -3.330  0.00  0.00    +0.088 C 
ATOM     17  N   UNL     1      -4.579   0.345  -3.195  0.00  0.00    -0.305 NA
ATOM     18  H   UNL     1      -4.393   0.897  -2.371  0.00  0.00    +0.123 HD
ATOM     19  H   UNL     1      -6.094  -2.509  -6.712  0.00  0.00    +0.166 HD
ENDROOT
BRANCH   1  21
ATOM     20  C   UNL     1      -0.019   1.489   0.339  0.00  0.00    +0.038 C 
ATOM     21  C   UNL     1       0.002  -0.003   0.003  0.00  0.00    +0.156 C 
BRANCH  21  22
ATOM     22  N   UNL     1       0.896  -0.701   0.930  0.00  0.00    -0.301 N 
ATOM     23  C   UNL     1       2.218  -0.757   0.677  0.00  0.00    +0.251 C 
ATOM     24  O   UNL     1       2.668  -0.231  -0.319  0.00  0.00    -0.272 OA
ATOM     25  H   UNL     1       0.536  -1.122   1.726  0.00  0.00    +0.150 HD
BRANCH  23  26
ATOM     26  C   UNL     1       3.138  -1.475   1.631  0.00  0.00    +0.324 C 
BRANCH  26  27
ATOM     27  O   UNL     1       4.481  -1.396   1.148  0.00  0.00    -0.483 OA
BRANCH  27  28
ATOM     28  C   UNL     1       5.442  -1.998   1.898  0.00  0.00    +0.121 A 
ATOM     29  C   UNL     1       5.099  -2.654   3.071  0.00  0.00    +0.047 A 
ATOM     30  C   UNL     1       6.078  -3.265   3.831  0.00  0.00    +0.023 A 
ATOM     31  C   UNL     1       7.399  -3.221   3.424  0.00  0.00    +0.041 A 
ATOM     32  C   UNL     1       7.744  -2.566   2.254  0.00  0.00    +0.023 A 
ATOM     33  C   UNL     1       6.767  -1.960   1.488  0.00  0.00    +0.047 A 
ATOM     34 CL   UNL     1       8.627  -3.988   4.381  0.00  0.00    -0.084 Cl
ENDBRANCH  27  28
ENDBRANCH  26  27
ENDBRANCH  23  26
ENDBRANCH  21  22
ENDBRANCH   1  21
TORSDOF 5
