REMARK  Name = ZINC52064606
REMARK  4 active torsions:
REMARK  status: ('A' for Active; 'I' for Inactive)
REMARK    1  A    between atoms: C_3  and  O_11
REMARK    2  A    between atoms: C_4  and  N_8
REMARK    3  A    between atoms: O_11  and  C_12
REMARK    4  A    between atoms: C_18  and  O_20
REMARK                            x       y       z     vdW  Elec       q    Type
REMARK                         _______ _______ _______ _____ _____    ______ ____
ROOT
ATOM      1  C   UNL     1      -0.009   1.364  -0.208  0.00  0.00    +0.042 A 
ATOM      2  C   UNL     1       1.178   2.072  -0.216  0.00  0.00    +0.051 A 
ATOM      3  C   UNL     1       2.380   1.411  -0.013  0.00  0.00    +0.151 A 
ATOM      4  C   UNL     1       2.390   0.040   0.199  0.00  0.00    +0.170 A 
ATOM      5  C   UNL     1       1.202  -0.665   0.206  0.00  0.00    +0.074 A 
ATOM      6  C   UNL     1       0.002  -0.004   0.003  0.00  0.00    +0.126 A 
ATOM      7  F   UNL     1      -1.159  -0.695   0.011  0.00  0.00    -0.205 F 
ENDROOT
BRANCH   4   8
ATOM      8  N   UNL     1       3.672  -0.667   0.415  0.00  0.00    +0.060 N 
ATOM      9  O   UNL     1       3.679  -1.862   0.599  0.00  0.00    -0.126 OA
ATOM     10  O   UNL     1       4.711  -0.050   0.408  0.00  0.00    -0.126 OA
ENDBRANCH   4   8
BRANCH   3  11
ATOM     11  O   UNL     1       3.549   2.106  -0.021  0.00  0.00    -0.484 OA
BRANCH  11  12
ATOM     12  C   UNL     1       3.457   3.528  -0.124  0.00  0.00    +0.202 C 
ATOM     13  C   UNL     1       3.349   3.927  -1.597  0.00  0.00    +0.047 C 
ATOM     14  C   UNL     1       3.250   5.450  -1.707  0.00  0.00    +0.004 C 
ATOM     15  C   UNL     1       4.500   6.087  -1.097  0.00  0.00    +0.003 C 
ATOM     16  C   UNL     1       4.608   5.688   0.376  0.00  0.00    +0.035 C 
ATOM     17  C   UNL     1       4.706   4.166   0.487  0.00  0.00    +0.155 C 
BRANCH  17  18
ATOM     18  O   UNL     1       5.865   3.711  -0.216  0.00  0.00    -0.388 OA
ATOM     19  H   UNL     1       6.696   4.076   0.118  0.00  0.00    +0.210 HD
ENDBRANCH  17  18
ENDBRANCH  11  12
ENDBRANCH   3  11
TORSDOF 4
