REMARK  Name = ZINC63005714
REMARK  3 active torsions:
REMARK  status: ('A' for Active; 'I' for Inactive)
REMARK    1  A    between atoms: C_4  and  C_8
REMARK    2  A    between atoms: C_8  and  C_10
REMARK    3  A    between atoms: C_8  and  N_19
REMARK                            x       y       z     vdW  Elec       q    Type
REMARK                         _______ _______ _______ _____ _____    ______ ____
ROOT
ATOM      1  C   UNL     1       3.712  -0.708  -0.038  0.00  0.00    +0.113 C 
ENDROOT
BRANCH   1   2
ATOM      2  C   UNL     1       4.256  -0.730  -1.443  0.00  0.00    -0.021 A 
ATOM      3  C   UNL     1       3.766  -1.643  -2.358  0.00  0.00    +0.047 A 
ATOM      4  C   UNL     1       4.266  -1.665  -3.650  0.00  0.00    +0.162 A 
ATOM      5  C   UNL     1       5.257  -0.772  -4.024  0.00  0.00    +0.193 A 
ATOM      6  C   UNL     1       5.746   0.143  -3.105  0.00  0.00    +0.162 A 
ATOM      7  C   UNL     1       5.240   0.165  -1.816  0.00  0.00    +0.047 A 
ATOM      8  F   UNL     1       6.712   1.014  -3.467  0.00  0.00    -0.202 F 
ATOM      9  F   UNL     1       5.745  -0.793  -5.283  0.00  0.00    -0.199 F 
ATOM     10  F   UNL     1       3.787  -2.558  -4.544  0.00  0.00    -0.202 F 
ENDBRANCH   1   2
BRANCH   1  14
ATOM     11  C   UNL     1      -0.017   1.379   0.010  0.00  0.00    +0.016 A 
ATOM     12  C   UNL     1       1.171   2.086   0.002  0.00  0.00    +0.017 A 
ATOM     13  C   UNL     1       2.378   1.411  -0.013  0.00  0.00    +0.023 A 
ATOM     14  C   UNL     1       2.397   0.028  -0.021  0.00  0.00    -0.011 A 
ATOM     15  C   UNL     1       1.210  -0.679  -0.013  0.00  0.00    +0.022 A 
ATOM     16  C   UNL     1       0.002  -0.004   0.002  0.00  0.00    +0.018 A 
ATOM     17 BR   UNL     1      -1.623  -0.972   0.013  0.00  0.00    -0.050 Br
ATOM     18 BR   UNL     1       4.002   2.379  -0.024  0.00  0.00    -0.050 Br
ENDBRANCH   1  14
BRANCH   1  19
ATOM     19  N   UNL     1       3.509  -2.085   0.430  0.00  0.00    -0.320 NA
ATOM     20  H   UNL     1       3.205  -2.099   1.393  0.00  0.00    +0.119 HD
ATOM     21  H   UNL     1       2.856  -2.576  -0.162  0.00  0.00    +0.119 HD
ENDBRANCH   1  19
TORSDOF 3
