REMARK  Name = ZINC17143936
REMARK  9 active torsions:
REMARK  status: ('A' for Active; 'I' for Inactive)
REMARK    1  A    between atoms: C_1  and  C_2
REMARK    2  A    between atoms: C_2  and  C_35
REMARK    3  A    between atoms: C_6  and  C_22
REMARK    4  A    between atoms: C_8  and  C_12
REMARK    5  A    between atoms: C_9  and  N_11
REMARK    6  A    between atoms: C_12  and  O_14
REMARK    7  A    between atoms: O_14  and  C_15
REMARK    8  A    between atoms: C_15  and  C_16
REMARK    9  A    between atoms: C_25  and  C_28
REMARK                            x       y       z     vdW  Elec       q    Type
REMARK                         _______ _______ _______ _____ _____    ______ ____
ROOT
ATOM      1  C   UNL     1       4.927   0.130   0.954  0.00  0.00    +0.012 C 
ATOM      2  C   UNL     1       4.878   0.315  -0.564  0.00  0.00    -0.021 C 
ATOM      3  C   UNL     1       3.654  -0.405  -1.131  0.00  0.00    +0.081 C 
ATOM      4  C   UNL     1       2.396   0.184  -0.535  0.00  0.00    +0.115 C 
ATOM      5  C   UNL     1       2.346   1.483  -0.188  0.00  0.00    +0.045 C 
ATOM      6  C   UNL     1       1.083   2.077   0.387  0.00  0.00    +0.097 C 
ATOM      7  C   UNL     1      -0.091   1.190   0.078  0.00  0.00    +0.105 C 
ATOM      8  C   UNL     1       0.103  -0.105  -0.283  0.00  0.00    +0.195 C 
ATOM      9  O   UNL     1       1.335  -0.627  -0.370  0.00  0.00    -0.446 OA
ATOM     10  C   UNL     1       3.462   2.328  -0.348  0.00  0.00    +0.164 C 
ATOM     11  O   UNL     1       3.373   3.498  -0.037  0.00  0.00    -0.292 OA
ATOM     12  C   UNL     1       4.762   1.806  -0.897  0.00  0.00    +0.086 C 
ATOM     13  C   UNL     1       6.149  -0.259  -1.193  0.00  0.00    +0.012 C 
ENDROOT
BRANCH   6  14
ATOM     14  C   UNL     1       1.228   2.211   1.881  0.00  0.00    -0.035 A 
ATOM     15  C   UNL     1       1.436   1.088   2.659  0.00  0.00    +0.005 A 
ATOM     16  C   UNL     1       1.574   1.212   4.029  0.00  0.00    +0.012 A 
ATOM     17  C   UNL     1       1.493   2.458   4.622  0.00  0.00    +0.055 A 
ATOM     18  C   UNL     1       1.280   3.581   3.844  0.00  0.00    +0.012 A 
ATOM     19  C   UNL     1       1.147   3.457   2.474  0.00  0.00    +0.005 A 
BRANCH  17  20
ATOM     20  C   UNL     1       1.637   2.592   6.116  0.00  0.00    +0.417 C 
ATOM     21  F   UNL     1       0.379   2.483   6.717  0.00  0.00    -0.166 F 
ATOM     22  F   UNL     1       2.474   1.579   6.596  0.00  0.00    -0.166 F 
ATOM     23  F   UNL     1       2.193   3.839   6.420  0.00  0.00    -0.166 F 
ENDBRANCH  17  20
ENDBRANCH   6  14
BRANCH   8  24
ATOM     24  N   UNL     1      -0.981  -0.892  -0.564  0.00  0.00    -0.329 N 
ATOM     25  H   UNL     1      -1.724  -0.532  -1.073  0.00  0.00    +0.145 HD
ATOM     26  H   UNL     1      -1.007  -1.811  -0.254  0.00  0.00    +0.145 HD
ENDBRANCH   8  24
BRANCH   7  27
ATOM     27  C   UNL     1      -1.395   1.705   0.157  0.00  0.00    +0.341 C 
ATOM     28  O   UNL     1      -2.352   0.965   0.018  0.00  0.00    -0.245 OA
BRANCH  27  29
ATOM     29  O   UNL     1      -1.588   3.022   0.386  0.00  0.00    -0.456 OA
BRANCH  29  30
ATOM     30  C   UNL     1      -2.941   3.478   0.454  0.00  0.00    +0.268 C 
BRANCH  30  31
ATOM     31  C   UNL     1      -2.959   4.962   0.715  0.00  0.00    -0.010 A 
ATOM     32  C   UNL     1      -2.983   5.435   2.013  0.00  0.00    +0.007 A 
ATOM     33  C   UNL     1      -2.994   6.797   2.252  0.00  0.00    +0.000 A 
ATOM     34  C   UNL     1      -2.993   7.684   1.193  0.00  0.00    +0.000 A 
ATOM     35  C   UNL     1      -2.974   7.211  -0.106  0.00  0.00    +0.000 A 
ATOM     36  C   UNL     1      -2.957   5.849  -0.345  0.00  0.00    +0.007 A 
ENDBRANCH  30  31
ENDBRANCH  29  30
ENDBRANCH  27  29
ENDBRANCH   7  27
TORSDOF 7
