REMARK  Name = ZINC67414951
REMARK  5 active torsions:
REMARK  status: ('A' for Active; 'I' for Inactive)
REMARK    1  A    between atoms: C_4  and  N_9
REMARK    2  A    between atoms: C_5  and  C_6
REMARK    3  A    between atoms: C_10  and  C_12
REMARK    4  A    between atoms: N_14  and  C_15
REMARK    5  A    between atoms: N_24  and  C_26
REMARK                            x       y       z     vdW  Elec       q    Type
REMARK                         _______ _______ _______ _____ _____    ______ ____
ROOT
ATOM      1  C   UNL     1       3.140  -3.833  -0.048  0.00  0.00    +0.300 C 
ATOM      2  O   UNL     1       2.240  -4.648  -0.044  0.00  0.00    -0.265 OA
ATOM      3  N   UNL     1       4.423  -4.246  -0.062  0.00  0.00    -0.304 N 
ATOM      4  H   UNL     1       5.142  -3.595  -0.065  0.00  0.00    +0.149 HD
ENDROOT
BRANCH   3   5
ATOM      5  C   UNL     1       4.731  -5.675  -0.073  0.00  0.00    +0.076 C 
ATOM      6  C   UNL     1       4.768  -6.225   1.355  0.00  0.00    -0.007 C 
ATOM      7  C   UNL     1       5.793  -5.463   2.184  0.00  0.00    +0.003 C 
ATOM      8  C   UNL     1       7.179  -5.465   1.562  0.00  0.00    +0.001 C 
ATOM      9  C   UNL     1       7.173  -5.151   0.074  0.00  0.00    +0.003 C 
ATOM     10  C   UNL     1       6.108  -5.921  -0.693  0.00  0.00    -0.007 C 
ATOM     11  C   UNL     1       6.399  -7.417  -0.709  0.00  0.00    -0.073 C 
ATOM     12  N   UNL     1       6.311  -8.031   0.612  0.00  0.00    +0.382 N 
ATOM     13  C   UNL     1       5.073  -7.717   1.318  0.00  0.00    -0.073 C 
ATOM     14  H   UNL     1       7.109  -7.773   1.171  0.00  0.00    -0.081 HD
BRANCH  12  15
ATOM     15  C   UNL     1       6.380  -9.488   0.440  0.00  0.00    -0.069 C 
ATOM     16  C   UNL     1       7.402 -10.252   1.285  0.00  0.00    -0.017 C 
ATOM     17  C   UNL     1       7.636 -10.064  -0.216  0.00  0.00    -0.017 C 
ENDBRANCH  12  15
ENDBRANCH   3   5
BRANCH   1  19
ATOM     18  N   UNL     1       1.543  -1.961  -0.023  0.00  0.00    -0.272 N 
ATOM     19  C   UNL     1       2.826  -2.374  -0.037  0.00  0.00    +0.304 C 
ATOM     20  O   UNL     1       3.726  -1.559  -0.041  0.00  0.00    -0.265 OA
ATOM     21  H   UNL     1       0.824  -2.612  -0.020  0.00  0.00    +0.156 HD
BRANCH  18  25
ATOM     22  C   UNL     1      -0.018   1.440   0.010  0.00  0.00    +0.022 A 
ATOM     23  C   UNL     1       1.186   2.043   0.002  0.00  0.00    +0.048 A 
ATOM     24  S   UNL     1       2.328   0.679  -0.017  0.00  0.00    -0.081 S 
ATOM     25  C   UNL     1       1.252  -0.608  -0.013  0.00  0.00    +0.084 A 
ATOM     26  C   UNL     1       0.002  -0.004   0.002  0.00  0.00    +0.065 A 
BRANCH  26  27
ATOM     27  C   UNL     1      -1.235  -0.792   0.010  0.00  0.00    +0.244 C 
ATOM     28  O   UNL     1      -1.182  -2.008   0.004  0.00  0.00    -0.270 OA
ATOM     29  N   UNL     1      -2.430  -0.170   0.025  0.00  0.00    -0.325 N 
ATOM     30  H   UNL     1      -2.473   0.799   0.030  0.00  0.00    +0.145 HD
ATOM     31  H   UNL     1      -3.248  -0.691   0.030  0.00  0.00    +0.145 HD
ENDBRANCH  26  27
ENDBRANCH  18  25
ENDBRANCH   1  19
TORSDOF 5
