REMARK  Name = ZINC12377313
REMARK  5 active torsions:
REMARK  status: ('A' for Active; 'I' for Inactive)
REMARK    1  A    between atoms: C_8  and  C_25
REMARK    2  A    between atoms: C_9  and  N_24
REMARK    3  A    between atoms: N_10  and  C_17
REMARK    4  A    between atoms: N_29  and  C_30
REMARK    5  A    between atoms: C_30  and  C_31
REMARK                            x       y       z     vdW  Elec       q    Type
REMARK                         _______ _______ _______ _____ _____    ______ ____
ROOT
ATOM      1  C   UNL     1       0.194   1.686  -2.182  0.00  0.00    +0.000 A 
ATOM      2  C   UNL     1      -1.009   2.361  -2.139  0.00  0.00    +0.002 A 
ATOM      3  C   UNL     1      -1.140   3.588  -1.510  0.00  0.00    +0.024 A 
ATOM      4  C   UNL     1       0.005   4.131  -0.924  0.00  0.00    +0.041 A 
ATOM      5  C   UNL     1       1.221   3.439  -0.979  0.00  0.00    -0.001 A 
ATOM      6  C   UNL     1       1.342   2.215  -1.601  0.00  0.00    +0.007 A 
ATOM      7  C   UNL     1       2.221   4.293  -0.266  0.00  0.00    +0.144 C 
ATOM      8  C   UNL     1       3.335   4.707  -1.183  0.00  0.00    +0.089 C 
ATOM      9  C   UNL     1       4.606   4.258  -1.044  0.00  0.00    +0.108 C 
ATOM     10  N   UNL     1       4.971   3.386  -0.033  0.00  0.00    -0.257 N 
ATOM     11  C   UNL     1       4.082   3.175   0.986  0.00  0.00    +0.066 C 
ATOM     12  C   UNL     1       2.786   3.579   0.933  0.00  0.00    +0.082 C 
ATOM     13  C   UNL     1       2.142   3.219   2.126  0.00  0.00    +0.339 C 
ATOM     14  O   UNL     1       0.973   3.449   2.375  0.00  0.00    -0.245 OA
ATOM     15  O   UNL     1       2.991   2.586   2.962  0.00  0.00    -0.455 OA
ATOM     16  C   UNL     1       4.271   2.507   2.316  0.00  0.00    +0.284 C 
ATOM     17  C   UNL     1       1.431   5.505   0.179  0.00  0.00    +0.241 C 
ATOM     18  O   UNL     1       1.858   6.457   0.797  0.00  0.00    -0.274 OA
ATOM     19  N   UNL     1       0.162   5.326  -0.244  0.00  0.00    -0.265 N 
ENDROOT
BRANCH  10  20
ATOM     20  C   UNL     1       6.212   2.739  -0.052  0.00  0.00    +0.041 A 
ATOM     21  C   UNL     1       6.363   1.544  -0.745  0.00  0.00    +0.024 A 
ATOM     22  C   UNL     1       7.589   0.910  -0.767  0.00  0.00    +0.003 A 
ATOM     23  C   UNL     1       8.665   1.457  -0.091  0.00  0.00    +0.020 A 
ATOM     24  C   UNL     1       8.517   2.644   0.605  0.00  0.00    +0.043 A 
ATOM     25  C   UNL     1       7.292   3.286   0.626  0.00  0.00    +0.043 A 
ATOM     26 CL   UNL     1       9.869   3.328   1.452  0.00  0.00    -0.083 Cl
ENDBRANCH  10  20
BRANCH   9  27
ATOM     27  N   UNL     1       5.564   4.681  -1.934  0.00  0.00    -0.345 N 
ATOM     28  H   UNL     1       5.309   5.220  -2.700  0.00  0.00    +0.144 HD
ATOM     29  H   UNL     1       6.493   4.440  -1.798  0.00  0.00    +0.144 HD
ENDBRANCH   9  27
BRANCH   8  30
ATOM     30  C   UNL     1       3.042   5.615  -2.251  0.00  0.00    +0.100 C 
ATOM     31  N   UNL     1       2.810   6.336  -3.098  0.00  0.00    -0.191 NA
ENDBRANCH   8  30
BRANCH  19  32
ATOM     32  C   UNL     1      -0.922   6.284  -0.011  0.00  0.00    +0.149 C 
BRANCH  32  33
ATOM     33  C   UNL     1      -0.978   7.266  -1.153  0.00  0.00    -0.027 A 
ATOM     34  C   UNL     1      -0.247   8.438  -1.093  0.00  0.00    +0.005 A 
ATOM     35  C   UNL     1      -0.294   9.338  -2.141  0.00  0.00    +0.003 A 
ATOM     36  C   UNL     1      -1.080   9.071  -3.247  0.00  0.00    +0.038 A 
ATOM     37  C   UNL     1      -1.816   7.900  -3.305  0.00  0.00    +0.124 A 
ATOM     38  C   UNL     1      -1.764   6.997  -2.257  0.00  0.00    +0.043 A 
ATOM     39  F   UNL     1      -2.585   7.638  -4.385  0.00  0.00    -0.205 F 
ENDBRANCH  32  33
ENDBRANCH  19  32
TORSDOF 5
