REMARK  Name = ZINC01187503
REMARK  5 active torsions:
REMARK  status: ('A' for Active; 'I' for Inactive)
REMARK    1  A    between atoms: C_6  and  S_7
REMARK    2  A    between atoms: S_7  and  N_10
REMARK    3  A    between atoms: N_10  and  N_11
REMARK    4  A    between atoms: C_12  and  C_13
REMARK    5  A    between atoms: C_18  and  O_19
REMARK                            x       y       z     vdW  Elec       q    Type
REMARK                         _______ _______ _______ _____ _____    ______ ____
ROOT
ATOM      1  N   UNL     1      -0.011   0.966   0.007  0.00  0.00    -0.137 N 
ATOM      2  H   UNL     1       0.002  -0.004   0.002  0.00  0.00    +0.197 HD
ENDROOT
BRANCH   1   3
ATOM      3  S   UNL     1      -1.456   1.774   0.019  0.00  0.00    +0.086 S 
ATOM      4  O   UNL     1      -2.472   0.792  -0.128  0.00  0.00    -0.149 OA
ATOM      5  O   UNL     1      -1.413   2.667   1.123  0.00  0.00    -0.149 OA
BRANCH   3  11
ATOM      6  C   UNL     1      -1.023   4.066  -1.400  0.00  0.00    +0.030 A 
ATOM      7  C   UNL     1      -1.057   4.846  -2.540  0.00  0.00    +0.022 A 
ATOM      8  C   UNL     1      -1.587   4.335  -3.712  0.00  0.00    +0.041 A 
ATOM      9  C   UNL     1      -2.076   3.042  -3.743  0.00  0.00    +0.022 A 
ATOM     10  C   UNL     1      -2.036   2.260  -2.604  0.00  0.00    +0.030 A 
ATOM     11  C   UNL     1      -1.507   2.771  -1.433  0.00  0.00    +0.110 A 
ATOM     12 CL   UNL     1      -1.636   5.317  -5.143  0.00  0.00    -0.084 Cl
ENDBRANCH   3  11
ENDBRANCH   1   3
BRANCH   1  13
ATOM     13  N   UNL     1       1.193   1.683  -0.000  0.00  0.00    -0.174 NA
ATOM     14  C   UNL     1       2.325   1.049  -0.015  0.00  0.00    +0.143 C 
BRANCH  14  15
ATOM     15  C   UNL     1       3.592   1.804  -0.022  0.00  0.00    +0.037 A 
ATOM     16  C   UNL     1       4.812   1.126  -0.038  0.00  0.00    +0.028 A 
ATOM     17  C   UNL     1       5.994   1.838  -0.046  0.00  0.00    +0.019 A 
ATOM     18  C   UNL     1       5.975   3.223  -0.038  0.00  0.00    +0.019 A 
ATOM     19  C   UNL     1       4.772   3.905  -0.024  0.00  0.00    +0.047 A 
ATOM     20  C   UNL     1       3.577   3.205  -0.021  0.00  0.00    +0.126 A 
ATOM     21 BR   UNL     1       7.647   0.920  -0.067  0.00  0.00    -0.050 Br
BRANCH  20  22
ATOM     22  O   UNL     1       2.395   3.874  -0.011  0.00  0.00    -0.506 OA
ATOM     23  H   UNL     1       2.059   4.067   0.875  0.00  0.00    +0.292 HD
ENDBRANCH  20  22
ENDBRANCH  14  15
ENDBRANCH   1  13
TORSDOF 5
