REMARK  Name = ZINC00547971
REMARK  7 active torsions:
REMARK  status: ('A' for Active; 'I' for Inactive)
REMARK    1  A    between atoms: C_1  and  C_2
REMARK    2  A    between atoms: C_2  and  C_3
REMARK    3  A    between atoms: C_3  and  C_4
REMARK    4  A    between atoms: N_14  and  N_15
REMARK    5  A    between atoms: C_16  and  C_17
REMARK    6  A    between atoms: C_20  and  O_24
REMARK    7  A    between atoms: C_22  and  O_23
REMARK                            x       y       z     vdW  Elec       q    Type
REMARK                         _______ _______ _______ _____ _____    ______ ____
ROOT
ATOM      1  C   UNL     1      -1.415  -2.052   0.131  0.00  0.00    +0.135 A 
ATOM      2  N   UNL     1      -0.265  -2.657   0.129  0.00  0.00    -0.232 NA
ATOM      3  C   UNL     1      -0.171  -4.003  -0.000  0.00  0.00    +0.078 A 
ATOM      4  C   UNL     1       1.064  -4.655  -0.002  0.00  0.00    +0.028 A 
ATOM      5  C   UNL     1       1.109  -6.025  -0.136  0.00  0.00    +0.002 A 
ATOM      6  C   UNL     1      -0.059  -6.765  -0.270  0.00  0.00    +0.001 A 
ATOM      7  C   UNL     1      -1.280  -6.149  -0.272  0.00  0.00    +0.015 A 
ATOM      8  C   UNL     1      -1.354  -4.764  -0.137  0.00  0.00    +0.067 A 
ATOM      9  C   UNL     1      -2.638  -4.050  -0.131  0.00  0.00    +0.282 A 
ATOM     10  O   UNL     1      -3.693  -4.647  -0.244  0.00  0.00    -0.265 OA
ATOM     11  N   UNL     1      -2.603  -2.705   0.011  0.00  0.00    -0.182 N 
ENDROOT
BRANCH  11  12
ATOM     12  N   UNL     1      -3.799  -1.977   0.028  0.00  0.00    -0.170 NA
ATOM     13  C   UNL     1      -4.637  -2.127   1.010  0.00  0.00    +0.145 C 
BRANCH  13  14
ATOM     14  C   UNL     1      -5.944  -1.450   0.972  0.00  0.00    +0.036 A 
ATOM     15  C   UNL     1      -6.845  -1.605   2.030  0.00  0.00    +0.016 A 
ATOM     16  C   UNL     1      -8.066  -0.970   1.991  0.00  0.00    +0.046 A 
ATOM     17  C   UNL     1      -8.407  -0.175   0.903  0.00  0.00    +0.120 A 
ATOM     18  C   UNL     1      -7.520  -0.015  -0.152  0.00  0.00    +0.091 A 
ATOM     19  C   UNL     1      -6.287  -0.642  -0.122  0.00  0.00    +0.129 A 
BRANCH  19  20
ATOM     20  O   UNL     1      -5.416  -0.482  -1.150  0.00  0.00    -0.506 OA
ATOM     21  H   UNL     1      -5.515  -1.136  -1.856  0.00  0.00    +0.292 HD
ENDBRANCH  19  20
BRANCH  17  22
ATOM     22  O   UNL     1      -9.614   0.448   0.872  0.00  0.00    -0.507 OA
ATOM     23  H   UNL     1      -9.611   1.331   1.266  0.00  0.00    +0.292 HD
ENDBRANCH  17  22
ENDBRANCH  13  14
ENDBRANCH  11  12
BRANCH   1  24
ATOM     24  C   UNL     1      -1.435  -0.553   0.279  0.00  0.00    +0.076 C 
BRANCH  24  26
ATOM     25  C   UNL     1      -0.021   1.489   0.548  0.00  0.00    +0.004 C 
ATOM     26  C   UNL     1      -0.001  -0.033   0.397  0.00  0.00    +0.004 C 
ENDBRANCH  24  26
ENDBRANCH   1  24
TORSDOF 6
