REMARK  Name = ZINC36877101
REMARK  10 active torsions:
REMARK  status: ('A' for Active; 'I' for Inactive)
REMARK    1  A    between atoms: C_1  and  C_2
REMARK    2  A    between atoms: C_3  and  C_12
REMARK    3  A    between atoms: C_12  and  C_14
REMARK    4  A    between atoms: C_14  and  N_15
REMARK    5  A    between atoms: C_18  and  C_22
REMARK    6  A    between atoms: C_18  and  C_23
REMARK    7  A    between atoms: C_26  and  C_29
REMARK    8  A    between atoms: C_29  and  C_30
REMARK    9  A    between atoms: C_29  and  C_31
REMARK   10  A    between atoms: C_29  and  C_32
REMARK                            x       y       z     vdW  Elec       q    Type
REMARK                         _______ _______ _______ _____ _____    ______ ____
ROOT
ATOM      1  N   UNL     1      -0.039   0.970  -4.420  0.00  0.00    -0.216 N 
ATOM      2  C   UNL     1       0.977   0.876  -5.300  0.00  0.00    +0.251 C 
ATOM      3  O   UNL     1       2.151   0.707  -5.048  0.00  0.00    -0.272 OA
ATOM      4  C   UNL     1       0.346   1.023  -6.671  0.00  0.00    +0.135 C 
ATOM      5  N   UNL     1      -1.086   1.200  -6.376  0.00  0.00    -0.281 N 
ATOM      6  C   UNL     1      -1.212   1.150  -5.037  0.00  0.00    +0.310 C 
ATOM      7  O   UNL     1      -2.273   1.259  -4.454  0.00  0.00    -0.252 OA
ATOM      8  C   UNL     1       0.903   2.253  -7.390  0.00  0.00    +0.047 C 
ATOM      9  H   UNL     1      -1.800   1.325  -7.021  0.00  0.00    +0.152 HD
ENDROOT
BRANCH   4  10
ATOM     10  C   UNL     1       0.569  -0.220  -7.493  0.00  0.00    -0.015 A 
ATOM     11  C   UNL     1       1.697  -0.992  -7.288  0.00  0.00    +0.006 A 
ATOM     12  C   UNL     1       1.901  -2.132  -8.042  0.00  0.00    +0.004 A 
ATOM     13  C   UNL     1       0.976  -2.501  -9.001  0.00  0.00    -0.042 A 
ATOM     14  C   UNL     1      -0.152  -1.730  -9.206  0.00  0.00    +0.004 A 
ATOM     15  C   UNL     1      -0.359  -0.592  -8.449  0.00  0.00    +0.006 A 
BRANCH  13  16
ATOM     16  C   UNL     1       1.199  -3.744  -9.824  0.00  0.00    -0.013 C 
ATOM     17  C   UNL     1       1.278  -4.961  -8.899  0.00  0.00    +0.015 C 
ATOM     18  C   UNL     1       0.037  -3.922 -10.803  0.00  0.00    +0.015 C 
ATOM     19  C   UNL     1       2.508  -3.611 -10.604  0.00  0.00    +0.015 C 
ENDBRANCH  13  16
ENDBRANCH   4  10
BRANCH   1  20
ATOM     20  C   UNL     1       0.121   0.881  -2.966  0.00  0.00    +0.197 C 
BRANCH  20  21
ATOM     21  C   UNL     1      -0.005  -0.557  -2.534  0.00  0.00    +0.183 C 
ATOM     22  O   UNL     1      -0.113  -1.434  -3.367  0.00  0.00    -0.290 OA
BRANCH  21  25
ATOM     23  C   UNL     1      -2.533  -0.926  -0.777  0.00  0.00    +0.064 C 
ATOM     24  C   UNL     1      -1.096  -1.059  -0.340  0.00  0.00    +0.024 A 
ATOM     25  C   UNL     1       0.002  -0.886  -1.156  0.00  0.00    +0.047 A 
ATOM     26  C   UNL     1       1.186  -1.113  -0.304  0.00  0.00    +0.010 A 
ATOM     27  C   UNL     1       2.559  -1.087  -0.531  0.00  0.00    +0.011 A 
ATOM     28  C   UNL     1       3.427  -1.351   0.506  0.00  0.00    +0.001 A 
ATOM     29  C   UNL     1       2.937  -1.644   1.770  0.00  0.00    +0.002 A 
ATOM     30  C   UNL     1       1.581  -1.674   2.008  0.00  0.00    +0.026 A 
ATOM     31  C   UNL     1       0.688  -1.409   0.974  0.00  0.00    +0.047 A 
ATOM     32  N   UNL     1      -0.690  -1.360   0.908  0.00  0.00    -0.358 N 
ATOM     33  H   UNL     1      -1.284  -1.522   1.657  0.00  0.00    +0.166 HD
ENDBRANCH  21  25
ENDBRANCH  20  21
ENDBRANCH   1  20
TORSDOF 5
