REMARK  Name = ZINC12643937
REMARK  12 active torsions:
REMARK  status: ('A' for Active; 'I' for Inactive)
REMARK    1  A    between atoms: C_1  and  C_2
REMARK    2  A    between atoms: C_5  and  N_11
REMARK    3  A    between atoms: C_6  and  N_8
REMARK    4  A    between atoms: C_12  and  C_14
REMARK    5  A    between atoms: C_14  and  C_16
REMARK    6  A    between atoms: C_14  and  O_22
REMARK    7  A    between atoms: O_22  and  C_23
REMARK    8  A    between atoms: C_23  and  C_25
REMARK    9  A    between atoms: C_25  and  N_26
REMARK   10  A    between atoms: N_26  and  S_27
REMARK   11  A    between atoms: S_27  and  C_30
REMARK   12  A    between atoms: C_31  and  C_32
REMARK                            x       y       z     vdW  Elec       q    Type
REMARK                         _______ _______ _______ _____ _____    ______ ____
ROOT
ATOM      1  C   UNL     1       3.481  -0.931   0.256  0.00  0.00    +0.292 C 
ENDROOT
BRANCH   1   2
ATOM      2  C   UNL     1       4.193  -0.550   1.528  0.00  0.00    +0.002 A 
ATOM      3  C   UNL     1       3.861  -1.170   2.718  0.00  0.00    +0.008 A 
ATOM      4  C   UNL     1       4.518  -0.824   3.884  0.00  0.00    +0.000 A 
ATOM      5  C   UNL     1       5.500   0.149   3.862  0.00  0.00    +0.000 A 
ATOM      6  C   UNL     1       5.829   0.772   2.673  0.00  0.00    +0.000 A 
ATOM      7  C   UNL     1       5.175   0.422   1.506  0.00  0.00    +0.008 A 
ENDBRANCH   1   2
BRANCH   1   9
ATOM      8  N   UNL     1       2.236   1.192   0.007  0.00  0.00    -0.280 N 
ATOM      9  C   UNL     1       2.198  -0.148   0.145  0.00  0.00    +0.263 C 
ATOM     10  O   UNL     1       1.131  -0.724   0.180  0.00  0.00    -0.271 OA
ATOM     11  H   UNL     1       3.087   1.645  -0.102  0.00  0.00    +0.155 HD
BRANCH   8  16
ATOM     12  C   UNL     1      -2.581   4.189   0.068  0.00  0.00    +0.044 C 
ATOM     13  C   UNL     1      -1.301   3.393   0.052  0.00  0.00    -0.048 A 
ATOM     14  C   UNL     1      -1.246   2.163   0.682  0.00  0.00    +0.005 A 
ATOM     15  C   UNL     1      -0.073   1.433   0.673  0.00  0.00    +0.026 A 
ATOM     16  C   UNL     1       1.048   1.931   0.022  0.00  0.00    +0.064 A 
ATOM     17  C   UNL     1       0.988   3.164  -0.613  0.00  0.00    +0.148 A 
ATOM     18  C   UNL     1      -0.186   3.892  -0.596  0.00  0.00    +0.038 A 
BRANCH  17  19
ATOM     19  N   UNL     1       2.181   3.699  -1.308  0.00  0.00    +0.058 N 
ATOM     20  O   UNL     1       2.158   4.821  -1.781  0.00  0.00    -0.126 OA
ATOM     21  O   UNL     1       3.185   3.017  -1.406  0.00  0.00    -0.126 OA
ENDBRANCH  17  19
ENDBRANCH   8  16
ENDBRANCH   1   9
BRANCH   1  22
ATOM     22  O   UNL     1       3.180  -2.351   0.276  0.00  0.00    -0.446 OA
BRANCH  22  23
ATOM     23  C   UNL     1       4.106  -3.177  -0.237  0.00  0.00    +0.324 C 
ATOM     24  O   UNL     1       5.134  -2.728  -0.687  0.00  0.00    -0.249 OA
BRANCH  23  25
ATOM     25  C   UNL     1       3.865  -4.665  -0.250  0.00  0.00    +0.226 C 
BRANCH  25  26
ATOM     26  N   UNL     1       5.015  -5.341  -0.856  0.00  0.00    -0.180 NA
ATOM     27  H   UNL     1       5.665  -4.830  -1.363  0.00  0.00    +0.149 HD
BRANCH  26  28
ATOM     28  S   UNL     1       5.203  -6.976  -0.675  0.00  0.00    +0.052 S 
ATOM     29  O   UNL     1       6.380  -7.330  -1.389  0.00  0.00    -0.154 OA
ATOM     30  O   UNL     1       5.040  -7.253   0.709  0.00  0.00    -0.154 OA
BRANCH  28  31
ATOM     31  C   UNL     1       3.857  -7.751  -1.506  0.00  0.00    +0.153 C 
ATOM     32  C   UNL     1       4.083  -8.510  -2.569  0.00  0.00    +0.028 C 
BRANCH  32  33
ATOM     33  C   UNL     1       2.953  -9.160  -3.267  0.00  0.00    -0.024 A 
ATOM     34  C   UNL     1       1.648  -8.981  -2.805  0.00  0.00    +0.008 A 
ATOM     35  C   UNL     1       0.598  -9.586  -3.464  0.00  0.00    +0.001 A 
ATOM     36  C   UNL     1       0.837 -10.379  -4.573  0.00  0.00    +0.000 A 
ATOM     37  C   UNL     1       2.128 -10.564  -5.032  0.00  0.00    +0.001 A 
ATOM     38  C   UNL     1       3.187  -9.960  -4.386  0.00  0.00    +0.008 A 
ENDBRANCH  32  33
ENDBRANCH  28  31
ENDBRANCH  26  28
ENDBRANCH  25  26
ENDBRANCH  23  25
ENDBRANCH  22  23
ENDBRANCH   1  22
TORSDOF 11
