REMARK  Name = ZINC61364235
REMARK  4 active torsions:
REMARK  status: ('A' for Active; 'I' for Inactive)
REMARK    1  A    between atoms: C_3  and  N_12
REMARK    2  A    between atoms: C_4  and  N_9
REMARK    3  A    between atoms: C_6  and  C_7
REMARK    4  A    between atoms: N_12  and  C_13
REMARK                            x       y       z     vdW  Elec       q    Type
REMARK                         _______ _______ _______ _____ _____    ______ ____
ROOT
ATOM      1  C   UNL     1      -0.038   1.322  -0.212  0.00  0.00    +0.021 A 
ATOM      2  C   UNL     1       1.078   2.092   0.028  0.00  0.00    +0.026 A 
ATOM      3  C   UNL     1       2.312   1.485   0.237  0.00  0.00    +0.058 A 
ATOM      4  C   UNL     1       2.424   0.098   0.205  0.00  0.00    +0.148 A 
ATOM      5  C   UNL     1       1.312  -0.678  -0.035  0.00  0.00    +0.053 A 
ATOM      6  C   UNL     1       0.070  -0.071  -0.246  0.00  0.00    +0.054 A 
ENDROOT
BRANCH   4   7
ATOM      7  N   UNL     1       3.739  -0.544   0.427  0.00  0.00    +0.058 N 
ATOM      8  O   UNL     1       4.742  -0.035  -0.016  0.00  0.00    -0.126 OA
ATOM      9  O   UNL     1       3.810  -1.576   1.052  0.00  0.00    -0.126 OA
ENDBRANCH   4   7
BRANCH   6  10
ATOM     10  C   UNL     1      -1.088  -0.875  -0.495  0.00  0.00    +0.099 C 
ATOM     11  N   UNL     1      -2.007  -1.512  -0.693  0.00  0.00    -0.191 NA
ENDBRANCH   6  10
BRANCH   3  12
ATOM     12  N   UNL     1       3.438   2.266   0.479  0.00  0.00    -0.335 N 
ATOM     13  H   UNL     1       4.313   1.851   0.541  0.00  0.00    +0.147 HD
BRANCH  12  14
ATOM     14  C   UNL     1       3.303   3.716   0.640  0.00  0.00    +0.101 C 
ATOM     15  C   UNL     1       4.625   4.397   0.283  0.00  0.00    +0.027 C 
ATOM     16  C   UNL     1       5.700   4.025   1.308  0.00  0.00    +0.007 C 
ATOM     17  C   UNL     1       5.370   4.713   2.641  0.00  0.00    +0.043 C 
ATOM     18  C   UNL     1       3.924   4.484   2.942  0.00  0.00    -0.005 A 
ATOM     19  C   UNL     1       2.956   4.039   2.091  0.00  0.00    -0.017 A 
ATOM     20  C   UNL     1       1.672   3.905   2.616  0.00  0.00    +0.013 A 
ATOM     21  C   UNL     1       1.434   4.211   3.913  0.00  0.00    +0.046 A 
ATOM     22  S   UNL     1       3.062   4.720   4.473  0.00  0.00    -0.101 S 
ENDBRANCH  12  14
ENDBRANCH   3  12
TORSDOF 4
