REMARK  Name = ZINC25063932
REMARK  3 active torsions:
REMARK  status: ('A' for Active; 'I' for Inactive)
REMARK    1  A    between atoms: C_10  and  C_12
REMARK    2  A    between atoms: C_12  and  C_13
REMARK    3  A    between atoms: C_13  and  C_14
REMARK                            x       y       z     vdW  Elec       q    Type
REMARK                         _______ _______ _______ _____ _____    ______ ____
ROOT
ATOM      1  C   UNL     1      -1.446   3.064  -7.342  0.00  0.00    +0.104 C 
ENDROOT
BRANCH   1  11
ATOM      2  C   UNL     1      -0.481   5.694 -15.590  0.00  0.00    +0.001 C 
ATOM      3  C   UNL     1       0.378   5.260 -14.431  0.00  0.00    +0.006 C 
ATOM      4  C   UNL     1      -0.041   3.889 -13.891  0.00  0.00    +0.056 C 
ATOM      5  C   UNL     1      -1.248   4.110 -12.977  0.00  0.00    +0.054 A 
ATOM      6  C   UNL     1      -2.412   4.609 -13.434  0.00  0.00    +0.014 A 
ATOM      7  S   UNL     1      -3.420   4.699 -11.983  0.00  0.00    -0.057 S 
ATOM      8  C   UNL     1      -2.243   4.051 -10.878  0.00  0.00    +0.165 A 
ATOM      9  N   UNL     1      -1.212   3.837 -11.669  0.00  0.00    -0.229 NA
ATOM     10  N   UNL     1      -2.359   3.824  -9.511  0.00  0.00    -0.265 N 
ATOM     11  C   UNL     1      -1.320   3.310  -8.824  0.00  0.00    +0.219 C 
ATOM     12  O   UNL     1      -0.285   3.044  -9.397  0.00  0.00    -0.275 OA
ATOM     13  C   UNL     1      -2.756   4.947 -14.862  0.00  0.00    +0.044 C 
ATOM     14  C   UNL     1      -1.883   6.152 -15.262  0.00  0.00    +0.005 C 
ATOM     15  H   UNL     1      -3.298   4.065  -8.992  0.00  0.00    +0.157 HD
ENDBRANCH   1  11
BRANCH   1  16
ATOM     16  C   UNL     1      -0.135   2.480  -6.809  0.00  0.00    +0.083 C 
BRANCH  16  17
ATOM     17  C   UNL     1      -0.261   2.234  -5.328  0.00  0.00    +0.111 A 
ATOM     18  N   UNL     1       0.793   1.715  -4.647  0.00  0.00    -0.310 N 
ATOM     19  H   UNL     1       1.728   1.478  -5.178  0.00  0.00    +0.170 HD
ATOM     20  C   UNL     1       0.724   1.479  -3.323  0.00  0.00    +0.260 A 
ATOM     21  O   UNL     1       1.678   1.012  -2.725  0.00  0.00    -0.267 OA
ATOM     22  C   UNL     1      -0.492   1.786  -2.631  0.00  0.00    +0.075 A 
ATOM     23  C   UNL     1      -0.791   1.612  -1.202  0.00  0.00    -0.023 A 
ATOM     24  C   UNL     1      -2.016   1.978  -0.788  0.00  0.00    -0.004 A 
ATOM     25  S   UNL     1      -2.837   2.567  -2.251  0.00  0.00    -0.073 S 
ATOM     26  C   UNL     1      -1.523   2.318  -3.416  0.00  0.00    +0.116 A 
ATOM     27  N   UNL     1      -1.381   2.524  -4.723  0.00  0.00    -0.227 NA
ATOM     28  C   UNL     1      -2.207   1.760   0.689  0.00  0.00    +0.043 C 
ATOM     29  C   UNL     1      -0.772   1.602   1.246  0.00  0.00    +0.010 C 
ATOM     30  C   UNL     1      -0.013   1.086   0.008  0.00  0.00    +0.037 C 
ENDBRANCH  16  17
ENDBRANCH   1  16
TORSDOF 3
