REMARK  Name = ZINC07518774
REMARK  7 active torsions:
REMARK  status: ('A' for Active; 'I' for Inactive)
REMARK    1  A    between atoms: C_1  and  C_2
REMARK    2  A    between atoms: C_7  and  N_12
REMARK    3  A    between atoms: C_9  and  C_11
REMARK    4  A    between atoms: N_12  and  C_13
REMARK    5  A    between atoms: C_13  and  N_15
REMARK    6  A    between atoms: N_15  and  C_16
REMARK    7  A    between atoms: C_19  and  N_22
REMARK                            x       y       z     vdW  Elec       q    Type
REMARK                         _______ _______ _______ _____ _____    ______ ____
ROOT
ATOM      1  C   UNL     1      -2.067   2.508  -1.077  0.00  0.00    +0.135 C 
ATOM      2  S   UNL     1      -2.942   2.562   0.394  0.00  0.00    -0.019 S 
ENDROOT
BRANCH   1   3
ATOM      3  N   UNL     1      -0.724   2.407  -1.058  0.00  0.00    -0.323 N 
ATOM      4  H   UNL     1      -0.228   2.377  -1.891  0.00  0.00    +0.148 HD
BRANCH   3  10
ATOM      5  C   UNL     1       3.571   2.477  -1.183  0.00  0.00    +0.008 C 
ATOM      6  C   UNL     1       2.139   1.972  -0.995  0.00  0.00    -0.009 C 
ATOM      7  C   UNL     1       2.170   0.525  -0.501  0.00  0.00    +0.003 C 
ATOM      8  C   UNL     1       0.738   0.019  -0.314  0.00  0.00    +0.002 C 
ATOM      9  C   UNL     1       0.019   0.894   0.715  0.00  0.00    +0.022 C 
ATOM     10  C   UNL     1      -0.011   2.342   0.221  0.00  0.00    +0.075 C 
ATOM     11  C   UNL     1       1.421   2.847   0.033  0.00  0.00    +0.009 C 
ATOM     12  C   UNL     1       1.390   4.295  -0.461  0.00  0.00    +0.009 C 
ENDBRANCH   3  10
ENDBRANCH   1   3
BRANCH   1  13
ATOM     13  N   UNL     1      -2.722   2.568  -2.253  0.00  0.00    -0.297 N 
ATOM     14  H   UNL     1      -2.224   2.600  -3.085  0.00  0.00    +0.154 HD
BRANCH  13  15
ATOM     15  C   UNL     1      -4.121   2.584  -2.275  0.00  0.00    +0.033 A 
ATOM     16  C   UNL     1      -4.812   1.778  -3.170  0.00  0.00    +0.025 A 
ATOM     17  C   UNL     1      -6.193   1.792  -3.185  0.00  0.00    +0.034 A 
ATOM     18  C   UNL     1      -6.887   2.615  -2.318  0.00  0.00    +0.126 A 
ATOM     19  C   UNL     1      -6.202   3.424  -1.430  0.00  0.00    +0.034 A 
ATOM     20  C   UNL     1      -4.821   3.410  -1.406  0.00  0.00    +0.025 A 
BRANCH  18  21
ATOM     21  N   UNL     1      -8.367   2.632  -2.341  0.00  0.00    +0.056 N 
ATOM     22  O   UNL     1      -8.980   3.357  -1.578  0.00  0.00    -0.126 OA
ATOM     23  O   UNL     1      -8.972   1.921  -3.123  0.00  0.00    -0.126 OA
ENDBRANCH  18  21
ENDBRANCH  13  15
ENDBRANCH   1  13
TORSDOF 5
