REMARK  Name = ZINC53100401
REMARK  2 active torsions:
REMARK  status: ('A' for Active; 'I' for Inactive)
REMARK    1  A    between atoms: C_1  and  C_2
REMARK    2  A    between atoms: N_12  and  C_13
REMARK                            x       y       z     vdW  Elec       q    Type
REMARK                         _______ _______ _______ _____ _____    ______ ____
ROOT
ATOM      1  C   UNL     1       0.659   1.563   0.575  0.00  0.00    +0.007 C 
ATOM      2  C   UNL     1       0.399   0.073   0.341  0.00  0.00    -0.014 C 
ATOM      3  C   UNL     1      -1.109  -0.186   0.337  0.00  0.00    +0.005 C 
ATOM      4  C   UNL     1      -1.371  -1.675   0.104  0.00  0.00    +0.027 C 
ATOM      5  C   UNL     1      -0.722  -2.488   1.232  0.00  0.00    +0.043 C 
ATOM      6  C   UNL     1       0.790  -2.230   1.227  0.00  0.00    +0.027 C 
ATOM      7  C   UNL     1       1.052  -0.741   1.460  0.00  0.00    +0.005 C 
ATOM      8  C   UNL     1      -0.952  -3.992   0.932  0.00  0.00    +0.102 C 
ATOM      9  S   UNL     1      -1.457  -4.581   2.602  0.00  0.00    -0.088 S 
ATOM     10  C   UNL     1      -1.951  -3.003   3.280  0.00  0.00    +0.155 C 
ATOM     11  N   UNL     1      -1.282  -2.083   2.510  0.00  0.00    -0.317 N 
ATOM     12  N   UNL     1      -2.766  -2.776   4.285  0.00  0.00    -0.225 NA
ATOM     13  H   UNL     1      -1.185  -1.169   2.818  0.00  0.00    +0.149 HD
ENDROOT
BRANCH  12  14
ATOM     14  C   UNL     1      -3.255  -3.822   5.020  0.00  0.00    +0.081 A 
ATOM     15  C   UNL     1      -2.387  -4.796   5.518  0.00  0.00    +0.044 A 
ATOM     16  C   UNL     1      -2.887  -5.848   6.259  0.00  0.00    +0.020 A 
ATOM     17  C   UNL     1      -4.245  -5.939   6.508  0.00  0.00    +0.016 A 
ATOM     18  C   UNL     1      -5.111  -4.979   6.018  0.00  0.00    +0.018 A 
ATOM     19  C   UNL     1      -4.624  -3.918   5.281  0.00  0.00    +0.043 A 
ATOM     20 BR   UNL     1      -5.809  -2.601   4.618  0.00  0.00    -0.048 Br
ATOM     21 BR   UNL     1      -1.713  -7.168   6.934  0.00  0.00    -0.050 Br
ENDBRANCH  12  14
TORSDOF 1
