REMARK  Name = ZINC58913765
REMARK  12 active torsions:
REMARK  status: ('A' for Active; 'I' for Inactive)
REMARK    1  A    between atoms: C_1  and  C_2
REMARK    2  A    between atoms: C_2  and  O_3
REMARK    3  A    between atoms: O_3  and  C_4
REMARK    4  A    between atoms: C_9  and  N_10
REMARK    5  A    between atoms: C_11  and  C_13
REMARK    6  A    between atoms: N_15  and  N_16
REMARK    7  A    between atoms: C_17  and  C_18
REMARK    8  A    between atoms: C_20  and  C_32
REMARK    9  A    between atoms: N_21  and  C_24
REMARK   10  A    between atoms: C_22  and  C_23
REMARK   11  A    between atoms: C_27  and  C_31
REMARK   12  A    between atoms: C_28  and  C_30
REMARK                            x       y       z     vdW  Elec       q    Type
REMARK                         _______ _______ _______ _____ _____    ______ ____
ROOT
ATOM      1  C   UNL     1      -6.327  -1.208  -0.158  0.00  0.00    +0.318 C 
ATOM      2  O   UNL     1      -6.184  -0.001  -0.152  0.00  0.00    -0.263 OA
ATOM      3  N   UNL     1      -7.561  -1.739  -0.251  0.00  0.00    -0.199 N 
ATOM      4  H   UNL     1      -7.676  -2.703  -0.255  0.00  0.00    +0.178 HD
ENDROOT
BRANCH   1   6
ATOM      5  N   UNL     1      -3.901  -1.567   0.031  0.00  0.00    -0.275 N 
ATOM      6  C   UNL     1      -5.136  -2.099  -0.062  0.00  0.00    +0.305 C 
ATOM      7  O   UNL     1      -5.279  -3.305  -0.067  0.00  0.00    -0.265 OA
ATOM      8  H   UNL     1      -3.791  -0.606   0.101  0.00  0.00    +0.155 HD
BRANCH   5  14
ATOM      9  C   UNL     1      -1.598  -1.982  -0.584  0.00  0.00    +0.142 A 
ATOM     10  C   UNL     1      -0.488  -2.810  -0.580  0.00  0.00    +0.047 A 
ATOM     11  C   UNL     1      -0.553  -4.052   0.024  0.00  0.00    +0.004 A 
ATOM     12  C   UNL     1      -1.726  -4.472   0.625  0.00  0.00    +0.002 A 
ATOM     13  C   UNL     1      -2.838  -3.653   0.625  0.00  0.00    +0.027 A 
ATOM     14  C   UNL     1      -2.779  -2.402   0.027  0.00  0.00    +0.076 A 
BRANCH   9  15
ATOM     15  O   UNL     1      -1.535  -0.760  -1.178  0.00  0.00    -0.490 OA
BRANCH  15  17
ATOM     16  C   UNL     1      -0.414   1.000  -2.395  0.00  0.00    +0.048 C 
ATOM     17  C   UNL     1      -0.293  -0.397  -1.784  0.00  0.00    +0.226 C 
ENDBRANCH  15  17
ENDBRANCH   9  15
ENDBRANCH   5  14
ENDBRANCH   1   6
BRANCH   3  18
ATOM     18  N   UNL     1      -8.680  -0.901  -0.341  0.00  0.00    -0.187 NA
ATOM     19  C   UNL     1      -9.871  -1.414  -0.430  0.00  0.00    +0.140 C 
BRANCH  19  20
ATOM     20  C   UNL     1     -11.047  -0.533  -0.525  0.00  0.00    +0.016 A 
ATOM     21  C   UNL     1     -12.451  -0.946  -0.625  0.00  0.00    +0.032 A 
ATOM     22  C   UNL     1     -13.180   0.183  -0.689  0.00  0.00    +0.022 A 
ATOM     23  N   UNL     1     -12.338   1.257  -0.637  0.00  0.00    -0.317 N 
ATOM     24  C   UNL     1     -11.050   0.834  -0.532  0.00  0.00    +0.030 A 
ATOM     25  C   UNL     1      -9.834   1.720  -0.442  0.00  0.00    +0.064 C 
ATOM     26  C   UNL     1     -14.681   0.251  -0.801  0.00  0.00    +0.064 C 
BRANCH  23  27
ATOM     27  C   UNL     1     -12.742   2.598  -0.680  0.00  0.00    +0.047 A 
ATOM     28  C   UNL     1     -12.383   3.399  -1.755  0.00  0.00    +0.026 A 
ATOM     29  C   UNL     1     -12.783   4.721  -1.795  0.00  0.00    +0.005 A 
ATOM     30  C   UNL     1     -13.540   5.246  -0.764  0.00  0.00    -0.047 A 
ATOM     31  C   UNL     1     -13.900   4.451   0.308  0.00  0.00    -0.046 A 
ATOM     32  C   UNL     1     -13.508   3.127   0.350  0.00  0.00    +0.029 A 
ATOM     33  C   UNL     1     -14.725   5.027   1.430  0.00  0.00    +0.044 C 
ATOM     34  C   UNL     1     -13.975   6.688  -0.810  0.00  0.00    +0.044 C 
ENDBRANCH  23  27
ENDBRANCH  19  20
ENDBRANCH   3  18
TORSDOF 7
