REMARK  Name = ZINC39942366
REMARK  9 active torsions:
REMARK  status: ('A' for Active; 'I' for Inactive)
REMARK    1  A    between atoms: C_1  and  C_2
REMARK    2  A    between atoms: C_2  and  C_4
REMARK    3  A    between atoms: C_2  and  S_16
REMARK    4  A    between atoms: C_4  and  C_6
REMARK    5  A    between atoms: C_9  and  N_12
REMARK    6  A    between atoms: C_13  and  C_15
REMARK    7  A    between atoms: S_16  and  C_17
REMARK    8  A    between atoms: C_21  and  C_26
REMARK    9  A    between atoms: N_22  and  C_23
REMARK                            x       y       z     vdW  Elec       q    Type
REMARK                         _______ _______ _______ _____ _____    ______ ____
ROOT
ATOM      1  C   UNL     1       2.299   0.301   1.243  0.00  0.00    +0.237 C 
ATOM      2  N   UNL     1       2.538   0.021  -0.182  0.00  0.00    -0.237 N 
ATOM      3  N   UNL     1       2.778   1.256  -0.795  0.00  0.00    -0.169 NA
ATOM      4  C   UNL     1       2.715   2.235   0.068  0.00  0.00    +0.147 C 
ATOM      5  N   UNL     1       2.427   1.763   1.355  0.00  0.00    -0.282 N 
ATOM      6  H   UNL     1       2.532  -0.849  -0.612  0.00  0.00    +0.171 HD
ENDROOT
BRANCH   4   7
ATOM      7  C   UNL     1       2.912   3.587  -0.253  0.00  0.00    +0.022 C 
ATOM      8  C   UNL     1       3.302   4.113  -1.484  0.00  0.00    +0.006 A 
ATOM      9  C   UNL     1       3.604   3.513  -2.725  0.00  0.00    +0.010 A 
ATOM     10  C   UNL     1       3.963   4.289  -3.780  0.00  0.00    +0.001 A 
ATOM     11  C   UNL     1       4.042   5.679  -3.671  0.00  0.00    +0.002 A 
ATOM     12  C   UNL     1       3.765   6.323  -2.510  0.00  0.00    +0.026 A 
ATOM     13  C   UNL     1       3.383   5.578  -1.364  0.00  0.00    +0.043 A 
ATOM     14  N   UNL     1       3.067   5.959  -0.142  0.00  0.00    -0.380 N 
ATOM     15  C   UNL     1       2.740   4.779   0.663  0.00  0.00    +0.152 C 
ATOM     16  H   UNL     1       3.050   6.876   0.173  0.00  0.00    +0.160 HD
ENDBRANCH   4   7
BRANCH   5  17
ATOM     17  C   UNL     1       2.282   2.565   2.573  0.00  0.00    +0.078 C 
ATOM     18  C   UNL     1       3.306   2.347   3.688  0.00  0.00    +0.024 C 
ATOM     19  C   UNL     1       1.873   1.835   3.854  0.00  0.00    +0.024 C 
ENDBRANCH   5  17
BRANCH   1  20
ATOM     20  S   UNL     1       0.632  -0.228   1.723  0.00  0.00    -0.107 S 
BRANCH  20  22
ATOM     21  C   UNL     1      -0.347   2.176   0.861  0.00  0.00    +0.027 C 
ATOM     22  C   UNL     1      -0.458   0.674   0.588  0.00  0.00    +0.118 C 
BRANCH  22  23
ATOM     23  C   UNL     1      -1.883   0.229   0.800  0.00  0.00    +0.176 C 
ATOM     24  O   UNL     1      -2.221  -0.234   1.869  0.00  0.00    -0.291 OA
BRANCH  23  25
ATOM     25  C   UNL     1      -2.861   0.356  -0.288  0.00  0.00    +0.019 A 
ATOM     26  C   UNL     1      -2.471   0.884  -1.525  0.00  0.00    +0.013 A 
ATOM     27  C   UNL     1      -3.387   1.000  -2.538  0.00  0.00    +0.024 A 
ATOM     28  C   UNL     1      -4.703   0.594  -2.339  0.00  0.00    +0.033 A 
ATOM     29  C   UNL     1      -5.096   0.068  -1.111  0.00  0.00    +0.024 A 
ATOM     30  C   UNL     1      -4.185  -0.057  -0.094  0.00  0.00    +0.013 A 
BRANCH  28  31
ATOM     31  N   UNL     1      -5.631   0.713  -3.371  0.00  0.00    -0.286 N 
ATOM     32  C   UNL     1      -5.239   0.557  -4.651  0.00  0.00    +0.214 C 
ATOM     33  O   UNL     1      -4.100   0.224  -4.900  0.00  0.00    -0.276 OA
ATOM     34  C   UNL     1      -6.216   0.798  -5.773  0.00  0.00    +0.109 C 
ATOM     35  H   UNL     1      -6.559   0.909  -3.169  0.00  0.00    +0.155 HD
ENDBRANCH  28  31
ENDBRANCH  23  25
ENDBRANCH  22  23
ENDBRANCH  20  22
ENDBRANCH   1  20
TORSDOF 7
