REMARK  Name = ZINC36560744
REMARK  14 active torsions:
REMARK  status: ('A' for Active; 'I' for Inactive)
REMARK    1  A    between atoms: C_1  and  C_2
REMARK    2  A    between atoms: C_2  and  C_3
REMARK    3  A    between atoms: C_3  and  N_4
REMARK    4  A    between atoms: N_4  and  C_5
REMARK    5  A    between atoms: C_5  and  C_7
REMARK    6  A    between atoms: C_5  and  C_16
REMARK    7  A    between atoms: C_10  and  O_15
REMARK    8  A    between atoms: C_11  and  O_13
REMARK    9  A    between atoms: O_13  and  C_14
REMARK   10  A    between atoms: N_18  and  C_19
REMARK   11  A    between atoms: C_19  and  S_20
REMARK   12  A    between atoms: S_20  and  C_23
REMARK   13  A    between atoms: C_26  and  C_29
REMARK   14  A    between atoms: C_30  and  C_32
REMARK                            x       y       z     vdW  Elec       q    Type
REMARK                         _______ _______ _______ _____ _____    ______ ____
ROOT
ATOM      1  C   UNL     1      -0.492  -3.244  -1.597  0.00  0.00    +0.192 C 
ENDROOT
BRANCH   1   2
ATOM      2  C   UNL     1      -0.471  -2.389  -2.838  0.00  0.00    -0.015 A 
ATOM      3  C   UNL     1      -0.131  -1.052  -2.749  0.00  0.00    +0.010 A 
ATOM      4  C   UNL     1      -0.110  -0.263  -3.884  0.00  0.00    +0.049 A 
ATOM      5  C   UNL     1      -0.430  -0.813  -5.115  0.00  0.00    +0.158 A 
ATOM      6  C   UNL     1      -0.772  -2.159  -5.205  0.00  0.00    +0.162 A 
ATOM      7  C   UNL     1      -0.786  -2.945  -4.064  0.00  0.00    +0.055 A 
BRANCH   6   8
ATOM      8  O   UNL     1      -1.087  -2.703  -6.411  0.00  0.00    -0.491 OA
ATOM      9  C   UNL     1      -1.429  -4.090  -6.428  0.00  0.00    +0.277 C 
ENDBRANCH   6   8
BRANCH   5  10
ATOM     10  O   UNL     1      -0.410  -0.039  -6.233  0.00  0.00    -0.503 OA
ATOM     11  H   UNL     1       0.444  -0.022  -6.685  0.00  0.00    +0.292 HD
ENDBRANCH   5  10
ENDBRANCH   1   2
BRANCH   1  12
ATOM     12  C   UNL     1      -1.778  -3.008  -0.847  0.00  0.00    +0.239 C 
ATOM     13  O   UNL     1      -1.790  -2.275   0.119  0.00  0.00    -0.273 OA
ATOM     14  N   UNL     1      -2.913  -3.612  -1.249  0.00  0.00    -0.294 N 
ATOM     15  H   UNL     1      -2.903  -4.199  -2.022  0.00  0.00    +0.150 HD
BRANCH  14  16
ATOM     16  C   UNL     1      -4.163  -3.384  -0.520  0.00  0.00    +0.278 C 
BRANCH  16  17
ATOM     17  S   UNL     1      -5.098  -2.053  -1.324  0.00  0.00    +0.013 S 
ATOM     18  O   UNL     1      -6.342  -1.862  -0.666  0.00  0.00    -0.168 OA
ATOM     19  O   UNL     1      -4.244  -0.950  -1.595  0.00  0.00    -0.168 OA
BRANCH  17  20
ATOM     20  C   UNL     1      -5.522  -2.693  -2.910  0.00  0.00    +0.090 A 
ATOM     21  C   UNL     1      -4.668  -2.506  -3.982  0.00  0.00    +0.027 A 
ATOM     22  C   UNL     1      -5.001  -3.008  -5.226  0.00  0.00    +0.005 A 
ATOM     23  C   UNL     1      -6.188  -3.697  -5.399  0.00  0.00    -0.050 A 
ATOM     24  C   UNL     1      -7.040  -3.884  -4.327  0.00  0.00    +0.005 A 
ATOM     25  C   UNL     1      -6.705  -3.386  -3.082  0.00  0.00    +0.027 A 
ATOM     26  C   UNL     1      -6.551  -4.243  -6.755  0.00  0.00    +0.044 C 
ENDBRANCH  17  20
ENDBRANCH  16  17
ENDBRANCH  14  16
ENDBRANCH   1  12
BRANCH   1  27
ATOM     27  N   UNL     1       0.644  -2.891  -0.742  0.00  0.00    -0.286 N 
ATOM     28  C   UNL     1       1.901  -3.167  -1.143  0.00  0.00    +0.220 C 
ATOM     29  O   UNL     1       2.091  -3.708  -2.212  0.00  0.00    -0.275 OA
BRANCH  28  30
ATOM     30  C   UNL     1       3.070  -2.804  -0.264  0.00  0.00    +0.075 C 
ATOM     31  C   UNL     1       3.344  -1.303  -0.374  0.00  0.00    +0.013 C 
ATOM     32  C   UNL     1       4.530  -0.934   0.519  0.00  0.00    +0.001 C 
ATOM     33  C   UNL     1       5.768  -1.713   0.069  0.00  0.00    +0.000 C 
ATOM     34  C   UNL     1       5.494  -3.214   0.179  0.00  0.00    +0.001 C 
ATOM     35  C   UNL     1       4.307  -3.583  -0.714  0.00  0.00    +0.013 C 
ENDBRANCH  28  30
BRANCH  27  36
ATOM     36  C   UNL     1       0.414  -2.239   0.549  0.00  0.00    +0.108 C 
BRANCH  36  38
ATOM     37  C   UNL     1      -0.428  -0.152   1.635  0.00  0.00    +0.005 C 
ATOM     38  C   UNL     1       0.058  -0.768   0.322  0.00  0.00    +0.016 C 
ENDBRANCH  36  38
ENDBRANCH  27  36
ENDBRANCH   1  27
TORSDOF 11
