REMARK  Name = ZINC63674154
REMARK  8 active torsions:
REMARK  status: ('A' for Active; 'I' for Inactive)
REMARK    1  A    between atoms: C_1  and  N_2
REMARK    2  A    between atoms: C_7  and  C_17
REMARK    3  A    between atoms: C_17  and  C_18
REMARK    4  A    between atoms: C_18  and  C_19
REMARK    5  A    between atoms: C_19  and  C_20
REMARK    6  A    between atoms: N_22  and  C_23
REMARK    7  A    between atoms: C_23  and  C_24
REMARK    8  A    between atoms: C_24  and  C_25
REMARK                            x       y       z     vdW  Elec       q    Type
REMARK                         _______ _______ _______ _____ _____    ______ ____
ROOT
ATOM      1  C   UNL     1      -3.114  -3.096   3.750  0.00  0.00    +0.012 C 
ENDROOT
BRANCH   1   2
ATOM      2  C   UNL     1      -1.880  -2.968   2.854  0.00  0.00    +0.040 C 
BRANCH   2   8
ATOM      3  C   UNL     1      -0.018   1.461   0.010  0.00  0.00    +0.135 C 
ATOM      4  N   UNL     1       0.002  -0.004   0.002  0.00  0.00    -0.268 N 
ATOM      5  C   UNL     1      -1.256  -0.742   0.004  0.00  0.00    +0.252 C 
ATOM      6  N   UNL     1      -2.342  -0.025   0.691  0.00  0.00    -0.219 NA
ATOM      7  N   UNL     1      -2.567  -0.753   1.951  0.00  0.00    -0.234 NA
ATOM      8  C   UNL     1      -2.241  -2.168   1.601  0.00  0.00    +0.158 C 
ATOM      9  N   UNL     1      -1.090  -2.011   0.746  0.00  0.00    -0.280 N 
ATOM     10  C   UNL     1       0.064  -2.779   0.606  0.00  0.00    +0.053 A 
ATOM     11  C   UNL     1       0.296  -4.122   0.773  0.00  0.00    +0.031 A 
ATOM     12  C   UNL     1       1.544  -4.614   0.568  0.00  0.00    +0.048 A 
ATOM     13  S   UNL     1       2.463  -3.270   0.139  0.00  0.00    -0.090 S 
ATOM     14  C   UNL     1       1.206  -2.039   0.222  0.00  0.00    +0.095 A 
ATOM     15  C   UNL     1       1.195  -0.661  -0.013  0.00  0.00    +0.257 C 
ATOM     16  O   UNL     1       2.232  -0.057  -0.222  0.00  0.00    -0.269 OA
ATOM     17  H   UNL     1      -3.179  -0.011   0.128  0.00  0.00    +0.144 HD
ATOM     18  H   UNL     1      -1.958  -0.411   2.680  0.00  0.00    +0.143 HD
ENDBRANCH   2   8
ENDBRANCH   1   2
BRANCH   1  19
ATOM     19  C   UNL     1      -2.753  -3.896   5.003  0.00  0.00    +0.096 C 
BRANCH  19  20
ATOM     20  C   UNL     1      -3.969  -4.022   5.886  0.00  0.00    +0.213 C 
ATOM     21  O   UNL     1      -5.020  -3.521   5.546  0.00  0.00    -0.276 OA
ATOM     22  N   UNL     1      -3.888  -4.691   7.053  0.00  0.00    -0.315 N 
ATOM     23  H   UNL     1      -3.047  -5.092   7.325  0.00  0.00    +0.149 HD
BRANCH  22  24
ATOM     24  C   UNL     1      -5.069  -4.814   7.911  0.00  0.00    +0.108 C 
BRANCH  24  25
ATOM     25  C   UNL     1      -4.708  -5.614   9.164  0.00  0.00    +0.052 C 
BRANCH  25  26
ATOM     26  C   UNL     1      -5.923  -5.740  10.046  0.00  0.00    -0.040 C 
ATOM     27  C   UNL     1      -6.797  -6.772  10.085  0.00  0.00    -0.001 A 
ATOM     28  C   UNL     1      -6.875  -8.036   9.344  0.00  0.00    +0.010 A 
ATOM     29  C   UNL     1      -7.891  -8.889   9.607  0.00  0.00    +0.001 A 
ATOM     30  C   UNL     1      -8.869  -8.596  10.568  0.00  0.00    +0.002 A 
ATOM     31  C   UNL     1      -8.865  -7.455  11.288  0.00  0.00    +0.026 A 
ATOM     32  C   UNL     1      -7.842  -6.486  11.094  0.00  0.00    +0.043 A 
ATOM     33  N   UNL     1      -7.623  -5.323  11.657  0.00  0.00    -0.380 N 
ATOM     34  C   UNL     1      -6.409  -4.741  11.073  0.00  0.00    +0.144 C 
ATOM     35  H   UNL     1      -8.169  -4.917  12.348  0.00  0.00    +0.160 HD
ENDBRANCH  25  26
ENDBRANCH  24  25
ENDBRANCH  22  24
ENDBRANCH  19  20
ENDBRANCH   1  19
TORSDOF 7
