REMARK  Name = ZINC02631283
REMARK  16 active torsions:
REMARK  status: ('A' for Active; 'I' for Inactive)
REMARK    1  A    between atoms: C_1  and  C_2
REMARK    2  A    between atoms: C_4  and  C_27
REMARK    3  A    between atoms: C_7  and  O_8
REMARK    4  A    between atoms: O_8  and  C_9
REMARK    5  A    between atoms: C_9  and  C_10
REMARK    6  A    between atoms: C_10  and  C_12
REMARK    7  A    between atoms: C_10  and  O_26
REMARK    8  A    between atoms: C_12  and  N_60
REMARK    9  A    between atoms: C_13  and  C_15
REMARK   10  A    between atoms: C_13  and  C_16
REMARK   11  A    between atoms: C_13  and  N_60
REMARK   12  A    between atoms: C_19  and  S_22
REMARK   13  A    between atoms: S_22  and  N_25
REMARK   14  A    between atoms: C_27  and  C_28
REMARK   15  A    between atoms: C_27  and  C_29
REMARK   16  A    between atoms: C_27  and  C_30
REMARK                            x       y       z     vdW  Elec       q    Type
REMARK                         _______ _______ _______ _____ _____    ______ ____
ROOT
ATOM      1  C   UNL     1      -4.483   0.692  -1.360  0.00  0.00    -0.047 C 
ENDROOT
BRANCH   1   2
ATOM      2  N   UNL     1      -3.481   1.656  -0.865  0.00  0.00    +0.385 N 
ATOM      3  H   UNL     1      -3.957   2.400  -0.341  0.00  0.00    -0.085 HD
ATOM      4  H   UNL     1      -2.982   2.065  -1.663  0.00  0.00    -0.085 HD
BRANCH   2   5
ATOM      5  C   UNL     1      -2.514   0.980   0.019  0.00  0.00    -0.044 C 
ATOM      6  C   UNL     1      -3.073   0.926   1.442  0.00  0.00    -0.009 C 
BRANCH   5   7
ATOM      7  C   UNL     1      -1.219   1.751   0.017  0.00  0.00    -0.062 A 
ATOM      8  C   UNL     1      -0.013   1.076   0.008  0.00  0.00    +0.004 A 
ATOM      9  C   UNL     1       1.175   1.783   0.000  0.00  0.00    +0.029 A 
ATOM     10  C   UNL     1       1.156   3.165   0.008  0.00  0.00    +0.105 A 
ATOM     11  C   UNL     1      -0.050   3.840   0.022  0.00  0.00    +0.029 A 
ATOM     12  C   UNL     1      -1.238   3.133   0.030  0.00  0.00    +0.004 A 
BRANCH  10  13
ATOM     13  S   UNL     1       2.670   4.067  -0.003  0.00  0.00    +0.056 S 
ATOM     14  O   UNL     1       2.387   5.342   0.557  0.00  0.00    -0.153 OA
ATOM     15  O   UNL     1       3.662   3.202   0.534  0.00  0.00    -0.153 OA
BRANCH  13  16
ATOM     16  N   UNL     1       3.075   4.326  -1.587  0.00  0.00    -0.204 NA
ATOM     17  H   UNL     1       2.502   3.992  -2.295  0.00  0.00    +0.144 HD
ATOM     18  H   UNL     1       3.886   4.811  -1.808  0.00  0.00    +0.144 HD
ENDBRANCH  13  16
ENDBRANCH  10  13
ENDBRANCH   5   7
ENDBRANCH   2   5
ENDBRANCH   1   2
BRANCH   1  19
ATOM     19  C   UNL     1      -5.471   1.421  -2.273  0.00  0.00    +0.135 C 
BRANCH  19  20
ATOM     20  O   UNL     1      -6.124   2.458  -1.537  0.00  0.00    -0.390 OA
ATOM     21  H   UNL     1      -6.623   2.142  -0.771  0.00  0.00    +0.210 HD
ENDBRANCH  19  20
BRANCH  19  22
ATOM     22  C   UNL     1      -6.514   0.429  -2.791  0.00  0.00    +0.258 C 
BRANCH  22  23
ATOM     23  O   UNL     1      -7.367   1.082  -3.733  0.00  0.00    -0.489 OA
BRANCH  23  30
ATOM     24  C   UNL     1      -9.070   2.358  -5.591  0.00  0.00    +0.047 C 
ATOM     25  C   UNL     1      -9.222   0.907  -5.211  0.00  0.00    -0.009 A 
ATOM     26  C   UNL     1     -10.223   0.145  -5.782  0.00  0.00    +0.011 A 
ATOM     27  C   UNL     1     -10.367  -1.185  -5.431  0.00  0.00    -0.042 A 
ATOM     28  C   UNL     1      -9.506  -1.756  -4.511  0.00  0.00    +0.008 A 
ATOM     29  C   UNL     1      -8.501  -0.999  -3.941  0.00  0.00    +0.046 A 
ATOM     30  C   UNL     1      -8.355   0.335  -4.293  0.00  0.00    +0.124 A 
BRANCH  27  31
ATOM     31  C   UNL     1     -11.463  -2.013  -6.051  0.00  0.00    -0.013 C 
ATOM     32  C   UNL     1     -11.402  -3.437  -5.495  0.00  0.00    +0.015 C 
ATOM     33  C   UNL     1     -12.821  -1.392  -5.717  0.00  0.00    +0.015 C 
ATOM     34  C   UNL     1     -11.278  -2.049  -7.569  0.00  0.00    +0.015 C 
ENDBRANCH  27  31
ENDBRANCH  23  30
ENDBRANCH  22  23
ENDBRANCH  19  22
ENDBRANCH   1  19
TORSDOF 11
