REMARK  Name = ZINC21801158
REMARK  6 active torsions:
REMARK  status: ('A' for Active; 'I' for Inactive)
REMARK    1  A    between atoms: C_1  and  C_2
REMARK    2  A    between atoms: C_6  and  N_8
REMARK    3  A    between atoms: C_9  and  C_28
REMARK    4  A    between atoms: C_10  and  C_27
REMARK    5  A    between atoms: C_18  and  C_20
REMARK    6  A    between atoms: C_25  and  O_26
REMARK                            x       y       z     vdW  Elec       q    Type
REMARK                         _______ _______ _______ _____ _____    ______ ____
ROOT
ATOM      1  N   UNL     1       8.003   5.398  -0.044  0.00  0.00    -0.298 N 
ATOM      2  C   UNL     1       8.244   4.049  -0.054  0.00  0.00    +0.026 A 
ATOM      3  C   UNL     1       7.075   3.382  -0.046  0.00  0.00    -0.017 A 
ATOM      4  C   UNL     1       6.017   4.384  -0.030  0.00  0.00    +0.067 A 
ATOM      5  C   UNL     1       6.653   5.633  -0.030  0.00  0.00    +0.151 A 
ATOM      6  N   UNL     1       5.907   6.747  -0.016  0.00  0.00    -0.217 NA
ATOM      7  C   UNL     1       4.606   6.715  -0.003  0.00  0.00    +0.227 A 
ATOM      8  N   UNL     1       3.899   5.555  -0.004  0.00  0.00    -0.201 N 
ATOM      9  C   UNL     1       4.559   4.352  -0.017  0.00  0.00    +0.169 A 
ATOM     10  N   UNL     1       3.652   3.395  -0.014  0.00  0.00    -0.206 NA
ATOM     11  C   UNL     1       2.430   3.934   0.001  0.00  0.00    +0.186 A 
ATOM     12  N   UNL     1       2.532   5.249   0.001  0.00  0.00    -0.143 NA
ATOM     13  C   UNL     1       6.895   1.886  -0.053  0.00  0.00    +0.046 C 
ATOM     14  C   UNL     1       9.609   3.411  -0.071  0.00  0.00    +0.064 C 
ENDROOT
BRANCH   1  20
ATOM     15  C   UNL     1      10.259   9.134   2.222  0.00  0.00    +0.044 C 
ATOM     16  C   UNL     1      10.107   8.215   1.038  0.00  0.00    -0.048 A 
ATOM     17  C   UNL     1      10.943   8.352  -0.056  0.00  0.00    +0.003 A 
ATOM     18  C   UNL     1      10.806   7.511  -1.145  0.00  0.00    +0.002 A 
ATOM     19  C   UNL     1       9.832   6.531  -1.144  0.00  0.00    +0.026 A 
ATOM     20  C   UNL     1       8.992   6.391  -0.048  0.00  0.00    +0.048 A 
ATOM     21  C   UNL     1       9.129   7.240   1.042  0.00  0.00    +0.029 A 
ENDBRANCH   1  20
BRANCH  11  22
ATOM     22  C   UNL     1       1.157   3.172   0.008  0.00  0.00    +0.062 A 
ATOM     23  C   UNL     1       1.174   1.780   0.000  0.00  0.00    +0.015 A 
ATOM     24  C   UNL     1      -0.013   1.076   0.008  0.00  0.00    +0.001 A 
ATOM     25  C   UNL     1      -1.222   1.749   0.017  0.00  0.00    +0.004 A 
ATOM     26  C   UNL     1      -1.251   3.130   0.031  0.00  0.00    +0.046 A 
ATOM     27  C   UNL     1      -0.066   3.850   0.023  0.00  0.00    +0.128 A 
BRANCH  27  28
ATOM     28  O   UNL     1      -0.093   5.208   0.031  0.00  0.00    -0.506 OA
ATOM     29  H   UNL     1      -1.057   5.738   0.043  0.00  0.00    +0.292 HD
ENDBRANCH  27  28
ENDBRANCH  11  22
TORSDOF 3
