REMARK  Name = ZINC27348275
REMARK  10 active torsions:
REMARK  status: ('A' for Active; 'I' for Inactive)
REMARK    1  A    between atoms: C_1  and  C_2
REMARK    2  A    between atoms: C_2  and  C_26
REMARK    3  A    between atoms: N_5  and  C_9
REMARK    4  A    between atoms: C_9  and  C_10
REMARK    5  A    between atoms: N_12  and  C_13
REMARK    6  A    between atoms: C_13  and  C_14
REMARK    7  A    between atoms: C_14  and  C_16
REMARK    8  A    between atoms: C_14  and  N_23
REMARK    9  A    between atoms: N_23  and  C_24
REMARK   10  A    between atoms: N_23  and  C_25
REMARK                            x       y       z     vdW  Elec       q    Type
REMARK                         _______ _______ _______ _____ _____    ______ ____
ROOT
ATOM      1  C   UNL     1      -0.403  -4.502  -0.482  0.00  0.00    +0.213 C 
ENDROOT
BRANCH   1   6
ATOM      2  C   UNL     1      -4.772  -2.910   0.181  0.00  0.00    +0.047 C 
ATOM      3  C   UNL     1      -3.551  -2.539  -0.663  0.00  0.00    +0.135 C 
ATOM      4  C   UNL     1      -2.727  -3.771  -0.979  0.00  0.00    +0.251 C 
ATOM      5  O   UNL     1      -3.080  -4.747  -1.605  0.00  0.00    -0.272 OA
ATOM      6  N   UNL     1      -1.520  -3.555  -0.420  0.00  0.00    -0.215 N 
ATOM      7  C   UNL     1      -1.467  -2.370   0.199  0.00  0.00    +0.310 C 
ATOM      8  O   UNL     1      -0.483  -1.953   0.777  0.00  0.00    -0.252 OA
ATOM      9  N   UNL     1      -2.626  -1.692   0.110  0.00  0.00    -0.281 N 
ATOM     10  H   UNL     1      -2.958  -0.712   0.482  0.00  0.00    +0.152 HD
BRANCH   3  11
ATOM     11  C   UNL     1      -3.972  -1.843  -1.931  0.00  0.00    -0.015 A 
ATOM     12  C   UNL     1      -4.166  -2.574  -3.088  0.00  0.00    +0.009 A 
ATOM     13  C   UNL     1      -4.557  -1.937  -4.251  0.00  0.00    +0.039 A 
ATOM     14  C   UNL     1      -4.745  -0.565  -4.259  0.00  0.00    +0.123 A 
ATOM     15  C   UNL     1      -4.545   0.166  -3.101  0.00  0.00    +0.039 A 
ATOM     16  C   UNL     1      -4.159  -0.473  -1.938  0.00  0.00    +0.009 A 
ATOM     17  F   UNL     1      -5.122   0.059  -5.396  0.00  0.00    -0.205 F 
ENDBRANCH   3  11
ENDBRANCH   1   6
BRANCH   1  18
ATOM     18  C   UNL     1       0.428  -4.219  -1.707  0.00  0.00    +0.231 C 
ATOM     19  O   UNL     1       0.118  -3.315  -2.454  0.00  0.00    -0.274 OA
ATOM     20  N   UNL     1       1.516  -4.969  -1.971  0.00  0.00    -0.315 N 
ATOM     21  H   UNL     1       1.797  -5.789  -1.294  0.00  0.00    +0.149 HD
BRANCH  20  22
ATOM     22  C   UNL     1       2.324  -4.694  -3.162  0.00  0.00    +0.093 C 
BRANCH  22  23
ATOM     23  C   UNL     1       3.628  -5.490  -3.088  0.00  0.00    -0.020 C 
BRANCH  23  24
ATOM     24  C   UNL     1       4.394  -5.320  -4.375  0.00  0.00    -0.041 A 
ATOM     25  C   UNL     1       5.499  -4.491  -4.418  0.00  0.00    +0.003 A 
ATOM     26  C   UNL     1       6.204  -4.339  -5.597  0.00  0.00    +0.000 A 
ATOM     27  C   UNL     1       5.798  -5.008  -6.737  0.00  0.00    +0.001 A 
ATOM     28  C   UNL     1       4.690  -5.833  -6.697  0.00  0.00    +0.020 A 
ATOM     29  C   UNL     1       3.987  -5.990  -5.515  0.00  0.00    +0.043 A 
ATOM     30 CL   UNL     1       2.595  -7.026  -5.464  0.00  0.00    -0.083 Cl
ENDBRANCH  23  24
BRANCH  23  31
ATOM     31  N   UNL     1       4.440  -4.997  -1.967  0.00  0.00    +0.382 N 
ATOM     32  C   UNL     1       4.351  -3.535  -1.856  0.00  0.00    -0.096 C 
ATOM     33  C   UNL     1       4.049  -5.645  -0.709  0.00  0.00    -0.096 C 
ATOM     34  H   UNL     1       5.489  -5.257  -2.170  0.00  0.00    -0.082 HD
ENDBRANCH  23  31
ENDBRANCH  22  23
ENDBRANCH  20  22
ENDBRANCH   1  18
TORSDOF 7
