REMARK  Name = ZINC01249520
REMARK  11 active torsions:
REMARK  status: ('A' for Active; 'I' for Inactive)
REMARK    1  A    between atoms: C_1  and  C_2
REMARK    2  A    between atoms: C_5  and  C_8
REMARK    3  A    between atoms: C_14  and  C_31
REMARK    4  A    between atoms: C_15  and  C_24
REMARK    5  A    between atoms: C_17  and  C_20
REMARK    6  A    between atoms: C_18  and  N_19
REMARK    7  A    between atoms: C_20  and  O_22
REMARK    8  A    between atoms: O_22  and  C_23
REMARK    9  A    between atoms: C_27  and  C_30
REMARK   10  A    between atoms: C_31  and  O_33
REMARK   11  A    between atoms: O_33  and  C_34
REMARK                            x       y       z     vdW  Elec       q    Type
REMARK                         _______ _______ _______ _____ _____    ______ ____
ROOT
ATOM      1  C   UNL     1       1.428  -4.284   0.046  0.00  0.00    +0.028 C 
ATOM      2  C   UNL     1       1.185  -4.958   1.198  0.00  0.00    +0.079 A 
ATOM      3  C   UNL     1       0.880  -4.437   2.537  0.00  0.00    +0.271 A 
ATOM      4  O   UNL     1       0.815  -3.239   2.739  0.00  0.00    -0.266 OA
ATOM      5  N   UNL     1       0.673  -5.317   3.537  0.00  0.00    -0.257 N 
ATOM      6  C   UNL     1       0.762  -6.661   3.235  0.00  0.00    +0.100 A 
ATOM      7  C   UNL     1       0.578  -7.668   4.144  0.00  0.00    +0.079 C 
ATOM      8  C   UNL     1       0.255  -7.291   5.577  0.00  0.00    +0.099 C 
ATOM      9  C   UNL     1       0.168  -5.805   5.861  0.00  0.00    +0.087 C 
ATOM     10  C   UNL     1       0.377  -4.932   4.847  0.00  0.00    +0.115 C 
ATOM     11  S   UNL     1       1.141  -6.718   1.495  0.00  0.00    -0.065 S 
ENDROOT
BRANCH   1  16
ATOM     12  C   UNL     1       2.027   1.431   0.132  0.00  0.00    +0.044 C 
ATOM     13  C   UNL     1       1.870  -0.068   0.109  0.00  0.00    -0.050 A 
ATOM     14  C   UNL     1       1.196  -0.673  -0.937  0.00  0.00    +0.004 A 
ATOM     15  C   UNL     1       1.048  -2.044  -0.965  0.00  0.00    +0.008 A 
ATOM     16  C   UNL     1       1.581  -2.822   0.068  0.00  0.00    -0.024 A 
ATOM     17  C   UNL     1       2.261  -2.202   1.122  0.00  0.00    +0.008 A 
ATOM     18  C   UNL     1       2.405  -0.831   1.133  0.00  0.00    +0.004 A 
ENDBRANCH   1  16
BRANCH   8  19
ATOM     19  C   UNL     1      -1.066  -7.915   5.943  0.00  0.00    -0.035 A 
ATOM     20  C   UNL     1      -2.204  -7.597   5.225  0.00  0.00    +0.005 A 
ATOM     21  C   UNL     1      -3.416  -8.170   5.561  0.00  0.00    +0.003 A 
ATOM     22  C   UNL     1      -3.491  -9.062   6.614  0.00  0.00    -0.050 A 
ATOM     23  C   UNL     1      -2.353  -9.381   7.332  0.00  0.00    +0.003 A 
ATOM     24  C   UNL     1      -1.140  -8.811   6.993  0.00  0.00    +0.005 A 
ATOM     25  C   UNL     1      -4.812  -9.686   6.981  0.00  0.00    +0.044 C 
ENDBRANCH   8  19
BRANCH  10  26
ATOM     26  N   UNL     1       0.295  -3.592   5.122  0.00  0.00    -0.344 N 
ATOM     27  H   UNL     1      -0.139  -2.994   4.494  0.00  0.00    +0.144 HD
ATOM     28  H   UNL     1       0.670  -3.242   5.946  0.00  0.00    +0.144 HD
ENDBRANCH  10  26
BRANCH   9  29
ATOM     29  C   UNL     1      -0.125  -5.341   7.152  0.00  0.00    +0.339 C 
ATOM     30  O   UNL     1      -0.295  -4.151   7.348  0.00  0.00    -0.245 OA
BRANCH  29  31
ATOM     31  O   UNL     1      -0.219  -6.215   8.178  0.00  0.00    -0.465 OA
ATOM     32  C   UNL     1      -0.520  -5.673   9.466  0.00  0.00    +0.280 C 
ENDBRANCH  29  31
ENDBRANCH   9  29
BRANCH   7  33
ATOM     33  C   UNL     1       0.685  -9.012   3.761  0.00  0.00    +0.338 C 
ATOM     34  O   UNL     1       0.944  -9.297   2.605  0.00  0.00    -0.245 OA
BRANCH  33  35
ATOM     35  O   UNL     1       0.499  -9.992   4.673  0.00  0.00    -0.465 OA
ATOM     36  C   UNL     1       0.623 -11.339   4.212  0.00  0.00    +0.280 C 
ENDBRANCH  33  35
ENDBRANCH   7  33
TORSDOF 7
