REMARK  Name = ZINC07674348
REMARK  8 active torsions:
REMARK  status: ('A' for Active; 'I' for Inactive)
REMARK    1  A    between atoms: C_1  and  C_2
REMARK    2  A    between atoms: C_5  and  N_8
REMARK    3  A    between atoms: C_9  and  C_11
REMARK    4  A    between atoms: C_11  and  N_49
REMARK    5  A    between atoms: C_12  and  N_49
REMARK    6  A    between atoms: C_13  and  C_14
REMARK    7  A    between atoms: C_13  and  N_49
REMARK    8  A    between atoms: C_20  and  C_25
REMARK                            x       y       z     vdW  Elec       q    Type
REMARK                         _______ _______ _______ _____ _____    ______ ____
ROOT
ATOM      1  C   UNL     1       3.861  -6.128  -0.727  0.00  0.00    -0.003 C 
ENDROOT
BRANCH   1   2
ATOM      2  C   UNL     1       5.277  -6.512  -1.074  0.00  0.00    +0.094 A 
ATOM      3  N   UNL     1       5.552  -7.792  -1.435  0.00  0.00    -0.312 N 
ATOM      4  H   UNL     1       4.811  -8.462  -1.466  0.00  0.00    +0.170 HD
ATOM      5  C   UNL     1       6.803  -8.175  -1.752  0.00  0.00    +0.260 A 
ATOM      6  O   UNL     1       7.033  -9.328  -2.074  0.00  0.00    -0.267 OA
ATOM      7  C   UNL     1       7.857  -7.209  -1.705  0.00  0.00    +0.083 A 
ATOM      8  C   UNL     1       9.276  -7.377  -1.999  0.00  0.00    +0.039 A 
ATOM      9  C   UNL     1      10.097  -6.302  -1.884  0.00  0.00    +0.059 A 
ATOM     10  S   UNL     1       8.997  -4.997  -1.369  0.00  0.00    -0.076 S 
ATOM     11  C   UNL     1       7.478  -5.912  -1.322  0.00  0.00    +0.116 A 
ATOM     12  N   UNL     1       6.217  -5.607  -1.027  0.00  0.00    -0.229 NA
BRANCH   8  13
ATOM     13  C   UNL     1       9.809  -8.690  -2.414  0.00  0.00    +0.136 A 
ATOM     14  C   UNL     1      10.598  -8.926  -3.497  0.00  0.00    +0.050 A 
ATOM     15  C   UNL     1      10.870 -10.310  -3.508  0.00  0.00    +0.042 A 
ATOM     16  C   UNL     1      10.235 -10.845  -2.448  0.00  0.00    +0.196 A 
ATOM     17  O   UNL     1       9.595  -9.864  -1.789  0.00  0.00    -0.463 OA
ENDBRANCH   8  13
ENDBRANCH   1   2
BRANCH   1  19
ATOM     18  C   UNL     1       4.558  -4.446   0.868  0.00  0.00    -0.095 C 
ATOM     19  N   UNL     1       3.826  -4.689  -0.392  0.00  0.00    +0.388 N 
ATOM     20  H   UNL     1       4.277  -4.160  -1.148  0.00  0.00    -0.081 HD
BRANCH  19  21
ATOM     21  C   UNL     1       2.425  -4.236  -0.258  0.00  0.00    +0.019 C 
BRANCH  21  23
ATOM     22  N   UNL     1       1.237  -2.079  -0.020  0.00  0.00    -0.287 N 
ATOM     23  C   UNL     1       2.410  -2.734  -0.137  0.00  0.00    +0.201 C 
ATOM     24  O   UNL     1       3.452  -2.114  -0.144  0.00  0.00    -0.278 OA
ATOM     25  H   UNL     1       0.409  -2.578   0.062  0.00  0.00    +0.155 HD
BRANCH  22  30
ATOM     26  C   UNL     1       1.143   3.593  -0.015  0.00  0.00    +0.044 C 
ATOM     27  C   UNL     1       1.168   2.086  -0.017  0.00  0.00    -0.050 A 
ATOM     28  C   UNL     1       2.111   1.412  -0.771  0.00  0.00    +0.005 A 
ATOM     29  C   UNL     1       2.137   0.031  -0.774  0.00  0.00    +0.023 A 
ATOM     30  C   UNL     1       1.214  -0.680  -0.019  0.00  0.00    +0.033 A 
ATOM     31  C   UNL     1       0.268  -0.001   0.737  0.00  0.00    +0.023 A 
ATOM     32  C   UNL     1       0.248   1.380   0.736  0.00  0.00    +0.005 A 
ENDBRANCH  22  30
ENDBRANCH  21  23
ENDBRANCH  19  21
ENDBRANCH   1  19
TORSDOF 6
