REMARK  Name = ZINC14943528
REMARK  11 active torsions:
REMARK  status: ('A' for Active; 'I' for Inactive)
REMARK    1  A    between atoms: C_1  and  C_2
REMARK    2  A    between atoms: C_2  and  C_26
REMARK    3  A    between atoms: C_3  and  C_24
REMARK    4  A    between atoms: C_3  and  O_25
REMARK    5  A    between atoms: N_4  and  N_8
REMARK    6  A    between atoms: C_12  and  C_16
REMARK    7  A    between atoms: C_12  and  C_17
REMARK    8  A    between atoms: C_13  and  C_14
REMARK    9  A    between atoms: C_13  and  O_15
REMARK   10  A    between atoms: C_17  and  C_18
REMARK   11  A    between atoms: C_26  and  C_27
REMARK                            x       y       z     vdW  Elec       q    Type
REMARK                         _______ _______ _______ _____ _____    ______ ____
ROOT
ATOM      1  C   UNL     1      -4.400   1.628   1.974  0.00  0.00    +0.061 C 
ATOM      2  C   UNL     1      -3.303   2.582   1.498  0.00  0.00    +0.163 C 
ATOM      3  C   UNL     1      -1.912   1.955   1.714  0.00  0.00    +0.193 C 
ATOM      4  N   UNL     1      -1.355   1.861   0.356  0.00  0.00    -0.143 N 
ATOM      5  C   UNL     1      -2.249   2.350  -0.514  0.00  0.00    +0.423 C 
ATOM      6  O   UNL     1      -2.050   2.400  -1.712  0.00  0.00    -0.224 OA
ATOM      7  O   UNL     1      -3.383   2.773   0.056  0.00  0.00    -0.438 OA
ATOM      8  C   UNL     1      -1.044   2.861   2.589  0.00  0.00    +0.069 C 
ENDROOT
BRANCH   4   9
ATOM      9  N   UNL     1      -0.093   1.349   0.026  0.00  0.00    -0.143 N 
ATOM     10  C   UNL     1       0.203   0.054  -0.145  0.00  0.00    +0.423 C 
ATOM     11  O   UNL     1      -0.617  -0.835  -0.023  0.00  0.00    -0.224 OA
ATOM     12  O   UNL     1       1.482  -0.172  -0.461  0.00  0.00    -0.438 OA
ATOM     13  C   UNL     1       2.198   1.095  -0.528  0.00  0.00    +0.163 C 
ATOM     14  C   UNL     1       1.123   2.148  -0.194  0.00  0.00    +0.193 C 
ATOM     15  C   UNL     1       0.929   3.109  -1.369  0.00  0.00    +0.069 C 
ATOM     16  C   UNL     1       3.326   1.130   0.505  0.00  0.00    +0.061 C 
BRANCH  14  17
ATOM     17  O   UNL     1       1.474   2.865   0.991  0.00  0.00    -0.367 OA
ATOM     18  H   UNL     1       0.839   3.551   1.239  0.00  0.00    +0.212 HD
ENDBRANCH  14  17
BRANCH  13  19
ATOM     19  C   UNL     1       2.754   1.324  -1.935  0.00  0.00    +0.087 C 
BRANCH  19  20
ATOM     20  C   UNL     1       3.730   0.227  -2.274  0.00  0.00    -0.043 A 
ATOM     21  C   UNL     1       5.071   0.379  -1.976  0.00  0.00    +0.004 A 
ATOM     22  C   UNL     1       5.966  -0.629  -2.283  0.00  0.00    +0.000 A 
ATOM     23  C   UNL     1       5.521  -1.785  -2.897  0.00  0.00    +0.000 A 
ATOM     24  C   UNL     1       4.180  -1.935  -3.199  0.00  0.00    +0.000 A 
ATOM     25  C   UNL     1       3.285  -0.929  -2.888  0.00  0.00    +0.004 A 
ENDBRANCH  19  20
ENDBRANCH  13  19
ENDBRANCH   4   9
BRANCH   3  26
ATOM     26  O   UNL     1      -2.028   0.657   2.300  0.00  0.00    -0.367 OA
ATOM     27  H   UNL     1      -1.186   0.193   2.399  0.00  0.00    +0.212 HD
ENDBRANCH   3  26
BRANCH   2  28
ATOM     28  C   UNL     1      -3.405   3.925   2.224  0.00  0.00    +0.087 C 
BRANCH  28  29
ATOM     29  C   UNL     1      -4.809   4.457   2.099  0.00  0.00    -0.043 A 
ATOM     30  C   UNL     1      -5.147   5.274   1.037  0.00  0.00    +0.004 A 
ATOM     31  C   UNL     1      -6.436   5.759   0.921  0.00  0.00    +0.000 A 
ATOM     32  C   UNL     1      -7.385   5.435   1.872  0.00  0.00    +0.000 A 
ATOM     33  C   UNL     1      -7.045   4.622   2.938  0.00  0.00    +0.000 A 
ATOM     34  C   UNL     1      -5.758   4.133   3.051  0.00  0.00    +0.004 A 
ENDBRANCH  28  29
ENDBRANCH   2  28
TORSDOF 7
