REMARK  Name = ZINC20130709
REMARK  5 active torsions:
REMARK  status: ('A' for Active; 'I' for Inactive)
REMARK    1  A    between atoms: C_1  and  C_2
REMARK    2  A    between atoms: C_2  and  C_3
REMARK    3  A    between atoms: C_2  and  C_4
REMARK    4  A    between atoms: C_7  and  C_10
REMARK    5  A    between atoms: N_19  and  C_22
REMARK                            x       y       z     vdW  Elec       q    Type
REMARK                         _______ _______ _______ _____ _____    ______ ____
ROOT
ATOM      1  C   UNL     1      -2.345   5.868  -4.037  0.00  0.00    +0.190 C 
ATOM      2  N   UNL     1      -1.660   6.312  -2.809  0.00  0.00    -0.316 N 
ATOM      3  C   UNL     1      -1.374   5.346  -1.880  0.00  0.00    +0.080 A 
ATOM      4  C   UNL     1      -1.248   3.986  -2.207  0.00  0.00    +0.068 A 
ATOM      5  C   UNL     1      -0.933   3.098  -1.102  0.00  0.00    -0.027 A 
ATOM      6  C   UNL     1      -0.806   3.689   0.109  0.00  0.00    -0.021 A 
ATOM      7  S   UNL     1      -1.093   5.412  -0.192  0.00  0.00    -0.080 S 
ATOM      8  C   UNL     1      -0.491   3.007   1.403  0.00  0.00    -0.036 C 
ATOM      9  N   UNL     1      -0.696   1.557   1.221  0.00  0.00    +0.381 N 
ATOM     10  C   UNL     1      -0.013   1.086   0.008  0.00  0.00    -0.074 C 
ATOM     11  C   UNL     1      -0.748   1.591  -1.236  0.00  0.00    +0.018 C 
ATOM     12  C   UNL     1      -0.244   0.811   2.403  0.00  0.00    -0.096 C 
ATOM     13  C   UNL     1      -1.435   3.604  -3.625  0.00  0.00    +0.248 C 
ATOM     14  O   UNL     1      -1.221   2.469  -4.009  0.00  0.00    -0.270 OA
ATOM     15  N   UNL     1      -1.853   4.565  -4.474  0.00  0.00    -0.289 N 
ATOM     16  H   UNL     1      -1.406   7.374  -2.674  0.00  0.00    +0.149 HD
ATOM     17  H   UNL     1      -1.810   4.326  -5.547  0.00  0.00    +0.151 HD
ATOM     18  H   UNL     1      -1.773   1.370   1.099  0.00  0.00    -0.082 HD
ENDROOT
BRANCH   1  22
ATOM     19  C   UNL     1      -6.540   5.599  -3.281  0.00  0.00    -0.045 A 
ATOM     20  C   UNL     1      -5.951   4.764  -4.213  0.00  0.00    +0.004 A 
ATOM     21  C   UNL     1      -4.593   4.851  -4.457  0.00  0.00    +0.007 A 
ATOM     22  C   UNL     1      -3.825   5.773  -3.771  0.00  0.00    -0.009 A 
ATOM     23  C   UNL     1      -4.414   6.604  -2.836  0.00  0.00    +0.007 A 
ATOM     24  C   UNL     1      -5.772   6.521  -2.595  0.00  0.00    +0.004 A 
BRANCH  19  26
ATOM     25  C   UNL     1      -8.252   5.155  -1.543  0.00  0.00    +0.012 C 
ATOM     26  C   UNL     1      -8.021   5.503  -3.015  0.00  0.00    +0.013 C 
ATOM     27  C   UNL     1      -8.683   6.846  -3.332  0.00  0.00    +0.012 C 
ENDBRANCH  19  26
ENDBRANCH   1  22
TORSDOF 2
