REMARK  Name = ZINC58988469
REMARK  10 active torsions:
REMARK  status: ('A' for Active; 'I' for Inactive)
REMARK    1  A    between atoms: C_1  and  C_2
REMARK    2  A    between atoms: N_8  and  C_9
REMARK    3  A    between atoms: C_9  and  C_10
REMARK    4  A    between atoms: N_12  and  C_13
REMARK    5  A    between atoms: C_17  and  N_19
REMARK    6  A    between atoms: C_20  and  C_22
REMARK    7  A    between atoms: C_22  and  C_24
REMARK    8  A    between atoms: C_22  and  S_25
REMARK    9  A    between atoms: S_25  and  C_26
REMARK   10  A    between atoms: C_29  and  N_32
REMARK                            x       y       z     vdW  Elec       q    Type
REMARK                         _______ _______ _______ _____ _____    ______ ____
ROOT
ATOM      1  C   UNL     1       1.104  -0.368   5.997  0.00  0.00    +0.035 A 
ATOM      2  C   UNL     1       2.273  -1.113   5.904  0.00  0.00    +0.026 A 
ATOM      3  C   UNL     1       2.925  -1.524   7.051  0.00  0.00    +0.042 A 
ATOM      4  C   UNL     1       2.415  -1.195   8.295  0.00  0.00    +0.145 A 
ATOM      5  C   UNL     1       1.245  -0.450   8.393  0.00  0.00    +0.071 A 
ATOM      6  C   UNL     1       0.593  -0.031   7.242  0.00  0.00    +0.049 A 
ATOM      7  F   UNL     1       3.055  -1.599   9.414  0.00  0.00    -0.204 F 
ENDROOT
BRANCH   1  10
ATOM      8  C   UNL     1       0.430  -0.749   3.746  0.00  0.00    +0.201 C 
ATOM      9  O   UNL     1       1.056  -1.788   3.747  0.00  0.00    -0.278 OA
ATOM     10  N   UNL     1       0.444   0.047   4.834  0.00  0.00    -0.287 N 
ATOM     11  H   UNL     1      -0.003   0.908   4.811  0.00  0.00    +0.155 HD
BRANCH   8  12
ATOM     12  C   UNL     1      -0.364  -0.349   2.530  0.00  0.00    +0.019 C 
BRANCH  12  19
ATOM     13  C   UNL     1      -0.317   0.420  -0.171  0.00  0.00    -0.013 C 
ATOM     14  C   UNL     1      -0.893  -0.929   0.265  0.00  0.00    -0.071 C 
ATOM     15  C   UNL     1      -0.674  -1.959  -0.846  0.00  0.00    -0.016 C 
ATOM     16  C   UNL     1      -1.251  -3.307  -0.406  0.00  0.00    -0.003 C 
ATOM     17  C   UNL     1      -0.594  -3.727   0.912  0.00  0.00    -0.019 C 
ATOM     18  C   UNL     1      -0.816  -2.632   1.958  0.00  0.00    -0.078 C 
ATOM     19  N   UNL     1      -0.218  -1.376   1.490  0.00  0.00    +0.387 N 
ATOM     20  H   UNL     1       0.762  -1.521   1.299  0.00  0.00    -0.081 HD
ENDBRANCH  12  19
ENDBRANCH   8  12
ENDBRANCH   1  10
BRANCH   5  21
ATOM     21  N   UNL     1       0.729  -0.118   9.652  0.00  0.00    -0.282 N 
ATOM     22  C   UNL     1      -0.604  -0.050   9.837  0.00  0.00    +0.230 C 
ATOM     23  O   UNL     1      -1.355  -0.196   8.896  0.00  0.00    -0.274 OA
ATOM     24  H   UNL     1       1.331   0.064  10.390  0.00  0.00    +0.155 HD
BRANCH  22  25
ATOM     25  C   UNL     1      -1.161   0.208  11.213  0.00  0.00    +0.134 C 
ATOM     26  C   UNL     1      -1.196   1.715  11.475  0.00  0.00    +0.029 C 
BRANCH  25  27
ATOM     27  S   UNL     1      -2.843  -0.463  11.319  0.00  0.00    -0.113 S 
BRANCH  27  28
ATOM     28  C   UNL     1      -2.608  -2.209  11.287  0.00  0.00    +0.009 A 
ATOM     29  C   UNL     1      -1.324  -2.740  11.310  0.00  0.00    +0.017 A 
ATOM     30  C   UNL     1      -1.144  -4.109  11.284  0.00  0.00    +0.034 A 
ATOM     31  C   UNL     1      -2.239  -4.951  11.236  0.00  0.00    +0.126 A 
ATOM     32  C   UNL     1      -3.519  -4.427  11.212  0.00  0.00    +0.034 A 
ATOM     33  C   UNL     1      -3.707  -3.059  11.244  0.00  0.00    +0.017 A 
BRANCH  31  34
ATOM     34  N   UNL     1      -2.042  -6.418  11.209  0.00  0.00    +0.056 N 
ATOM     35  O   UNL     1      -0.924  -6.878  11.229  0.00  0.00    -0.126 OA
ATOM     36  O   UNL     1      -2.998  -7.156  11.166  0.00  0.00    -0.126 OA
ENDBRANCH  31  34
ENDBRANCH  27  28
ENDBRANCH  25  27
ENDBRANCH  22  25
ENDBRANCH   5  21
TORSDOF 8
