REMARK  Name = ZINC58929375
REMARK  4 active torsions:
REMARK  status: ('A' for Active; 'I' for Inactive)
REMARK    1  A    between atoms: C_1  and  O_2
REMARK    2  A    between atoms: O_2  and  C_3
REMARK    3  A    between atoms: C_8  and  C_9
REMARK    4  A    between atoms: C_22  and  N_25
REMARK                            x       y       z     vdW  Elec       q    Type
REMARK                         _______ _______ _______ _____ _____    ______ ____
ROOT
ATOM      1  C   UNL     1       0.139  -2.788  -0.200  0.00  0.00    +0.109 C 
ATOM      2  C   UNL     1      -1.363  -2.787  -0.387  0.00  0.00    +0.029 C 
ATOM      3  C   UNL     1      -1.754  -1.489  -1.148  0.00  0.00    +0.033 C 
ATOM      4  C   UNL     1      -1.751  -1.897  -2.605  0.00  0.00    -0.030 C 
ATOM      5  C   UNL     1      -1.808  -3.199  -2.726  0.00  0.00    -0.023 C 
ATOM      6  C   UNL     1      -1.865  -3.860  -1.351  0.00  0.00    +0.049 C 
ATOM      7  C   UNL     1      -1.110  -5.145  -1.294  0.00  0.00    -0.017 A 
ATOM      8  C   UNL     1      -1.667  -6.280  -1.867  0.00  0.00    +0.006 A 
ATOM      9  C   UNL     1      -1.002  -7.488  -1.820  0.00  0.00    +0.003 A 
ATOM     10  C   UNL     1       0.230  -7.580  -1.198  0.00  0.00    +0.034 A 
ATOM     11  C   UNL     1       0.796  -6.457  -0.631  0.00  0.00    +0.147 A 
ATOM     12  C   UNL     1       0.131  -5.236  -0.684  0.00  0.00    +0.062 A 
ATOM     13  N   UNL     1       0.730  -4.107  -0.160  0.00  0.00    -0.335 N 
ATOM     14  H   UNL     1       1.588  -4.215   0.279  0.00  0.00    +0.147 HD
ENDROOT
BRANCH   1  20
ATOM     15  C   UNL     1       1.051  -2.656  -2.532  0.00  0.00    +0.125 A 
ATOM     16  C   UNL     1       1.620  -1.943  -3.577  0.00  0.00    +0.047 A 
ATOM     17  C   UNL     1       1.905  -0.601  -3.422  0.00  0.00    +0.019 A 
ATOM     18  C   UNL     1       1.623   0.034  -2.225  0.00  0.00    +0.018 A 
ATOM     19  C   UNL     1       1.056  -0.675  -1.181  0.00  0.00    +0.024 A 
ATOM     20  C   UNL     1       0.764  -2.017  -1.334  0.00  0.00    +0.016 A 
ATOM     21 BR   UNL     1       2.014   1.872  -2.015  0.00  0.00    -0.050 Br
BRANCH  15  23
ATOM     22  C   UNL     1       1.093  -4.569  -3.942  0.00  0.00    +0.277 C 
ATOM     23  O   UNL     1       0.770  -3.977  -2.682  0.00  0.00    -0.495 OA
ENDBRANCH  15  23
ENDBRANCH   1  20
BRANCH  11  24
ATOM     24  N   UNL     1       2.114  -6.551   0.037  0.00  0.00    +0.058 N 
ATOM     25  O   UNL     1       2.977  -7.260  -0.426  0.00  0.00    -0.126 OA
ATOM     26  O   UNL     1       2.327  -5.919   1.045  0.00  0.00    -0.126 OA
ENDBRANCH  11  24
TORSDOF 3
