REMARK  Name = ZINC13630169
REMARK  11 active torsions:
REMARK  status: ('A' for Active; 'I' for Inactive)
REMARK    1  A    between atoms: C_3  and  C_6
REMARK    2  A    between atoms: C_6  and  N_7
REMARK    3  A    between atoms: C_9  and  C_14
REMARK    4  A    between atoms: N_16  and  N_17
REMARK    5  A    between atoms: N_17  and  C_18
REMARK    6  A    between atoms: C_18  and  N_20
REMARK    7  A    between atoms: C_21  and  C_23
REMARK    8  A    between atoms: C_23  and  C_24
REMARK    9  A    between atoms: C_24  and  C_25
REMARK   10  A    between atoms: C_25  and  O_26
REMARK   11  A    between atoms: O_26  and  C_27
REMARK                            x       y       z     vdW  Elec       q    Type
REMARK                         _______ _______ _______ _____ _____    ______ ____
ROOT
ATOM      1  N   UNL     1       3.116   5.170   0.000  0.00  0.00    -0.246 N 
ATOM      2  H   UNL     1       4.026   5.506  -0.007  0.00  0.00    +0.172 HD
ENDROOT
BRANCH   1   5
ATOM      3  C   UNL     1       2.267   7.395   0.020  0.00  0.00    +0.234 C 
ATOM      4  O   UNL     1       3.405   7.814   0.011  0.00  0.00    -0.274 OA
ATOM      5  N   UNL     1       2.039   6.066   0.015  0.00  0.00    -0.235 N 
ATOM      6  H   UNL     1       1.129   5.731   0.022  0.00  0.00    +0.173 HD
BRANCH   3   9
ATOM      7  N   UNL     1       0.602  10.477   1.039  0.00  0.00    -0.293 N 
ATOM      8  C   UNL     1       1.602   9.813   0.194  0.00  0.00    +0.121 C 
ATOM      9  C   UNL     1       1.109   8.358   0.036  0.00  0.00    +0.102 C 
ATOM     10  C   UNL     1       0.254   8.175   1.312  0.00  0.00    +0.110 C 
ATOM     11  C   UNL     1      -0.166   9.580   1.683  0.00  0.00    +0.217 C 
ATOM     12  O   UNL     1      -1.063   9.857   2.450  0.00  0.00    -0.276 OA
BRANCH   7  13
ATOM     13  C   UNL     1       0.458  11.929   1.164  0.00  0.00    +0.182 C 
BRANCH  13  16
ATOM     14  C   UNL     1       3.021  13.205   3.484  0.00  0.00    +0.041 A 
ATOM     15  C   UNL     1       2.602  12.825   2.188  0.00  0.00    +0.046 A 
ATOM     16  C   UNL     1       1.323  12.424   2.294  0.00  0.00    +0.122 A 
ATOM     17  O   UNL     1       0.945  12.546   3.577  0.00  0.00    -0.466 OA
ATOM     18  C   UNL     1       1.973  13.013   4.304  0.00  0.00    +0.195 A 
ENDBRANCH  13  16
ENDBRANCH   7  13
ENDBRANCH   3   9
ENDBRANCH   1   5
BRANCH   1  19
ATOM     19  C   UNL     1       2.888   3.842  -0.005  0.00  0.00    +0.153 C 
ATOM     20  S   UNL     1       4.204   2.748  -0.023  0.00  0.00    -0.017 S 
BRANCH  19  21
ATOM     21  N   UNL     1       1.623   3.376   0.005  0.00  0.00    -0.267 N 
ATOM     22  C   UNL     1       1.395   2.047  -0.000  0.00  0.00    +0.219 C 
ATOM     23  O   UNL     1       2.327   1.272  -0.013  0.00  0.00    -0.275 OA
ATOM     24  H   UNL     1       0.878   3.996   0.015  0.00  0.00    +0.157 HD
BRANCH  22  25
ATOM     25  C   UNL     1      -0.019   1.526   0.010  0.00  0.00    +0.099 C 
BRANCH  25  26
ATOM     26  C   UNL     1       0.002  -0.004   0.002  0.00  0.00    +0.050 C 
BRANCH  26  27
ATOM     27  C   UNL     1      -1.433  -0.534   0.013  0.00  0.00    +0.229 C 
BRANCH  27  28
ATOM     28  O   UNL     1      -1.414  -1.962   0.005  0.00  0.00    -0.490 OA
BRANCH  28  29
ATOM     29  C   UNL     1      -2.617  -2.596   0.013  0.00  0.00    +0.139 A 
ATOM     30  C   UNL     1      -3.791  -1.858   0.028  0.00  0.00    +0.048 A 
ATOM     31  C   UNL     1      -5.012  -2.503   0.036  0.00  0.00    +0.023 A 
ATOM     32  C   UNL     1      -5.065  -3.886   0.030  0.00  0.00    +0.043 A 
ATOM     33  C   UNL     1      -3.896  -4.625   0.015  0.00  0.00    +0.043 A 
ATOM     34  C   UNL     1      -2.672  -3.983   0.000  0.00  0.00    +0.084 A 
ATOM     35 CL   UNL     1      -1.204  -4.910  -0.026  0.00  0.00    -0.080 Cl
ATOM     36 CL   UNL     1      -6.602  -4.694   0.040  0.00  0.00    -0.083 Cl
ENDBRANCH  28  29
ENDBRANCH  27  28
ENDBRANCH  26  27
ENDBRANCH  25  26
ENDBRANCH  22  25
ENDBRANCH  19  21
ENDBRANCH   1  19
TORSDOF 11
