REMARK  Name = ZINC05260482
REMARK  14 active torsions:
REMARK  status: ('A' for Active; 'I' for Inactive)
REMARK    1  A    between atoms: C_4  and  O_10
REMARK    2  A    between atoms: C_5  and  N_7
REMARK    3  A    between atoms: O_10  and  C_11
REMARK    4  A    between atoms: C_13  and  O_42
REMARK    5  A    between atoms: C_15  and  O_41
REMARK    6  A    between atoms: C_17  and  O_24
REMARK    7  A    between atoms: C_19  and  C_22
REMARK    8  A    between atoms: C_22  and  O_23
REMARK    9  A    between atoms: O_24  and  C_25
REMARK   10  A    between atoms: C_27  and  O_40
REMARK   11  A    between atoms: C_29  and  O_39
REMARK   12  A    between atoms: C_31  and  O_38
REMARK   13  A    between atoms: C_33  and  C_36
REMARK   14  A    between atoms: C_36  and  O_37
REMARK                            x       y       z     vdW  Elec       q    Type
REMARK                         _______ _______ _______ _____ _____    ______ ____
ROOT
ATOM      1  C   UNL     1       4.772   0.164  -0.043  0.00  0.00    +0.339 C 
ATOM      2  C   UNL     1       5.998  -0.747   0.064  0.00  0.00    +0.214 C 
ATOM      3  C   UNL     1       6.049  -1.668  -1.159  0.00  0.00    +0.180 C 
ATOM      4  C   UNL     1       6.070  -0.812  -2.429  0.00  0.00    +0.184 C 
ATOM      5  C   UNL     1       4.841   0.101  -2.440  0.00  0.00    +0.179 C 
ATOM      6  O   UNL     1       4.839   0.909  -1.261  0.00  0.00    -0.331 OA
ENDROOT
BRANCH   3   7
ATOM      7  O   UNL     1       7.230  -2.471  -1.104  0.00  0.00    -0.386 OA
ATOM      8  H   UNL     1       7.282  -3.040  -0.324  0.00  0.00    +0.210 HD
ENDBRANCH   3   7
BRANCH   2   9
ATOM      9  O   UNL     1       7.183   0.050   0.110  0.00  0.00    -0.383 OA
ATOM     10  H   UNL     1       7.216   0.662   0.859  0.00  0.00    +0.210 HD
ENDBRANCH   2   9
BRANCH   1  11
ATOM     11  O   UNL     1       3.586  -0.632  -0.036  0.00  0.00    -0.459 OA
BRANCH  11  15
ATOM     12  C   UNL     1      -0.017   1.378   0.010  0.00  0.00    +0.002 A 
ATOM     13  C   UNL     1       1.170   2.088   0.002  0.00  0.00    +0.004 A 
ATOM     14  C   UNL     1       2.377   1.417  -0.013  0.00  0.00    +0.048 A 
ATOM     15  C   UNL     1       2.399   0.030  -0.021  0.00  0.00    +0.154 A 
ATOM     16  C   UNL     1       1.207  -0.680  -0.013  0.00  0.00    +0.168 A 
ATOM     17  C   UNL     1       0.002  -0.004   0.002  0.00  0.00    +0.036 A 
BRANCH  16  18
ATOM     18  N   UNL     1       1.226  -2.160  -0.022  0.00  0.00    +0.060 N 
ATOM     19  O   UNL     1       0.180  -2.782  -0.015  0.00  0.00    -0.126 OA
ATOM     20  O   UNL     1       2.289  -2.755  -0.035  0.00  0.00    -0.126 OA
ENDBRANCH  16  18
ENDBRANCH  11  15
ENDBRANCH   1  11
BRANCH   5  21
ATOM     21  C   UNL     1       4.887   1.002  -3.675  0.00  0.00    +0.190 C 
BRANCH  21  22
ATOM     22  O   UNL     1       3.685   1.773  -3.747  0.00  0.00    -0.392 OA
ATOM     23  H   UNL     1       3.645   2.369  -4.508  0.00  0.00    +0.210 HD
ENDBRANCH  21  22
ENDBRANCH   5  21
BRANCH   4  24
ATOM     24  O   UNL     1       7.257  -0.016  -2.448  0.00  0.00    -0.340 OA
BRANCH  24  25
ATOM     25  C   UNL     1       8.366  -0.643  -3.095  0.00  0.00    +0.282 C 
ATOM     26  C   UNL     1       9.634   0.177  -2.843  0.00  0.00    +0.201 C 
ATOM     27  C   UNL     1      10.807  -0.468  -3.588  0.00  0.00    +0.179 C 
ATOM     28  C   UNL     1      10.461  -0.561  -5.078  0.00  0.00    +0.177 C 
ATOM     29  C   UNL     1       9.161  -1.353  -5.243  0.00  0.00    +0.178 C 
ATOM     30  O   UNL     1       8.120  -0.717  -4.501  0.00  0.00    -0.341 OA
BRANCH  28  31
ATOM     31  O   UNL     1      10.291   0.753  -5.613  0.00  0.00    -0.386 OA
ATOM     32  H   UNL     1      11.078   1.311  -5.542  0.00  0.00    +0.210 HD
ENDBRANCH  28  31
BRANCH  27  33
ATOM     33  O   UNL     1      11.979   0.332  -3.419  0.00  0.00    -0.386 OA
ATOM     34  H   UNL     1      12.256   0.434  -2.498  0.00  0.00    +0.210 HD
ENDBRANCH  27  33
BRANCH  26  35
ATOM     35  O   UNL     1       9.442   1.511  -3.318  0.00  0.00    -0.384 OA
ATOM     36  H   UNL     1       8.711   1.979  -2.892  0.00  0.00    +0.210 HD
ENDBRANCH  26  35
BRANCH  29  37
ATOM     37  C   UNL     1       8.777  -1.399  -6.724  0.00  0.00    +0.190 C 
BRANCH  37  38
ATOM     38  O   UNL     1       7.629  -2.234  -6.892  0.00  0.00    -0.392 OA
ATOM     39  H   UNL     1       7.329  -2.309  -7.808  0.00  0.00    +0.210 HD
ENDBRANCH  37  38
ENDBRANCH  29  37
ENDBRANCH  24  25
ENDBRANCH   4  24
TORSDOF 14
