REMARK  Name = ZINC13641289
REMARK  5 active torsions:
REMARK  status: ('A' for Active; 'I' for Inactive)
REMARK    1  A    between atoms: C_4  and  C_7
REMARK    2  A    between atoms: C_9  and  C_21
REMARK    3  A    between atoms: C_11  and  C_16
REMARK    4  A    between atoms: N_23  and  C_24
REMARK    5  A    between atoms: C_25  and  C_32
REMARK                            x       y       z     vdW  Elec       q    Type
REMARK                         _______ _______ _______ _____ _____    ______ ____
ROOT
ATOM      1  C   UNL     1      -1.140   2.739   0.226  0.00  0.00    +0.123 A 
ATOM      2  C   UNL     1      -0.176   1.959  -0.559  0.00  0.00    +0.081 A 
ATOM      3  C   UNL     1      -0.294   0.867  -1.444  0.00  0.00    +0.054 A 
ATOM      4  C   UNL     1       0.867   0.373  -2.029  0.00  0.00    +0.045 A 
ATOM      5  C   UNL     1       2.094   0.974  -1.720  0.00  0.00    +0.111 A 
ATOM      6  N   UNL     1       2.167   2.000  -0.882  0.00  0.00    -0.207 NA
ATOM      7  C   UNL     1       1.091   2.506  -0.300  0.00  0.00    +0.260 A 
ATOM      8  O   UNL     1       0.912   3.523   0.568  0.00  0.00    -0.334 OA
ATOM      9  N   UNL     1      -0.461   3.646   0.878  0.00  0.00    -0.075 NA
ENDROOT
BRANCH   1  13
ATOM     10  C   UNL     1      -5.350   2.159   0.357  0.00  0.00    +0.000 A 
ATOM     11  C   UNL     1      -4.527   1.427   1.194  0.00  0.00    +0.001 A 
ATOM     12  C   UNL     1      -3.160   1.611   1.156  0.00  0.00    +0.010 A 
ATOM     13  C   UNL     1      -2.608   2.537   0.271  0.00  0.00    +0.004 A 
ATOM     14  C   UNL     1      -3.443   3.275  -0.567  0.00  0.00    +0.010 A 
ATOM     15  C   UNL     1      -4.808   3.078  -0.523  0.00  0.00    +0.001 A 
ENDBRANCH   1  13
BRANCH   5  16
ATOM     16  C   UNL     1       3.329   0.455  -2.337  0.00  0.00    +0.153 A 
ATOM     17  C   UNL     1       4.586   0.938  -2.137  0.00  0.00    +0.051 A 
ATOM     18  C   UNL     1       5.452   0.147  -2.915  0.00  0.00    +0.042 A 
ATOM     19  C   UNL     1       4.690  -0.764  -3.553  0.00  0.00    +0.196 A 
ATOM     20  O   UNL     1       3.409  -0.575  -3.202  0.00  0.00    -0.461 OA
ENDBRANCH   5  16
BRANCH   3  21
ATOM     21  C   UNL     1      -1.613   0.265  -1.741  0.00  0.00    +0.250 C 
ATOM     22  O   UNL     1      -2.600   0.640  -1.139  0.00  0.00    -0.270 OA
ATOM     23  N   UNL     1      -1.718  -0.698  -2.678  0.00  0.00    -0.275 N 
ATOM     24  H   UNL     1      -0.930  -0.996  -3.157  0.00  0.00    +0.156 HD
BRANCH  23  25
ATOM     25  C   UNL     1      -2.954  -1.262  -2.956  0.00  0.00    +0.090 A 
ATOM     26  C   UNL     1      -3.261  -2.251  -3.873  0.00  0.00    +0.084 A 
ATOM     27  C   UNL     1      -4.657  -2.674  -3.972  0.00  0.00    -0.018 A 
ATOM     28  C   UNL     1      -5.506  -2.038  -3.144  0.00  0.00    -0.004 A 
ATOM     29  S   UNL     1      -4.486  -0.904  -2.235  0.00  0.00    -0.077 S 
ATOM     30  C   UNL     1      -6.921  -2.523  -3.307  0.00  0.00    +0.043 C 
ATOM     31  C   UNL     1      -6.927  -3.261  -4.664  0.00  0.00    +0.010 C 
ATOM     32  C   UNL     1      -5.451  -3.689  -4.795  0.00  0.00    +0.037 C 
BRANCH  26  33
ATOM     33  C   UNL     1      -2.247  -2.840  -4.696  0.00  0.00    +0.102 C 
ATOM     34  N   UNL     1      -1.443  -3.307  -5.348  0.00  0.00    -0.191 NA
ENDBRANCH  26  33
ENDBRANCH  23  25
ENDBRANCH   3  21
TORSDOF 5
