REMARK  Name = ZINC39960765
REMARK  10 active torsions:
REMARK  status: ('A' for Active; 'I' for Inactive)
REMARK    1  A    between atoms: C_1  and  C_2
REMARK    2  A    between atoms: C_4  and  C_31
REMARK    3  A    between atoms: C_6  and  C_8
REMARK    4  A    between atoms: C_17  and  C_19
REMARK    5  A    between atoms: C_19  and  N_20
REMARK    6  A    between atoms: N_20  and  C_21
REMARK    7  A    between atoms: C_21  and  C_22
REMARK    8  A    between atoms: C_25  and  N_28
REMARK    9  A    between atoms: N_28  and  C_29
REMARK   10  A    between atoms: N_28  and  C_30
REMARK                            x       y       z     vdW  Elec       q    Type
REMARK                         _______ _______ _______ _____ _____    ______ ____
ROOT
ATOM      1  C   UNL     1       0.293  -2.590   2.397  0.00  0.00    +0.024 C 
ATOM      2  C   UNL     1      -0.722  -3.734   2.367  0.00  0.00    -0.069 C 
ATOM      3  N   UNL     1      -0.057  -5.002   2.677  0.00  0.00    +0.381 N 
ATOM      4  C   UNL     1       0.522  -4.965   4.022  0.00  0.00    -0.078 C 
ATOM      5  C   UNL     1       1.579  -3.861   4.107  0.00  0.00    -0.015 C 
ATOM      6  C   UNL     1       1.675  -3.158   2.747  0.00  0.00    -0.007 C 
ATOM      7  C   UNL     1       2.049  -4.206   1.690  0.00  0.00    -0.013 C 
ATOM      8  C   UNL     1       0.973  -5.302   1.680  0.00  0.00    -0.086 C 
ATOM      9  H   UNL     1      -0.747  -5.738   2.655  0.00  0.00    -0.082 HD
ENDROOT
BRANCH   1  15
ATOM     10  C   UNL     1      -1.870  -1.513  -1.854  0.00  0.00    +0.088 C 
ATOM     11  C   UNL     1      -0.660  -1.414  -0.961  0.00  0.00    +0.127 A 
ATOM     12  N   UNL     1       0.397  -0.757  -1.387  0.00  0.00    -0.229 NA
ATOM     13  C   UNL     1       1.485  -0.649  -0.622  0.00  0.00    +0.110 A 
ATOM     14  C   UNL     1       1.482  -1.248   0.644  0.00  0.00    +0.055 A 
ATOM     15  C   UNL     1       0.348  -1.927   1.045  0.00  0.00    +0.047 A 
ATOM     16  N   UNL     1      -0.694  -1.984   0.228  0.00  0.00    -0.237 NA
BRANCH  13  17
ATOM     17  C   UNL     1       2.670   0.088  -1.102  0.00  0.00    +0.153 A 
ATOM     18  C   UNL     1       2.788   0.714  -2.305  0.00  0.00    +0.051 A 
ATOM     19  C   UNL     1       4.075   1.283  -2.340  0.00  0.00    +0.042 A 
ATOM     20  C   UNL     1       4.673   0.981  -1.169  0.00  0.00    +0.196 A 
ATOM     21  O   UNL     1       3.820   0.264  -0.423  0.00  0.00    -0.461 OA
ENDBRANCH  13  17
ENDBRANCH   1  15
BRANCH   8  22
ATOM     22  C   UNL     1       0.332  -5.373   0.292  0.00  0.00    -0.098 C 
BRANCH  22  23
ATOM     23  N   UNL     1      -0.755  -6.362   0.306  0.00  0.00    +0.381 N 
ATOM     24  H   UNL     1      -0.383  -7.267   0.552  0.00  0.00    -0.086 HD
ATOM     25  H   UNL     1      -1.450  -6.088   0.985  0.00  0.00    -0.086 HD
BRANCH  23  26
ATOM     26  C   UNL     1      -1.371  -6.430  -1.026  0.00  0.00    -0.047 C 
BRANCH  26  27
ATOM     27  C   UNL     1      -2.486  -7.444  -1.012  0.00  0.00    -0.064 A 
ATOM     28  C   UNL     1      -2.220  -8.767  -1.315  0.00  0.00    +0.003 A 
ATOM     29  C   UNL     1      -3.239  -9.698  -1.303  0.00  0.00    +0.023 A 
ATOM     30  C   UNL     1      -4.533  -9.306  -0.986  0.00  0.00    +0.029 A 
ATOM     31  C   UNL     1      -4.798  -7.976  -0.682  0.00  0.00    +0.023 A 
ATOM     32  C   UNL     1      -3.772  -7.051  -0.691  0.00  0.00    +0.003 A 
BRANCH  30  33
ATOM     33  N   UNL     1      -5.567 -10.245  -0.974  0.00  0.00    -0.336 N 
ATOM     34  C   UNL     1      -5.286 -11.647  -1.295  0.00  0.00    +0.129 C 
ATOM     35  C   UNL     1      -6.931  -9.829  -0.639  0.00  0.00    +0.129 C 
ENDBRANCH  30  33
ENDBRANCH  26  27
ENDBRANCH  23  26
ENDBRANCH  22  23
ENDBRANCH   8  22
TORSDOF 7
