REMARK  Name = ZINC06076950
REMARK  15 active torsions:
REMARK  status: ('A' for Active; 'I' for Inactive)
REMARK    1  A    between atoms: C_1  and  C_2
REMARK    2  A    between atoms: C_2  and  C_3
REMARK    3  A    between atoms: C_2  and  C_4
REMARK    4  A    between atoms: C_4  and  C_5
REMARK    5  A    between atoms: C_5  and  N_6
REMARK    6  A    between atoms: C_7  and  C_9
REMARK    7  A    between atoms: C_9  and  C_11
REMARK    8  A    between atoms: C_9  and  N_20
REMARK    9  A    between atoms: C_14  and  N_17
REMARK   10  A    between atoms: N_17  and  C_18
REMARK   11  A    between atoms: N_17  and  C_19
REMARK   12  A    between atoms: N_20  and  C_21
REMARK   13  A    between atoms: C_27  and  C_29
REMARK   14  A    between atoms: C_30  and  N_37
REMARK   15  A    between atoms: C_31  and  C_34
REMARK                            x       y       z     vdW  Elec       q    Type
REMARK                         _______ _______ _______ _____ _____    ______ ____
ROOT
ATOM      1  N   UNL     1      -1.520   3.081  -0.945  0.00  0.00    -0.251 N 
ATOM      2  C   UNL     1      -2.671   3.598  -1.417  0.00  0.00    +0.262 C 
ATOM      3  O   UNL     1      -3.736   3.243  -0.947  0.00  0.00    -0.269 OA
ENDROOT
BRANCH   1   4
ATOM      4  C   UNL     1      -0.293   3.568  -1.407  0.00  0.00    +0.038 A 
ATOM      5  C   UNL     1       0.149   4.825  -1.016  0.00  0.00    +0.023 A 
ATOM      6  C   UNL     1       1.363   5.301  -1.471  0.00  0.00    +0.002 A 
ATOM      7  C   UNL     1       2.134   4.531  -2.323  0.00  0.00    +0.000 A 
ATOM      8  C   UNL     1       1.694   3.281  -2.718  0.00  0.00    +0.002 A 
ATOM      9  C   UNL     1       0.483   2.797  -2.263  0.00  0.00    +0.023 A 
ENDBRANCH   1   4
BRANCH   2  10
ATOM     10  C   UNL     1      -2.641   4.588  -2.495  0.00  0.00    +0.116 A 
ATOM     11  C   UNL     1      -3.688   5.332  -3.044  0.00  0.00    +0.076 A 
ATOM     12  C   UNL     1      -3.262   6.182  -4.064  0.00  0.00    +0.155 A 
ATOM     13  N   UNL     1      -1.991   6.197  -4.400  0.00  0.00    -0.203 NA
ATOM     14  S   UNL     1      -1.261   5.161  -3.464  0.00  0.00    +0.019 S 
BRANCH  12  15
ATOM     15  C   UNL     1      -4.227   7.052  -4.761  0.00  0.00    +0.262 C 
ATOM     16  O   UNL     1      -5.401   7.033  -4.445  0.00  0.00    -0.269 OA
ATOM     17  N   UNL     1      -3.808   7.867  -5.749  0.00  0.00    -0.324 N 
ATOM     18  H   UNL     1      -2.872   7.882  -6.002  0.00  0.00    +0.145 HD
ATOM     19  H   UNL     1      -4.443   8.439  -6.208  0.00  0.00    +0.145 HD
ENDBRANCH  12  15
BRANCH  11  20
ATOM     20  N   UNL     1      -5.006   5.237  -2.619  0.00  0.00    -0.355 N 
ATOM     21  H   UNL     1      -5.242   4.628  -1.902  0.00  0.00    +0.142 HD
ATOM     22  H   UNL     1      -5.691   5.780  -3.039  0.00  0.00    +0.142 HD
ENDBRANCH  11  20
ENDBRANCH   2  10
BRANCH   1  23
ATOM     23  C   UNL     1      -1.553   2.009   0.054  0.00  0.00    +0.197 C 
BRANCH  23  24
ATOM     24  C   UNL     1      -0.156   1.495   0.285  0.00  0.00    -0.018 A 
ATOM     25  C   UNL     1       0.849   2.370   0.654  0.00  0.00    +0.008 A 
ATOM     26  C   UNL     1       2.132   1.902   0.861  0.00  0.00    +0.023 A 
ATOM     27  C   UNL     1       2.412   0.551   0.699  0.00  0.00    +0.029 A 
ATOM     28  C   UNL     1       1.400  -0.325   0.329  0.00  0.00    +0.023 A 
ATOM     29  C   UNL     1       0.119   0.149   0.123  0.00  0.00    +0.008 A 
BRANCH  27  30
ATOM     30  N   UNL     1       3.708   0.075   0.907  0.00  0.00    -0.336 N 
ATOM     31  C   UNL     1       4.030  -1.324   0.617  0.00  0.00    +0.129 C 
ATOM     32  C   UNL     1       4.746   0.975   1.417  0.00  0.00    +0.129 C 
ENDBRANCH  27  30
ENDBRANCH  23  24
BRANCH  23  34
ATOM     33  N   UNL     1      -2.237   1.732   2.414  0.00  0.00    -0.313 N 
ATOM     34  C   UNL     1      -2.112   2.545   1.347  0.00  0.00    +0.238 C 
ATOM     35  O   UNL     1      -2.449   3.707   1.427  0.00  0.00    -0.273 OA
ATOM     36  H   UNL     1      -1.968   0.802   2.350  0.00  0.00    +0.149 HD
BRANCH  33  37
ATOM     37  C   UNL     1      -2.781   2.252   3.671  0.00  0.00    +0.104 C 
BRANCH  37  38
ATOM     38  C   UNL     1      -2.816   1.132   4.714  0.00  0.00    +0.022 C 
BRANCH  38  40
ATOM     39  C   UNL     1      -3.535   0.530   7.030  0.00  0.00    +0.007 C 
ATOM     40  C   UNL     1      -3.383   1.676   6.027  0.00  0.00    -0.016 C 
ATOM     41  C   UNL     1      -2.432   2.729   6.596  0.00  0.00    +0.007 C 
ENDBRANCH  38  40
ENDBRANCH  37  38
ENDBRANCH  33  37
ENDBRANCH  23  34
ENDBRANCH   1  23
TORSDOF 11
