REMARK  Name = ZINC20326669
REMARK  4 active torsions:
REMARK  status: ('A' for Active; 'I' for Inactive)
REMARK    1  A    between atoms: C_4  and  C_7
REMARK    2  A    between atoms: C_10  and  C_13
REMARK    3  A    between atoms: C_13  and  C_14
REMARK    4  A    between atoms: N_16  and  C_17
REMARK                            x       y       z     vdW  Elec       q    Type
REMARK                         _______ _______ _______ _____ _____    ______ ____
ROOT
ATOM      1  C   UNL     1      -0.020   1.085   0.004  0.00  0.00    +0.171 C 
ENDROOT
BRANCH   1   5
ATOM      2  C   UNL     1      -1.741   1.663   3.167  0.00  0.00    +0.181 A 
ATOM      3  N   UNL     1      -1.184   0.797   2.265  0.00  0.00    -0.211 NA
ATOM      4  H   UNL     1      -0.711   3.620   0.851  0.00  0.00    +0.190 HD
ATOM      5  C   UNL     1      -0.722   1.571   1.246  0.00  0.00    +0.134 A 
ATOM      6  N   UNL     1      -0.997   2.813   1.542  0.00  0.00    -0.262 N 
ATOM      7  N   UNL     1      -1.598   2.874   2.677  0.00  0.00    -0.152 NA
BRANCH   2  11
ATOM      8  C   UNL     1      -3.583   0.631   6.854  0.00  0.00    +0.000 A 
ATOM      9  C   UNL     1      -3.515   1.957   6.465  0.00  0.00    +0.001 A 
ATOM     10  C   UNL     1      -2.918   2.299   5.269  0.00  0.00    +0.011 A 
ATOM     11  C   UNL     1      -2.382   1.303   4.451  0.00  0.00    +0.021 A 
ATOM     12  C   UNL     1      -2.458  -0.033   4.847  0.00  0.00    +0.011 A 
ATOM     13  C   UNL     1      -3.053  -0.361   6.048  0.00  0.00    +0.001 A 
ENDBRANCH   2  11
ENDBRANCH   1   5
BRANCH   1  14
ATOM     14  C   UNL     1      -0.751   1.585  -1.215  0.00  0.00    +0.221 C 
ATOM     15  O   UNL     1      -1.744   2.269  -1.088  0.00  0.00    -0.275 OA
ATOM     16  N   UNL     1      -0.300   1.272  -2.446  0.00  0.00    -0.310 N 
ATOM     17  H   UNL     1       0.601   0.652  -2.561  0.00  0.00    +0.149 HD
BRANCH  16  18
ATOM     18  C   UNL     1      -1.011   1.759  -3.631  0.00  0.00    +0.101 C 
ATOM     19  C   UNL     1      -0.746   0.831  -4.840  0.00  0.00    +0.059 C 
ATOM     20  C   UNL     1      -0.045   1.744  -5.858  0.00  0.00    +0.071 C 
ATOM     21  C   UNL     1      -1.051   2.286  -6.883  0.00  0.00    +0.035 C 
ATOM     22  C   UNL     1      -0.245   2.340  -8.206  0.00  0.00    +0.003 C 
ATOM     23  C   UNL     1       0.640   1.070  -8.123  0.00  0.00    +0.003 C 
ATOM     24  C   UNL     1       1.030   0.977  -6.631  0.00  0.00    +0.035 C 
ATOM     25  O   UNL     1       0.532   2.813  -5.095  0.00  0.00    -0.371 OA
ATOM     26  C   UNL     1      -0.447   3.127  -4.078  0.00  0.00    +0.182 C 
ENDBRANCH  16  18
ENDBRANCH   1  14
TORSDOF 4
