REMARK  Name = ZINC22900208
REMARK  6 active torsions:
REMARK  status: ('A' for Active; 'I' for Inactive)
REMARK    1  A    between atoms: C_1  and  N_2
REMARK    2  A    between atoms: N_7  and  C_8
REMARK    3  A    between atoms: C_8  and  C_10
REMARK    4  A    between atoms: C_14  and  S_16
REMARK    5  A    between atoms: S_16  and  N_19
REMARK    6  A    between atoms: N_19  and  C_20
REMARK                            x       y       z     vdW  Elec       q    Type
REMARK                         _______ _______ _______ _____ _____    ______ ____
ROOT
ATOM      1  C   UNL     1       3.381   3.178  -1.187  0.00  0.00    +0.041 A 
ATOM      2  C   UNL     1       4.106   3.281   0.000  0.00  0.00    +0.013 A 
ATOM      3  C   UNL     1       3.533   2.885   1.191  0.00  0.00    +0.003 A 
ATOM      4  C   UNL     1       2.240   2.392   1.210  0.00  0.00    +0.029 A 
ATOM      5  C   UNL     1       1.518   2.282   0.036  0.00  0.00    +0.109 A 
ATOM      6  C   UNL     1       2.080   2.675  -1.162  0.00  0.00    +0.042 A 
ENDROOT
BRANCH   5   7
ATOM      7  S   UNL     1      -0.125   1.646   0.070  0.00  0.00    +0.072 S 
ATOM      8  O   UNL     1      -0.818   2.254  -1.012  0.00  0.00    -0.150 OA
ATOM      9  O   UNL     1      -0.572   1.748   1.414  0.00  0.00    -0.150 OA
BRANCH   7  10
ATOM     10  N   UNL     1      -0.031   0.029  -0.277  0.00  0.00    -0.216 N 
ATOM     11  H   UNL     1      -0.502  -0.366  -1.188  0.00  0.00    +0.174 HD
BRANCH  10  12
ATOM     12  C   UNL     1       0.646  -0.832   0.590  0.00  0.00    +0.049 A 
ATOM     13  C   UNL     1       0.064  -1.208   1.794  0.00  0.00    +0.024 A 
ATOM     14  C   UNL     1       0.736  -2.060   2.648  0.00  0.00    +0.003 A 
ATOM     15  C   UNL     1       1.987  -2.539   2.307  0.00  0.00    +0.020 A 
ATOM     16  C   UNL     1       2.570  -2.168   1.108  0.00  0.00    +0.043 A 
ATOM     17  C   UNL     1       1.900  -1.319   0.246  0.00  0.00    +0.044 A 
ATOM     18 CL   UNL     1       4.141  -2.773   0.683  0.00  0.00    -0.083 Cl
ENDBRANCH  10  12
ENDBRANCH   7  10
ENDBRANCH   5   7
BRANCH   1  19
ATOM     19  C   UNL     1       3.990   3.601  -2.469  0.00  0.00    +0.269 C 
ATOM     20  O   UNL     1       3.354   3.510  -3.506  0.00  0.00    -0.268 OA
BRANCH  19  27
ATOM     21  C   UNL     1       7.961   5.183  -2.766  0.00  0.00    +0.150 C 
ATOM     22  N   UNL     1       7.024   4.979  -3.873  0.00  0.00    -0.331 N 
ATOM     23  C   UNL     1       7.378   5.298  -5.145  0.00  0.00    +0.094 A 
ATOM     24  C   UNL     1       6.491   5.102  -6.127  0.00  0.00    +0.066 A 
ATOM     25  S   UNL     1       5.096   4.434  -5.237  0.00  0.00    -0.061 S 
ATOM     26  C   UNL     1       5.782   4.462  -3.644  0.00  0.00    +0.165 A 
ATOM     27  N   UNL     1       5.234   4.082  -2.490  0.00  0.00    -0.152 NA
ENDBRANCH  19  27
ENDBRANCH   1  19
TORSDOF 5
