REMARK  Name = ZINC37036680
REMARK  4 active torsions:
REMARK  status: ('A' for Active; 'I' for Inactive)
REMARK    1  A    between atoms: C_1  and  C_2
REMARK    2  A    between atoms: C_3  and  S_8
REMARK    3  A    between atoms: S_8  and  C_9
REMARK    4  A    between atoms: C_9  and  C_10
REMARK                            x       y       z     vdW  Elec       q    Type
REMARK                         _______ _______ _______ _____ _____    ______ ____
ROOT
ATOM      1  C   UNL     1      -0.010  -1.173  -5.311  0.00  0.00    +0.230 C 
ATOM      2  O   UNL     1       0.068  -1.485  -4.141  0.00  0.00    -0.274 OA
ATOM      3  N   UNL     1      -0.103  -2.126  -6.259  0.00  0.00    -0.270 N 
ATOM      4  C   UNL     1      -0.111  -1.765  -7.683  0.00  0.00    +0.114 C 
ATOM      5  C   UNL     1      -1.217  -2.580  -8.367  0.00  0.00    +0.024 C 
ATOM      6  C   UNL     1      -0.874  -4.065  -8.261  0.00  0.00    +0.038 C 
ATOM      7  C   UNL     1      -0.564  -4.435  -6.835  0.00  0.00    -0.026 A 
ATOM      8  C   UNL     1      -0.189  -3.479  -5.902  0.00  0.00    +0.039 A 
ATOM      9  C   UNL     1       0.101  -3.855  -4.596  0.00  0.00    +0.024 A 
ATOM     10  C   UNL     1       0.020  -5.182  -4.224  0.00  0.00    +0.002 A 
ATOM     11  C   UNL     1      -0.351  -6.137  -5.154  0.00  0.00    +0.000 A 
ATOM     12  C   UNL     1      -0.650  -5.764  -6.454  0.00  0.00    +0.005 A 
ENDROOT
BRANCH   1  13
ATOM     13  C   UNL     1      -0.002   0.282  -5.704  0.00  0.00    +0.171 C 
BRANCH  13  14
ATOM     14  S   UNL     1      -0.015   1.312  -4.210  0.00  0.00    -0.107 S 
BRANCH  14  17
ATOM     15  C   UNL     1      -0.025   4.155  -2.648  0.00  0.00    +0.067 C 
ATOM     16  C   UNL     1      -0.008   4.143  -4.155  0.00  0.00    +0.061 A 
ATOM     17  C   UNL     1      -0.004   2.962  -4.830  0.00  0.00    +0.070 A 
ATOM     18  S   UNL     1       0.017   3.546  -6.520  0.00  0.00    -0.046 S 
ATOM     19  C   UNL     1       0.018   5.295  -6.149  0.00  0.00    +0.157 A 
ATOM     20  N   UNL     1      -0.003   5.281  -4.829  0.00  0.00    -0.229 NA
ATOM     21  N   UNL     1       0.031   6.379  -7.017  0.00  0.00    -0.337 N 
ATOM     22  H   UNL     1       0.041   6.232  -7.976  0.00  0.00    +0.144 HD
ATOM     23  H   UNL     1       0.030   7.283  -6.665  0.00  0.00    +0.144 HD
ENDBRANCH  14  17
ENDBRANCH  13  14
ENDBRANCH   1  13
TORSDOF 3
