REMARK  Name = ZINC58195138
REMARK  5 active torsions:
REMARK  status: ('A' for Active; 'I' for Inactive)
REMARK    1  A    between atoms: C_3  and  N_8
REMARK    2  A    between atoms: C_11  and  C_13
REMARK    3  A    between atoms: C_13  and  S_14
REMARK    4  A    between atoms: S_14  and  C_15
REMARK    5  A    between atoms: C_19  and  N_21
REMARK                            x       y       z     vdW  Elec       q    Type
REMARK                         _______ _______ _______ _____ _____    ______ ____
ROOT
ATOM      1  C   UNL     1       5.576   5.205  -0.018  0.00  0.00    +0.134 C 
ENDROOT
BRANCH   1   5
ATOM      2  N   UNL     1       3.586   2.129  -0.021  0.00  0.00    -0.239 N 
ATOM      3  C   UNL     1       4.829   1.597  -0.042  0.00  0.00    +0.115 A 
ATOM      4  C   UNL     1       5.714   2.621  -0.043  0.00  0.00    +0.045 A 
ATOM      5  C   UNL     1       4.989   3.817  -0.024  0.00  0.00    +0.074 A 
ATOM      6  N   UNL     1       3.714   3.524  -0.016  0.00  0.00    -0.171 NA
BRANCH   2   9
ATOM      7  C   UNL     1      -0.017   1.378   0.010  0.00  0.00    +0.005 A 
ATOM      8  C   UNL     1       1.169   2.087   0.002  0.00  0.00    +0.028 A 
ATOM      9  C   UNL     1       2.381   1.411  -0.013  0.00  0.00    +0.068 A 
ATOM     10  C   UNL     1       2.400   0.023  -0.021  0.00  0.00    +0.066 A 
ATOM     11  C   UNL     1       1.210  -0.683  -0.013  0.00  0.00    +0.125 A 
ATOM     12  C   UNL     1       0.002  -0.004   0.002  0.00  0.00    +0.038 A 
ATOM     13  F   UNL     1       1.225  -2.034  -0.021  0.00  0.00    -0.205 F 
ENDBRANCH   2   9
ENDBRANCH   1   5
BRANCH   1  14
ATOM     14  S   UNL     1       5.790   5.778  -1.726  0.00  0.00    -0.080 S 
BRANCH  14  15
ATOM     15  C   UNL     1       6.475   7.392  -1.552  0.00  0.00    +0.192 A 
ATOM     16  N   UNL     1       6.702   7.869  -0.337  0.00  0.00    -0.207 NA
ATOM     17  C   UNL     1       7.219   9.083  -0.168  0.00  0.00    +0.122 A 
ATOM     18  C   UNL     1       7.521   9.854  -1.287  0.00  0.00    +0.086 A 
ATOM     19  C   UNL     1       7.268   9.319  -2.547  0.00  0.00    +0.122 A 
ATOM     20  N   UNL     1       6.755   8.095  -2.640  0.00  0.00    -0.207 NA
ATOM     21  N   UNL     1       7.454   9.575   1.107  0.00  0.00    -0.343 N 
ATOM     22  H   UNL     1       7.241   9.033   1.883  0.00  0.00    +0.144 HD
ATOM     23  H   UNL     1       7.830  10.461   1.223  0.00  0.00    +0.144 HD
BRANCH  19  24
ATOM     24  N   UNL     1       7.553  10.050  -3.690  0.00  0.00    -0.343 N 
ATOM     25  H   UNL     1       7.930  10.941  -3.615  0.00  0.00    +0.144 HD
ATOM     26  H   UNL     1       7.374   9.671  -4.565  0.00  0.00    +0.144 HD
ENDBRANCH  19  24
ENDBRANCH  14  15
ENDBRANCH   1  14
TORSDOF 5
