REMARK  Name = ZINC43740323
REMARK  6 active torsions:
REMARK  status: ('A' for Active; 'I' for Inactive)
REMARK    1  A    between atoms: C_1  and  C_2
REMARK    2  A    between atoms: C_15  and  O_34
REMARK    3  A    between atoms: C_18  and  C_31
REMARK    4  A    between atoms: C_23  and  C_25
REMARK    5  A    between atoms: C_25  and  C_30
REMARK    6  A    between atoms: N_32  and  O_33
REMARK                            x       y       z     vdW  Elec       q    Type
REMARK                         _______ _______ _______ _____ _____    ______ ____
ROOT
ATOM      1  C   UNL     1      -0.884   1.170  -1.317  0.00  0.00    +0.012 C 
ATOM      2  C   UNL     1      -0.748  -0.265  -0.805  0.00  0.00    -0.023 C 
ATOM      3  C   UNL     1      -0.445  -1.199  -1.982  0.00  0.00    +0.012 C 
ATOM      4  C   UNL     1       0.876  -0.801  -2.641  0.00  0.00    +0.065 C 
ATOM      5  C   UNL     1       1.999  -0.914  -1.608  0.00  0.00    +0.170 C 
ATOM      6  C   UNL     1       1.714   0.031  -0.443  0.00  0.00    +0.069 C 
ATOM      7  C   UNL     1       0.376  -0.333   0.223  0.00  0.00    +0.000 C 
ATOM      8  C   UNL     1       0.135   0.668   1.355  0.00  0.00    +0.004 C 
ATOM      9  C   UNL     1      -1.355   0.854   1.616  0.00  0.00    +0.004 C 
ATOM     10  C   UNL     1      -2.095  -0.449   1.309  0.00  0.00    -0.001 C 
ATOM     11  C   UNL     1      -2.073  -0.711  -0.187  0.00  0.00    +0.027 C 
ATOM     12  C   UNL     1      -2.442  -2.105  -0.633  0.00  0.00    +0.119 C 
ATOM     13  C   UNL     1      -1.843  -3.213   0.238  0.00  0.00    +0.045 C 
ATOM     14  C   UNL     1      -2.208  -2.906   1.678  0.00  0.00    +0.022 C 
ATOM     15  C   UNL     1      -1.461  -1.600   2.047  0.00  0.00    +0.005 C 
ATOM     16  C   UNL     1      -1.603  -1.590   3.573  0.00  0.00    +0.005 C 
ATOM     17  C   UNL     1      -1.367  -3.076   3.955  0.00  0.00    +0.010 C 
ATOM     18  C   UNL     1      -1.722  -3.906   2.724  0.00  0.00    +0.060 C 
ATOM     19  O   UNL     1       3.248  -0.557  -2.222  0.00  0.00    -0.346 OA
ATOM     20  C   UNL     1       4.224  -1.436  -1.612  0.00  0.00    +0.191 C 
ATOM     21  C   UNL     1       3.409  -2.742  -1.442  0.00  0.00    +0.191 C 
ATOM     22  O   UNL     1       2.085  -2.262  -1.133  0.00  0.00    -0.346 OA
ENDROOT
BRANCH  18  23
ATOM     23  C   UNL     1      -0.464  -4.622   2.228  0.00  0.00    +0.171 C 
ATOM     24  O   UNL     1      -0.737  -5.263   0.971  0.00  0.00    -0.346 OA
ATOM     25  C   UNL     1       0.031  -6.490   1.008  0.00  0.00    +0.191 C 
ATOM     26  C   UNL     1      -0.085  -6.890   2.500  0.00  0.00    +0.191 C 
ATOM     27  O   UNL     1      -0.071  -5.619   3.180  0.00  0.00    -0.346 OA
ATOM     28  C   UNL     1       0.667  -3.607   2.049  0.00  0.00    +0.074 C 
ENDBRANCH  18  23
BRANCH  14  29
ATOM     29  C   UNL     1      -3.698  -2.720   1.800  0.00  0.00    +0.133 C 
ATOM     30  N   UNL     1      -4.397  -3.568   2.455  0.00  0.00    -0.099 NA
BRANCH  30  31
ATOM     31  O   UNL     1      -5.798  -3.394   2.569  0.00  0.00    -0.409 OA
ATOM     32  H   UNL     1      -6.240  -4.085   3.082  0.00  0.00    +0.328 HD
ENDBRANCH  30  31
ENDBRANCH  14  29
BRANCH  12  33
ATOM     33  O   UNL     1      -3.865  -2.231  -0.610  0.00  0.00    -0.391 OA
ATOM     34  H   UNL     1      -4.192  -3.067  -0.967  0.00  0.00    +0.210 HD
ENDBRANCH  12  33
TORSDOF 4
