REMARK  Name = ZINC12372025
REMARK  11 active torsions:
REMARK  status: ('A' for Active; 'I' for Inactive)
REMARK    1  A    between atoms: C_1  and  C_2
REMARK    2  A    between atoms: C_3  and  C_30
REMARK    3  A    between atoms: C_6  and  N_10
REMARK    4  A    between atoms: C_7  and  C_8
REMARK    5  A    between atoms: C_11  and  C_13
REMARK    6  A    between atoms: C_13  and  S_14
REMARK    7  A    between atoms: S_14  and  C_15
REMARK    8  A    between atoms: C_18  and  C_22
REMARK    9  A    between atoms: C_19  and  C_21
REMARK   10  A    between atoms: C_22  and  C_23
REMARK   11  A    between atoms: C_26  and  O_29
REMARK                            x       y       z     vdW  Elec       q    Type
REMARK                         _______ _______ _______ _____ _____    ______ ____
ROOT
ATOM      1  S   UNL     1       5.885   3.878  -0.031  0.00  0.00    -0.079 S 
ENDROOT
BRANCH   1   2
ATOM      2  C   UNL     1       7.474   3.116  -0.049  0.00  0.00    +0.167 A 
ATOM      3  N   UNL     1       8.669   3.767  -0.056  0.00  0.00    -0.336 N 
ATOM      4  H   UNL     1       8.807   4.757  -0.053  0.00  0.00    +0.168 HD
ATOM      5  C   UNL     1       9.652   2.803  -0.069  0.00  0.00    +0.043 A 
ATOM      6  C   UNL     1       9.032   1.611  -0.069  0.00  0.00    +0.060 A 
ATOM      7  N   UNL     1       7.706   1.824  -0.051  0.00  0.00    -0.227 NA
ATOM      8  C   UNL     1       9.709   0.265  -0.081  0.00  0.00    +0.067 C 
BRANCH   5   9
ATOM      9  C   UNL     1      11.140   3.040  -0.082  0.00  0.00    +0.090 C 
BRANCH   9  10
ATOM     10  C   UNL     1      11.643   3.003  -1.502  0.00  0.00    -0.041 A 
ATOM     11  C   UNL     1      12.067   1.808  -2.053  0.00  0.00    +0.007 A 
ATOM     12  C   UNL     1      12.523   1.771  -3.356  0.00  0.00    +0.045 A 
ATOM     13  C   UNL     1      12.566   2.936  -4.109  0.00  0.00    +0.117 A 
ATOM     14  C   UNL     1      12.145   4.134  -3.552  0.00  0.00    +0.045 A 
ATOM     15  C   UNL     1      11.685   4.165  -2.249  0.00  0.00    +0.007 A 
BRANCH  13  16
ATOM     16  O   UNL     1      13.019   2.902  -5.390  0.00  0.00    -0.507 OA
ATOM     17  H   UNL     1      13.971   3.048  -5.474  0.00  0.00    +0.292 HD
ENDBRANCH  13  16
ENDBRANCH   9  10
ENDBRANCH   5   9
ENDBRANCH   1   2
BRANCH   1  18
ATOM     18  C   UNL     1       4.831   2.407  -0.028  0.00  0.00    +0.173 C 
BRANCH  18  20
ATOM     19  N   UNL     1       2.412   1.892  -0.009  0.00  0.00    -0.270 N 
ATOM     20  C   UNL     1       3.384   2.826  -0.014  0.00  0.00    +0.229 C 
ATOM     21  O   UNL     1       3.093   4.003  -0.006  0.00  0.00    -0.275 OA
ATOM     22  H   UNL     1       2.644   0.951  -0.016  0.00  0.00    +0.156 HD
BRANCH  19  28
ATOM     23  C   UNL     1      -2.642   1.852   0.024  0.00  0.00    +0.047 C 
ATOM     24  C   UNL     1      -1.202   2.296   0.019  0.00  0.00    -0.011 A 
ATOM     25  C   UNL     1      -0.752   3.561   0.027  0.00  0.00    +0.019 A 
ATOM     26  N   UNL     1       0.617   3.555   0.014  0.00  0.00    -0.346 N 
ATOM     27  H   UNL     1       1.176   4.348   0.013  0.00  0.00    +0.167 HD
ATOM     28  C   UNL     1       1.079   2.278   0.004  0.00  0.00    +0.121 A 
ATOM     29  C   UNL     1      -0.017   1.428   0.010  0.00  0.00    +0.094 A 
ATOM     30  C   UNL     1      -1.619   4.794   0.041  0.00  0.00    +0.063 C 
BRANCH  29  31
ATOM     31  C   UNL     1       0.002  -0.004   0.002  0.00  0.00    +0.103 C 
ATOM     32  N   UNL     1       0.018  -1.140  -0.004  0.00  0.00    -0.191 NA
ENDBRANCH  29  31
ENDBRANCH  19  28
ENDBRANCH  18  20
ENDBRANCH   1  18
TORSDOF 8
