REMARK  Name = ZINC36667567
REMARK  7 active torsions:
REMARK  status: ('A' for Active; 'I' for Inactive)
REMARK    1  A    between atoms: C_1  and  C_2
REMARK    2  A    between atoms: C_5  and  C_34
REMARK    3  A    between atoms: N_8  and  S_10
REMARK    4  A    between atoms: S_10  and  C_13
REMARK    5  A    between atoms: C_16  and  C_19
REMARK    6  A    between atoms: N_21  and  N_22
REMARK    7  A    between atoms: C_23  and  C_25
REMARK                            x       y       z     vdW  Elec       q    Type
REMARK                         _______ _______ _______ _____ _____    ______ ____
ROOT
ATOM      1  C   UNL     1       2.547  -3.268  -0.217  0.00  0.00    +0.106 A 
ATOM      2  C   UNL     1       2.077  -4.392  -0.873  0.00  0.00    +0.029 A 
ATOM      3  C   UNL     1       2.502  -4.675  -2.155  0.00  0.00    +0.015 A 
ATOM      4  C   UNL     1       3.408  -3.824  -2.790  0.00  0.00    +0.038 A 
ATOM      5  C   UNL     1       3.878  -2.692  -2.123  0.00  0.00    +0.015 A 
ATOM      6  C   UNL     1       3.441  -2.418  -0.843  0.00  0.00    +0.029 A 
ENDROOT
BRANCH   4   7
ATOM      7  C   UNL     1       3.868  -4.121  -4.163  0.00  0.00    +0.260 C 
ATOM      8  O   UNL     1       3.457  -5.109  -4.741  0.00  0.00    -0.269 OA
ATOM      9  N   UNL     1       4.743  -3.298  -4.774  0.00  0.00    -0.230 N 
ATOM     10  H   UNL     1       5.071  -2.510  -4.312  0.00  0.00    +0.173 HD
BRANCH   9  11
ATOM     11  N   UNL     1       5.179  -3.579  -6.075  0.00  0.00    -0.230 N 
ATOM     12  C   UNL     1       6.053  -2.756  -6.686  0.00  0.00    +0.260 C 
ATOM     13  O   UNL     1       6.464  -1.769  -6.107  0.00  0.00    -0.269 OA
ATOM     14  H   UNL     1       4.851  -4.367  -6.537  0.00  0.00    +0.173 HD
BRANCH  12  15
ATOM     15  C   UNL     1       6.513  -3.053  -8.057  0.00  0.00    +0.042 A 
ATOM     16  C   UNL     1       6.037  -4.184  -8.725  0.00  0.00    +0.017 A 
ATOM     17  C   UNL     1       6.467  -4.459 -10.005  0.00  0.00    +0.050 A 
ATOM     18  C   UNL     1       7.373  -3.616 -10.634  0.00  0.00    +0.166 A 
ATOM     19  C   UNL     1       7.852  -2.485  -9.972  0.00  0.00    +0.167 A 
ATOM     20  C   UNL     1       7.420  -2.200  -8.692  0.00  0.00    +0.062 A 
ATOM     21  O   UNL     1       8.720  -1.831 -10.799  0.00  0.00    -0.453 OA
ATOM     22  C   UNL     1       9.080  -2.789 -11.811  0.00  0.00    +0.466 C 
ATOM     23  O   UNL     1       7.941  -3.668 -11.873  0.00  0.00    -0.453 OA
ENDBRANCH  12  15
ENDBRANCH   9  11
ENDBRANCH   4   7
BRANCH   1  24
ATOM     24  S   UNL     1       1.999  -2.914   1.419  0.00  0.00    +0.061 S 
ATOM     25  O   UNL     1       2.998  -2.098   2.015  0.00  0.00    -0.153 OA
ATOM     26  O   UNL     1       1.587  -4.150   1.986  0.00  0.00    -0.153 OA
BRANCH  24  32
ATOM     27  C   UNL     1      -0.019   1.526   0.010  0.00  0.00    +0.009 C 
ATOM     28  C   UNL     1       0.002  -0.004   0.002  0.00  0.00    +0.002 C 
ATOM     29  C   UNL     1      -1.433  -0.534   0.015  0.00  0.00    +0.009 C 
ATOM     30  C   UNL     1      -1.414  -2.064  -0.027  0.00  0.00    +0.002 C 
ATOM     31  C   UNL     1      -0.692  -2.596   1.215  0.00  0.00    +0.112 C 
ATOM     32  N   UNL     1       0.639  -1.977   1.288  0.00  0.00    -0.176 NA
ATOM     33  C   UNL     1       0.742  -0.512   1.244  0.00  0.00    +0.112 C 
ATOM     34  C   UNL     1      -0.680  -2.532  -1.285  0.00  0.00    +0.009 C 
ENDBRANCH  24  32
ENDBRANCH   1  24
TORSDOF 5
