REMARK  Name = ZINC39676957
REMARK  10 active torsions:
REMARK  status: ('A' for Active; 'I' for Inactive)
REMARK    1  A    between atoms: C_1  and  C_2
REMARK    2  A    between atoms: C_5  and  C_36
REMARK    3  A    between atoms: C_6  and  C_8
REMARK    4  A    between atoms: C_8  and  C_9
REMARK    5  A    between atoms: C_9  and  N_10
REMARK    6  A    between atoms: C_11  and  C_13
REMARK    7  A    between atoms: C_24  and  C_26
REMARK    8  A    between atoms: C_26  and  C_28
REMARK    9  A    between atoms: C_26  and  O_29
REMARK   10  A    between atoms: O_29  and  C_30
REMARK                            x       y       z     vdW  Elec       q    Type
REMARK                         _______ _______ _______ _____ _____    ______ ____
ROOT
ATOM      1  C   UNL     1       2.661  -5.104   5.951  0.00  0.00    +0.100 C 
ATOM      2  C   UNL     1       1.815  -6.390   5.822  0.00  0.00    +0.121 C 
ATOM      3  N   UNL     1       2.792  -7.449   5.475  0.00  0.00    -0.297 N 
ATOM      4  C   UNL     1       3.983  -7.136   6.301  0.00  0.00    +0.115 C 
ATOM      5  C   UNL     1       4.083  -5.598   6.269  0.00  0.00    -0.004 C 
ATOM      6  C   UNL     1       4.534  -5.069   7.628  0.00  0.00    -0.010 C 
ATOM      7  C   UNL     1       5.971  -5.524   7.896  0.00  0.00    -0.082 C 
ATOM      8  N   UNL     1       6.852  -5.020   6.835  0.00  0.00    +0.379 N 
ATOM      9  C   UNL     1       6.468  -5.606   5.545  0.00  0.00    -0.082 C 
ATOM     10  C   UNL     1       5.052  -5.155   5.178  0.00  0.00    -0.010 C 
ATOM     11  C   UNL     1       2.634  -8.467   4.606  0.00  0.00    +0.256 C 
ATOM     12  O   UNL     1       1.630  -8.536   3.930  0.00  0.00    -0.272 OA
ATOM     13  H   UNL     1       6.773  -4.015   6.783  0.00  0.00    -0.086 HD
ATOM     14  H   UNL     1       7.807  -5.269   7.046  0.00  0.00    -0.086 HD
ENDROOT
BRANCH   1  16
ATOM     15  N   UNL     1       2.764  -2.993   4.666  0.00  0.00    -0.315 N 
ATOM     16  C   UNL     1       2.650  -4.336   4.655  0.00  0.00    +0.218 C 
ATOM     17  O   UNL     1       2.539  -4.927   3.601  0.00  0.00    -0.275 OA
ATOM     18  H   UNL     1       2.853  -2.521   5.509  0.00  0.00    +0.149 HD
BRANCH  15  19
ATOM     19  C   UNL     1       2.753  -2.247   3.405  0.00  0.00    +0.109 C 
BRANCH  19  20
ATOM     20  C   UNL     1       2.896  -0.752   3.697  0.00  0.00    +0.054 C 
BRANCH  20  26
ATOM     21  C   UNL     1       5.366   1.438  -0.065  0.00  0.00    +0.044 C 
ATOM     22  C   UNL     1       4.067   1.064   0.601  0.00  0.00    -0.050 A 
ATOM     23  C   UNL     1       2.865   1.426   0.023  0.00  0.00    +0.003 A 
ATOM     24  C   UNL     1       1.673   1.084   0.633  0.00  0.00    +0.004 A 
ATOM     25  C   UNL     1       1.683   0.379   1.823  0.00  0.00    -0.047 A 
ATOM     26  C   UNL     1       2.885   0.016   2.401  0.00  0.00    -0.043 A 
ATOM     27  C   UNL     1       4.077   0.355   1.788  0.00  0.00    +0.007 A 
ATOM     28  C   UNL     1       0.384   0.007   2.489  0.00  0.00    +0.044 C 
ENDBRANCH  20  26
ENDBRANCH  19  20
ENDBRANCH  15  19
ENDBRANCH   1  16
BRANCH  11  29
ATOM     29  C   UNL     1       3.706  -9.518   4.474  0.00  0.00    +0.256 C 
ATOM     30  C   UNL     1       3.759 -10.355   5.754  0.00  0.00    +0.062 C 
BRANCH  29  31
ATOM     31  O   UNL     1       3.407 -10.366   3.363  0.00  0.00    -0.480 OA
BRANCH  31  32
ATOM     32  C   UNL     1       4.453 -11.005   2.776  0.00  0.00    +0.122 A 
ATOM     33  C   UNL     1       4.255 -11.744   1.619  0.00  0.00    +0.045 A 
ATOM     34  C   UNL     1       5.320 -12.393   1.025  0.00  0.00    +0.004 A 
ATOM     35  C   UNL     1       6.582 -12.306   1.582  0.00  0.00    +0.000 A 
ATOM     36  C   UNL     1       6.782 -11.571   2.736  0.00  0.00    +0.004 A 
ATOM     37  C   UNL     1       5.722 -10.915   3.331  0.00  0.00    +0.045 A 
ENDBRANCH  31  32
ENDBRANCH  29  31
ENDBRANCH  11  29
TORSDOF 7
