REMARK  Name = ZINC45766045
REMARK  10 active torsions:
REMARK  status: ('A' for Active; 'I' for Inactive)
REMARK    1  A    between atoms: C_1  and  C_2
REMARK    2  A    between atoms: C_5  and  C_8
REMARK    3  A    between atoms: C_10  and  C_13
REMARK    4  A    between atoms: C_13  and  N_14
REMARK    5  A    between atoms: N_17  and  C_20
REMARK    6  A    between atoms: C_20  and  C_21
REMARK    7  A    between atoms: C_21  and  C_23
REMARK    8  A    between atoms: C_21  and  O_32
REMARK    9  A    between atoms: C_23  and  O_24
REMARK   10  A    between atoms: O_24  and  C_25
REMARK                            x       y       z     vdW  Elec       q    Type
REMARK                         _______ _______ _______ _____ _____    ______ ____
ROOT
ATOM      1  N   UNL     1      -1.278  -7.884   1.946  0.00  0.00    +0.387 N 
ATOM      2  C   UNL     1      -1.930  -8.363   0.720  0.00  0.00    -0.063 C 
ATOM      3  C   UNL     1      -3.373  -8.765   1.033  0.00  0.00    +0.066 C 
ATOM      4  N   UNL     1      -3.374  -9.822   2.054  0.00  0.00    -0.303 NA
ATOM      5  C   UNL     1      -2.702  -9.365   3.279  0.00  0.00    +0.066 C 
ATOM      6  C   UNL     1      -1.265  -8.959   2.948  0.00  0.00    -0.063 C 
ATOM      7  H   UNL     1      -1.787  -7.092   2.310  0.00  0.00    -0.081 HD
ENDROOT
BRANCH   1   8
ATOM      8  C   UNL     1       0.102  -7.482   1.642  0.00  0.00    +0.022 C 
BRANCH   8  11
ATOM      9  C   UNL     1       0.059  -4.256  -0.021  0.00  0.00    +0.202 A 
ATOM     10  N   UNL     1       0.070  -5.047   1.067  0.00  0.00    -0.193 NA
ATOM     11  C   UNL     1       0.086  -6.299   0.708  0.00  0.00    +0.211 A 
ATOM     12  O   UNL     1       0.086  -6.357  -0.630  0.00  0.00    -0.340 OA
ATOM     13  N   UNL     1       0.064  -5.015  -1.090  0.00  0.00    -0.056 NA
BRANCH   9  18
ATOM     14  C   UNL     1      -0.018   1.503   0.010  0.00  0.00    +0.044 C 
ATOM     15  C   UNL     1       0.002  -0.004   0.002  0.00  0.00    -0.050 A 
ATOM     16  C   UNL     1       0.006  -0.686  -1.201  0.00  0.00    +0.004 A 
ATOM     17  C   UNL     1       0.024  -2.067  -1.214  0.00  0.00    +0.012 A 
ATOM     18  C   UNL     1       0.040  -2.772  -0.013  0.00  0.00    +0.022 A 
ATOM     19  C   UNL     1       0.036  -2.080   1.196  0.00  0.00    +0.012 A 
ATOM     20  C   UNL     1       0.023  -0.700   1.198  0.00  0.00    +0.004 A 
ENDBRANCH   9  18
ENDBRANCH   8  11
ENDBRANCH   1   8
BRANCH   4  21
ATOM     21  C   UNL     1      -4.742 -10.275   2.342  0.00  0.00    +0.119 C 
BRANCH  21  22
ATOM     22  C   UNL     1      -4.690 -11.532   3.212  0.00  0.00    +0.166 C 
BRANCH  22  23
ATOM     23  O   UNL     1      -3.982 -12.562   2.520  0.00  0.00    -0.387 OA
ATOM     24  H   UNL     1      -4.382 -12.816   1.677  0.00  0.00    +0.210 HD
ENDBRANCH  22  23
BRANCH  22  25
ATOM     25  C   UNL     1      -6.114 -12.004   3.512  0.00  0.00    +0.261 C 
BRANCH  25  26
ATOM     26  O   UNL     1      -6.069 -13.108   4.419  0.00  0.00    -0.489 OA
BRANCH  26  27
ATOM     27  C   UNL     1      -7.259 -13.650   4.790  0.00  0.00    +0.121 A 
ATOM     28  C   UNL     1      -8.445 -13.134   4.287  0.00  0.00    +0.047 A 
ATOM     29  C   UNL     1      -9.653 -13.686   4.665  0.00  0.00    +0.023 A 
ATOM     30  C   UNL     1      -9.682 -14.753   5.546  0.00  0.00    +0.041 A 
ATOM     31  C   UNL     1      -8.500 -15.269   6.049  0.00  0.00    +0.023 A 
ATOM     32  C   UNL     1      -7.290 -14.723   5.668  0.00  0.00    +0.047 A 
ATOM     33 CL   UNL     1     -11.201 -15.445   6.020  0.00  0.00    -0.084 Cl
ENDBRANCH  26  27
ENDBRANCH  25  26
ENDBRANCH  22  25
ENDBRANCH  21  22
ENDBRANCH   4  21
TORSDOF 9
