REMARK  Name = ZINC52924832
REMARK  5 active torsions:
REMARK  status: ('A' for Active; 'I' for Inactive)
REMARK    1  A    between atoms: C_1  and  C_2
REMARK    2  A    between atoms: C_2  and  C_4
REMARK    3  A    between atoms: C_2  and  O_19
REMARK    4  A    between atoms: C_7  and  C_9
REMARK    5  A    between atoms: C_12  and  N_16
REMARK                            x       y       z     vdW  Elec       q    Type
REMARK                         _______ _______ _______ _____ _____    ______ ____
ROOT
ATOM      1  C   UNL     1       3.718  -1.284   3.124  0.00  0.00    +0.031 A 
ATOM      2  C   UNL     1       4.055  -0.808   4.392  0.00  0.00    +0.015 A 
ATOM      3  C   UNL     1       5.324  -1.018   4.890  0.00  0.00    +0.033 A 
ATOM      4  C   UNL     1       6.263  -1.700   4.135  0.00  0.00    +0.127 A 
ATOM      5  C   UNL     1       5.937  -2.174   2.878  0.00  0.00    +0.048 A 
ATOM      6  C   UNL     1       4.668  -1.976   2.370  0.00  0.00    +0.031 A 
ATOM      7 BR   UNL     1       4.221  -2.633   0.654  0.00  0.00    -0.049 Br
ENDROOT
BRANCH   1  11
ATOM      8  C   UNL     1       0.731  -0.503   1.223  0.00  0.00    +0.134 A 
ATOM      9  C   UNL     1       0.153  -0.963   2.349  0.00  0.00    +0.048 A 
ATOM     10  C   UNL     1       1.193  -1.324   3.229  0.00  0.00    +0.050 A 
ATOM     11  C   UNL     1       2.360  -1.062   2.584  0.00  0.00    +0.136 A 
ATOM     12  O   UNL     1       2.065  -0.569   1.366  0.00  0.00    -0.457 OA
BRANCH   8  14
ATOM     13  C   UNL     1      -0.019   1.526   0.010  0.00  0.00    +0.046 C 
ATOM     14  C   UNL     1       0.002  -0.004   0.002  0.00  0.00    +0.177 C 
BRANCH  14  15
ATOM     15  O   UNL     1       0.671  -0.465  -1.174  0.00  0.00    -0.384 OA
ATOM     16  H   UNL     1       0.256  -0.181  -1.999  0.00  0.00    +0.210 HD
ENDBRANCH  14  15
ENDBRANCH   8  14
ENDBRANCH   1  11
BRANCH   4  17
ATOM     17  N   UNL     1       7.623  -1.921   4.676  0.00  0.00    +0.056 N 
ATOM     18  O   UNL     1       7.912  -1.507   5.774  0.00  0.00    -0.126 OA
ATOM     19  O   UNL     1       8.446  -2.515   4.019  0.00  0.00    -0.126 OA
ENDBRANCH   4  17
TORSDOF 4
