REMARK  Name = ZINC09374011
REMARK  9 active torsions:
REMARK  status: ('A' for Active; 'I' for Inactive)
REMARK    1  A    between atoms: C_1  and  C_2
REMARK    2  A    between atoms: C_5  and  C_8
REMARK    3  A    between atoms: C_10  and  C_14
REMARK    4  A    between atoms: C_17  and  S_20
REMARK    5  A    between atoms: N_18  and  N_19
REMARK    6  A    between atoms: S_20  and  C_21
REMARK    7  A    between atoms: C_21  and  C_22
REMARK    8  A    between atoms: N_24  and  C_25
REMARK    9  A    between atoms: C_28  and  C_31
REMARK                            x       y       z     vdW  Elec       q    Type
REMARK                         _______ _______ _______ _____ _____    ______ ____
ROOT
ATOM      1  C   UNL     1       0.126  -7.586   1.531  0.00  0.00    +0.199 A 
ATOM      2  N   UNL     1       0.401  -7.629   2.815  0.00  0.00    -0.125 NA
ATOM      3  N   UNL     1       0.318  -8.838   3.241  0.00  0.00    -0.120 NA
ATOM      4  C   UNL     1      -0.014  -9.643   2.256  0.00  0.00    +0.209 A 
ATOM      5  N   UNL     1      -0.154  -8.875   1.135  0.00  0.00    -0.223 N 
ENDROOT
BRANCH   1   8
ATOM      6  C   UNL     1       0.097  -4.260  -0.028  0.00  0.00    +0.093 A 
ATOM      7  C   UNL     1       0.107  -5.087   1.107  0.00  0.00    +0.061 A 
ATOM      8  C   UNL     1       0.114  -6.385   0.677  0.00  0.00    +0.105 A 
ATOM      9  N   UNL     1       0.107  -6.364  -0.689  0.00  0.00    -0.273 N 
ATOM     10  H   UNL     1       0.110  -7.140  -1.271  0.00  0.00    +0.189 HD
ATOM     11  N   UNL     1       0.092  -5.025  -1.099  0.00  0.00    -0.173 NA
BRANCH   6  16
ATOM     12  C   UNL     1       0.055   1.500   0.000  0.00  0.00    +0.044 C 
ATOM     13  C   UNL     1       0.066  -0.007  -0.007  0.00  0.00    -0.050 A 
ATOM     14  C   UNL     1       0.061  -0.691  -1.210  0.00  0.00    +0.004 A 
ATOM     15  C   UNL     1       0.071  -2.071  -1.222  0.00  0.00    +0.010 A 
ATOM     16  C   UNL     1       0.087  -2.776  -0.020  0.00  0.00    +0.002 A 
ATOM     17  C   UNL     1       0.092  -2.082   1.188  0.00  0.00    +0.010 A 
ATOM     18  C   UNL     1       0.087  -0.702   1.189  0.00  0.00    +0.004 A 
ENDBRANCH   6  16
ENDBRANCH   1   8
BRANCH   5  19
ATOM     19  N   UNL     1      -0.497  -9.297  -0.118  0.00  0.00    -0.295 N 
ATOM     20  H   UNL     1       0.322  -9.544  -0.653  0.00  0.00    +0.163 HD
ATOM     21  H   UNL     1      -1.146 -10.068  -0.075  0.00  0.00    +0.163 HD
ENDBRANCH   5  19
BRANCH   4  22
ATOM     22  S   UNL     1      -0.244 -11.386   2.363  0.00  0.00    -0.075 S 
BRANCH  22  23
ATOM     23  C   UNL     1       0.081 -11.766   4.106  0.00  0.00    +0.173 C 
BRANCH  23  24
ATOM     24  C   UNL     1      -0.083 -13.246   4.338  0.00  0.00    +0.227 C 
ATOM     25  O   UNL     1      -0.390 -13.973   3.417  0.00  0.00    -0.275 OA
ATOM     26  N   UNL     1       0.110 -13.761   5.568  0.00  0.00    -0.285 N 
ATOM     27  H   UNL     1       0.420 -13.191   6.289  0.00  0.00    +0.155 HD
BRANCH  26  28
ATOM     28  C   UNL     1      -0.136 -15.118   5.805  0.00  0.00    +0.033 A 
ATOM     29  C   UNL     1      -0.655 -15.528   7.026  0.00  0.00    +0.023 A 
ATOM     30  C   UNL     1      -0.897 -16.868   7.256  0.00  0.00    +0.005 A 
ATOM     31  C   UNL     1      -0.623 -17.801   6.273  0.00  0.00    -0.050 A 
ATOM     32  C   UNL     1      -0.106 -17.396   5.056  0.00  0.00    +0.005 A 
ATOM     33  C   UNL     1       0.133 -16.057   4.817  0.00  0.00    +0.023 A 
ATOM     34  C   UNL     1      -0.888 -19.263   6.528  0.00  0.00    +0.044 C 
ENDBRANCH  26  28
ENDBRANCH  23  24
ENDBRANCH  22  23
ENDBRANCH   4  22
TORSDOF 7
