REMARK  Name = ZINC63314947
REMARK  6 active torsions:
REMARK  status: ('A' for Active; 'I' for Inactive)
REMARK    1  A    between atoms: C_3  and  S_30
REMARK    2  A    between atoms: C_6  and  C_7
REMARK    3  A    between atoms: C_7  and  N_8
REMARK    4  A    between atoms: C_9  and  C_11
REMARK    5  A    between atoms: C_11  and  N_12
REMARK    6  A    between atoms: S_30  and  N_33
REMARK                            x       y       z     vdW  Elec       q    Type
REMARK                         _______ _______ _______ _____ _____    ______ ____
ROOT
ATOM      1  N   UNL     1      -4.568  -2.698  -3.016  0.00  0.00    -0.291 N 
ATOM      2  C   UNL     1      -5.161  -3.032  -4.179  0.00  0.00    +0.303 C 
ATOM      3  O   UNL     1      -4.702  -2.635  -5.232  0.00  0.00    -0.253 OA
ATOM      4  N   UNL     1      -6.264  -3.807  -4.174  0.00  0.00    -0.283 N 
ATOM      5  C   UNL     1      -6.882  -4.182  -2.898  0.00  0.00    +0.114 C 
ATOM      6  C   UNL     1      -8.348  -3.712  -2.881  0.00  0.00    +0.052 C 
ATOM      7  C   UNL     1      -8.942  -4.098  -4.213  0.00  0.00    -0.035 C 
ATOM      8  C   UNL     1     -10.043  -4.771  -4.522  0.00  0.00    +0.001 A 
ATOM      9  C   UNL     1     -11.139  -5.290  -3.688  0.00  0.00    +0.030 A 
ATOM     10  C   UNL     1     -12.122  -5.965  -4.342  0.00  0.00    +0.042 A 
ATOM     11  C   UNL     1     -12.123  -6.173  -5.726  0.00  0.00    +0.022 A 
ATOM     12  C   UNL     1     -11.160  -5.724  -6.569  0.00  0.00    +0.027 A 
ATOM     13  C   UNL     1     -10.078  -4.992  -6.000  0.00  0.00    +0.043 A 
ATOM     14  N   UNL     1      -9.048  -4.435  -6.566  0.00  0.00    -0.376 N 
ATOM     15  C   UNL     1      -8.272  -3.744  -5.536  0.00  0.00    +0.124 C 
ATOM     16  C   UNL     1      -6.838  -4.264  -5.450  0.00  0.00    +0.138 C 
ATOM     17 CL   UNL     1     -13.443  -6.602  -3.413  0.00  0.00    -0.084 Cl
ATOM     18  H   UNL     1      -4.974  -2.954  -2.173  0.00  0.00    +0.151 HD
ATOM     19  H   UNL     1      -8.832  -4.471  -7.511  0.00  0.00    +0.160 HD
ENDROOT
BRANCH   1  20
ATOM     20  C   UNL     1      -3.309  -1.948  -3.025  0.00  0.00    +0.201 C 
BRANCH  20  22
ATOM     21  N   UNL     1      -1.718  -1.028  -1.369  0.00  0.00    -0.310 N 
ATOM     22  C   UNL     1      -2.860  -1.704  -1.607  0.00  0.00    +0.231 C 
ATOM     23  O   UNL     1      -3.525  -2.116  -0.681  0.00  0.00    -0.274 OA
ATOM     24  H   UNL     1      -1.186  -0.699  -2.110  0.00  0.00    +0.149 HD
BRANCH  21  25
ATOM     25  C   UNL     1      -1.282  -0.791   0.009  0.00  0.00    +0.139 C 
BRANCH  25  31
ATOM     26  C   UNL     1      -0.006   1.363   0.013  0.00  0.00    +0.007 A 
ATOM     27  C   UNL     1       1.182   2.070   0.005  0.00  0.00    +0.029 A 
ATOM     28  C   UNL     1       2.388   1.395  -0.016  0.00  0.00    +0.105 A 
ATOM     29  C   UNL     1       2.407   0.013  -0.029  0.00  0.00    +0.029 A 
ATOM     30  C   UNL     1       1.219  -0.694  -0.020  0.00  0.00    +0.007 A 
ATOM     31  C   UNL     1       0.013  -0.020  -0.000  0.00  0.00    -0.030 A 
BRANCH  28  32
ATOM     32  S   UNL     1       3.902   2.297  -0.028  0.00  0.00    +0.056 S 
ATOM     33  O   UNL     1       4.881   1.440  -0.598  0.00  0.00    -0.153 OA
ATOM     34  O   UNL     1       3.607   3.579  -0.564  0.00  0.00    -0.153 OA
BRANCH  32  35
ATOM     35  N   UNL     1       4.342   2.534   1.551  0.00  0.00    -0.204 NA
ATOM     36  H   UNL     1       3.785   2.191   2.267  0.00  0.00    +0.144 HD
ATOM     37  H   UNL     1       5.158   3.017   1.760  0.00  0.00    +0.144 HD
ENDBRANCH  32  35
ENDBRANCH  28  32
ENDBRANCH  25  31
ENDBRANCH  21  25
ENDBRANCH  20  22
ENDBRANCH   1  20
TORSDOF 6
