REMARK  Name = ZINC34748610
REMARK  7 active torsions:
REMARK  status: ('A' for Active; 'I' for Inactive)
REMARK    1  A    between atoms: C_1  and  C_2
REMARK    2  A    between atoms: C_3  and  C_30
REMARK    3  A    between atoms: N_9  and  C_22
REMARK    4  A    between atoms: N_15  and  C_18
REMARK    5  A    between atoms: C_18  and  C_19
REMARK    6  A    between atoms: C_22  and  C_23
REMARK    7  A    between atoms: C_23  and  C_24
REMARK                            x       y       z     vdW  Elec       q    Type
REMARK                         _______ _______ _______ _____ _____    ______ ____
ROOT
ATOM      1  C   UNL     1      -0.006   1.548   0.097  0.00  0.00    +0.045 C 
ATOM      2  C   UNL     1       0.036   0.043   0.050  0.00  0.00    -0.026 A 
ATOM      3  C   UNL     1       0.069  -0.598  -1.128  0.00  0.00    -0.008 A 
ATOM      4  S   UNL     1       0.111  -2.318  -0.662  0.00  0.00    -0.073 S 
ATOM      5  C   UNL     1       0.083  -2.127   1.102  0.00  0.00    +0.117 A 
ATOM      6  C   UNL     1       0.048  -0.731   1.279  0.00  0.00    +0.075 A 
ATOM      7  C   UNL     1       0.024  -0.277   2.636  0.00  0.00    +0.264 A 
ATOM      8  O   UNL     1      -0.012   0.915   2.887  0.00  0.00    -0.267 OA
ATOM      9  N   UNL     1       0.041  -1.183   3.630  0.00  0.00    -0.280 N 
ATOM     10  C   UNL     1       0.080  -2.521   3.368  0.00  0.00    +0.202 A 
ATOM     11  N   UNL     1       0.092  -2.967   2.130  0.00  0.00    -0.208 NA
ATOM     12  N   UNL     1       0.097  -3.414   4.410  0.00  0.00    -0.304 N 
ATOM     13  C   UNL     1      -1.151  -4.003   4.922  0.00  0.00    +0.089 C 
ATOM     14  C   UNL     1      -0.978  -5.524   4.989  0.00  0.00    -0.059 C 
ATOM     15  N   UNL     1       0.214  -5.845   5.784  0.00  0.00    +0.387 N 
ATOM     16  C   UNL     1       1.417  -5.341   5.109  0.00  0.00    -0.059 C 
ATOM     17  C   UNL     1       1.363  -3.815   5.043  0.00  0.00    +0.089 C 
ATOM     18  C   UNL     1       0.070  -0.006  -2.514  0.00  0.00    +0.052 C 
ATOM     19  H   UNL     1       0.136  -5.416   6.694  0.00  0.00    -0.081 HD
ENDROOT
BRANCH  15  20
ATOM     20  C   UNL     1       0.318  -7.302   5.941  0.00  0.00    +0.018 C 
BRANCH  20  21
ATOM     21  C   UNL     1       1.469  -7.628   6.857  0.00  0.00    +0.194 C 
ATOM     22  O   UNL     1       2.138  -6.735   7.333  0.00  0.00    -0.278 OA
ATOM     23  N   UNL     1       1.756  -8.913   7.148  0.00  0.00    -0.331 N 
ATOM     24  H   UNL     1       1.222  -9.627   6.768  0.00  0.00    +0.145 HD
ATOM     25  H   UNL     1       2.497  -9.122   7.738  0.00  0.00    +0.145 HD
ENDBRANCH  20  21
ENDBRANCH  15  20
BRANCH   9  26
ATOM     26  C   UNL     1       0.016  -0.724   5.021  0.00  0.00    +0.133 C 
BRANCH  26  27
ATOM     27  C   UNL     1      -1.431  -0.473   5.450  0.00  0.00    +0.057 C 
BRANCH  27  28
ATOM     28  C   UNL     1      -1.449   0.112   6.839  0.00  0.00    -0.046 A 
ATOM     29  C   UNL     1      -1.603  -0.716   7.936  0.00  0.00    +0.004 A 
ATOM     30  C   UNL     1      -1.619  -0.179   9.209  0.00  0.00    +0.000 A 
ATOM     31  C   UNL     1      -1.481   1.185   9.387  0.00  0.00    +0.000 A 
ATOM     32  C   UNL     1      -1.326   2.012   8.290  0.00  0.00    +0.000 A 
ATOM     33  C   UNL     1      -1.305   1.475   7.016  0.00  0.00    +0.004 A 
ENDBRANCH  27  28
ENDBRANCH  26  27
ENDBRANCH   9  26
TORSDOF 5
