REMARK  Name = ZINC63697942
REMARK  12 active torsions:
REMARK  status: ('A' for Active; 'I' for Inactive)
REMARK    1  A    between atoms: C_1  and  C_2
REMARK    2  A    between atoms: C_2  and  O_3
REMARK    3  A    between atoms: O_3  and  C_4
REMARK    4  A    between atoms: C_7  and  C_10
REMARK    5  A    between atoms: C_25  and  C_27
REMARK    6  A    between atoms: C_27  and  C_28
REMARK    7  A    between atoms: C_32  and  O_37
REMARK    8  A    between atoms: C_33  and  O_34
REMARK    9  A    between atoms: O_34  and  C_35
REMARK   10  A    between atoms: C_35  and  C_36
REMARK   11  A    between atoms: O_37  and  C_38
REMARK   12  A    between atoms: C_38  and  C_39
REMARK                            x       y       z     vdW  Elec       q    Type
REMARK                         _______ _______ _______ _____ _____    ______ ____
ROOT
ATOM      1  C   UNL     1       1.109  -6.040  -1.847  0.00  0.00    +0.133 C 
ATOM      2  C   UNL     1      -0.025  -6.545  -2.745  0.00  0.00    +0.131 C 
ATOM      3  C   UNL     1       0.275  -6.040  -4.151  0.00  0.00    -0.035 C 
ATOM      4  C   UNL     1      -0.791  -5.351  -4.538  0.00  0.00    -0.001 A 
ATOM      5  C   UNL     1      -1.120  -4.688  -5.811  0.00  0.00    +0.010 A 
ATOM      6  C   UNL     1      -2.319  -4.050  -5.862  0.00  0.00    +0.001 A 
ATOM      7  C   UNL     1      -3.213  -4.006  -4.788  0.00  0.00    +0.002 A 
ATOM      8  C   UNL     1      -2.995  -4.591  -3.583  0.00  0.00    +0.026 A 
ATOM      9  C   UNL     1      -1.769  -5.297  -3.409  0.00  0.00    +0.043 A 
ATOM     10  N   UNL     1      -1.317  -5.970  -2.366  0.00  0.00    -0.375 N 
ATOM     11  C   UNL     1       1.602  -6.276  -4.830  0.00  0.00    +0.052 C 
ATOM     12  C   UNL     1       2.693  -5.832  -3.838  0.00  0.00    +0.113 C 
ATOM     13  N   UNL     1       2.385  -6.363  -2.505  0.00  0.00    -0.292 N 
ATOM     14  C   UNL     1       3.277  -7.154  -1.878  0.00  0.00    +0.221 C 
ATOM     15  O   UNL     1       3.027  -7.596  -0.776  0.00  0.00    -0.275 OA
ATOM     16  H   UNL     1      -1.750  -6.068  -1.503  0.00  0.00    +0.160 HD
ENDROOT
BRANCH   1  20
ATOM     17  C   UNL     1       0.777  -1.810  -1.336  0.00  0.00    +0.121 A 
ATOM     18  C   UNL     1       0.700  -2.651  -0.236  0.00  0.00    +0.046 A 
ATOM     19  C   UNL     1       0.808  -4.018  -0.403  0.00  0.00    +0.009 A 
ATOM     20  C   UNL     1       0.992  -4.548  -1.667  0.00  0.00    -0.025 A 
ATOM     21  C   UNL     1       1.069  -3.712  -2.766  0.00  0.00    +0.009 A 
ATOM     22  C   UNL     1       0.956  -2.345  -2.604  0.00  0.00    +0.046 A 
BRANCH  17  23
ATOM     23  O   UNL     1       0.671  -0.465  -1.174  0.00  0.00    -0.492 OA
BRANCH  23  25
ATOM     24  C   UNL     1       0.391   1.542   0.143  0.00  0.00    +0.048 C 
ATOM     25  C   UNL     1       0.488   0.015   0.160  0.00  0.00    +0.225 C 
ENDBRANCH  23  25
ENDBRANCH  17  23
ENDBRANCH   1  20
BRANCH  14  26
ATOM     26  C   UNL     1       4.586  -7.490  -2.545  0.00  0.00    +0.135 C 
BRANCH  26  27
ATOM     27  C   UNL     1       5.397  -8.383  -1.640  0.00  0.00    +0.007 A 
ATOM     28  C   UNL     1       6.342  -7.833  -0.793  0.00  0.00    +0.008 A 
ATOM     29  C   UNL     1       7.087  -8.649   0.037  0.00  0.00    +0.004 A 
ATOM     30  C   UNL     1       6.891 -10.018   0.025  0.00  0.00    +0.049 A 
ATOM     31  C   UNL     1       5.946 -10.574  -0.821  0.00  0.00    +0.162 A 
ATOM     32  C   UNL     1       5.191  -9.752  -1.653  0.00  0.00    +0.165 A 
BRANCH  32  33
ATOM     33  O   UNL     1       4.258 -10.293  -2.482  0.00  0.00    -0.488 OA
BRANCH  33  34
ATOM     34  C   UNL     1       4.694 -10.675  -3.788  0.00  0.00    +0.226 C 
ATOM     35  C   UNL     1       3.514 -11.259  -4.569  0.00  0.00    +0.048 C 
ENDBRANCH  33  34
ENDBRANCH  32  33
BRANCH  31  36
ATOM     36  O   UNL     1       5.751 -11.920  -0.835  0.00  0.00    -0.489 OA
BRANCH  36  37
ATOM     37  C   UNL     1       6.557 -12.701   0.050  0.00  0.00    +0.226 C 
ATOM     38  C   UNL     1       6.199 -14.180  -0.106  0.00  0.00    +0.048 C 
ENDBRANCH  36  37
ENDBRANCH  31  36
ENDBRANCH  26  27
ENDBRANCH  14  26
TORSDOF 9
