REMARK  Name = ZINC04191506
REMARK  12 active torsions:
REMARK  status: ('A' for Active; 'I' for Inactive)
REMARK    1  A    between atoms: C_1  and  C_2
REMARK    2  A    between atoms: C_2  and  C_3
REMARK    3  A    between atoms: C_3  and  C_4
REMARK    4  A    between atoms: C_3  and  C_5
REMARK    5  A    between atoms: C_3  and  N_6
REMARK    6  A    between atoms: N_6  and  C_7
REMARK    7  A    between atoms: C_7  and  C_9
REMARK    8  A    between atoms: C_7  and  C_10
REMARK    9  A    between atoms: N_12  and  C_13
REMARK   10  A    between atoms: C_18  and  C_20
REMARK   11  A    between atoms: C_21  and  N_28
REMARK   12  A    between atoms: C_22  and  C_25
REMARK                            x       y       z     vdW  Elec       q    Type
REMARK                         _______ _______ _______ _____ _____    ______ ____
ROOT
ATOM      1  N   UNL     1       3.085   0.233   0.318  0.00  0.00    -0.280 N 
ATOM      2  C   UNL     1       4.103  -0.486  -0.197  0.00  0.00    +0.258 C 
ATOM      3  O   UNL     1       4.659  -0.112  -1.212  0.00  0.00    -0.269 OA
ENDROOT
BRANCH   2   4
ATOM      4  C   UNL     1       4.539  -1.716   0.467  0.00  0.00    +0.115 A 
ATOM      5  C   UNL     1       5.649  -2.520   0.200  0.00  0.00    +0.076 A 
ATOM      6  C   UNL     1       5.731  -3.617   1.057  0.00  0.00    +0.155 A 
ATOM      7  N   UNL     1       4.806  -3.788   1.975  0.00  0.00    -0.203 NA
ATOM      8  S   UNL     1       3.790  -2.592   1.825  0.00  0.00    +0.019 S 
BRANCH   6   9
ATOM      9  C   UNL     1       6.842  -4.579   0.931  0.00  0.00    +0.262 C 
ATOM     10  O   UNL     1       7.695  -4.414   0.080  0.00  0.00    -0.269 OA
ATOM     11  N   UNL     1       6.912  -5.640   1.759  0.00  0.00    -0.324 N 
ATOM     12  H   UNL     1       6.232  -5.771   2.438  0.00  0.00    +0.145 HD
ATOM     13  H   UNL     1       7.643  -6.272   1.676  0.00  0.00    +0.145 HD
ENDBRANCH   6   9
BRANCH   5  14
ATOM     14  N   UNL     1       6.570  -2.254  -0.804  0.00  0.00    -0.355 N 
ATOM     15  H   UNL     1       6.461  -1.472  -1.368  0.00  0.00    +0.142 HD
ATOM     16  H   UNL     1       7.322  -2.850  -0.942  0.00  0.00    +0.142 HD
ENDBRANCH   5  14
ENDBRANCH   2   4
BRANCH   1  17
ATOM     17  C   UNL     1       2.345  -0.271   1.477  0.00  0.00    +0.033 C 
ATOM     18  C   UNL     1       1.158   0.651   1.764  0.00  0.00    +0.031 C 
ATOM     19  C   UNL     1       1.834  -1.683   1.181  0.00  0.00    +0.031 C 
BRANCH  17  21
ATOM     20  C   UNL     1       3.412   1.103   3.270  0.00  0.00    +0.006 C 
ATOM     21  C   UNL     1       3.269  -0.307   2.696  0.00  0.00    +0.022 C 
ENDBRANCH  17  21
ENDBRANCH   1  17
BRANCH   1  22
ATOM     22  C   UNL     1       2.720   1.519  -0.283  0.00  0.00    +0.160 C 
ATOM     23  C   UNL     1       3.106   2.654   0.667  0.00  0.00    +0.038 C 
BRANCH  22  24
ATOM     24  C   UNL     1       1.233   1.553  -0.529  0.00  0.00    +0.234 C 
ATOM     25  O   UNL     1       0.639   0.531  -0.798  0.00  0.00    -0.274 OA
ATOM     26  N   UNL     1       0.565   2.722  -0.456  0.00  0.00    -0.311 N 
ATOM     27  H   UNL     1       1.040   3.539  -0.240  0.00  0.00    +0.149 HD
BRANCH  26  28
ATOM     28  C   UNL     1      -0.879   2.756  -0.701  0.00  0.00    +0.073 C 
ATOM     29  C   UNL     1      -1.155   2.943  -2.207  0.00  0.00    +0.022 C 
ATOM     30  C   UNL     1      -2.398   3.866  -2.254  0.00  0.00    +0.002 C 
ATOM     31  C   UNL     1      -2.141   4.846  -1.082  0.00  0.00    +0.002 C 
ATOM     32  C   UNL     1      -1.506   3.966   0.015  0.00  0.00    +0.022 C 
ENDBRANCH  26  28
ENDBRANCH  22  24
ENDBRANCH   1  22
TORSDOF 8
