REMARK  Name = ZINC38689103
REMARK  7 active torsions:
REMARK  status: ('A' for Active; 'I' for Inactive)
REMARK    1  A    between atoms: C_1  and  C_2
REMARK    2  A    between atoms: C_2  and  O_3
REMARK    3  A    between atoms: O_3  and  C_4
REMARK    4  A    between atoms: C_4  and  C_6
REMARK    5  A    between atoms: C_8  and  N_17
REMARK    6  A    between atoms: C_18  and  C_20
REMARK    7  A    between atoms: C_20  and  N_21
REMARK                            x       y       z     vdW  Elec       q    Type
REMARK                         _______ _______ _______ _____ _____    ______ ____
ROOT
ATOM      1  N   UNL     1      -3.658  -1.476  -2.376  0.00  0.00    -0.285 N 
ATOM      2  C   UNL     1      -4.269  -1.692  -3.558  0.00  0.00    +0.231 C 
ATOM      3  O   UNL     1      -4.741  -2.781  -3.806  0.00  0.00    -0.274 OA
ATOM      4  H   UNL     1      -3.355  -0.585  -2.142  0.00  0.00    +0.155 HD
ENDROOT
BRANCH   1   6
ATOM      5  C   UNL     1      -3.967  -3.930  -1.657  0.00  0.00    +0.234 C 
ATOM      6  C   UNL     1      -3.466  -2.510  -1.509  0.00  0.00    +0.053 C 
ATOM      7  C   UNL     1      -2.773  -2.479  -0.312  0.00  0.00    +0.019 A 
ATOM      8  C   UNL     1      -2.082  -1.445   0.365  0.00  0.00    +0.031 A 
ATOM      9  C   UNL     1      -1.480  -1.705   1.553  0.00  0.00    +0.042 A 
ATOM     10  C   UNL     1      -1.522  -2.977   2.133  0.00  0.00    +0.022 A 
ATOM     11  C   UNL     1      -2.163  -4.013   1.541  0.00  0.00    +0.027 A 
ATOM     12  C   UNL     1      -2.818  -3.820   0.297  0.00  0.00    +0.045 A 
ATOM     13  N   UNL     1      -3.499  -4.651  -0.469  0.00  0.00    -0.367 N 
ATOM     14 CL   UNL     1      -0.636  -0.428   2.372  0.00  0.00    -0.084 Cl
ATOM     15  H   UNL     1      -3.664  -5.588  -0.278  0.00  0.00    +0.161 HD
BRANCH   5  16
ATOM     16  C   UNL     1      -5.473  -3.946  -1.713  0.00  0.00    +0.336 C 
ATOM     17  O   UNL     1      -6.117  -3.727  -0.715  0.00  0.00    -0.248 OA
BRANCH  16  18
ATOM     18  O   UNL     1      -6.098  -4.204  -2.873  0.00  0.00    -0.463 OA
BRANCH  18  20
ATOM     19  C   UNL     1      -8.057  -4.514  -4.255  0.00  0.00    +0.048 C 
ATOM     20  C   UNL     1      -7.527  -4.203  -2.853  0.00  0.00    +0.229 C 
ENDBRANCH  18  20
ENDBRANCH  16  18
ENDBRANCH   5  16
ENDBRANCH   1   6
BRANCH   2  21
ATOM     21  C   UNL     1      -4.365  -0.580  -4.570  0.00  0.00    +0.180 C 
BRANCH  21  22
ATOM     22  N   UNL     1      -5.070  -1.065  -5.764  0.00  0.00    -0.291 NA
ATOM     23  C   UNL     1      -4.291  -2.105  -6.450  0.00  0.00    +0.104 C 
ATOM     24  C   UNL     1      -5.134  -2.709  -7.578  0.00  0.00    +0.122 C 
ATOM     25  N   UNL     1      -5.609  -1.618  -8.442  0.00  0.00    -0.314 N 
ATOM     26  C   UNL     1      -6.280  -0.472  -7.809  0.00  0.00    +0.122 C 
ATOM     27  C   UNL     1      -5.392   0.044  -6.672  0.00  0.00    +0.104 C 
ATOM     28  C   UNL     1      -5.431  -1.669  -9.819  0.00  0.00    +0.099 A 
ATOM     29  C   UNL     1      -4.672  -2.692 -10.379  0.00  0.00    +0.042 A 
ATOM     30  C   UNL     1      -4.502  -2.731 -11.751  0.00  0.00    +0.005 A 
ATOM     31  C   UNL     1      -5.099  -1.741 -12.520  0.00  0.00    +0.018 A 
ATOM     32  C   UNL     1      -5.839  -0.755 -11.899  0.00  0.00    +0.084 A 
ATOM     33  N   UNL     1      -5.988  -0.746 -10.588  0.00  0.00    -0.350 N 
ATOM     34  H   UNL     1      -6.516  -0.044 -10.177  0.00  0.00    +0.166 HD
ENDBRANCH  21  22
ENDBRANCH   2  21
TORSDOF 6
