REMARK  Name = ZINC04348785
REMARK  5 active torsions:
REMARK  status: ('A' for Active; 'I' for Inactive)
REMARK    1  A    between atoms: C_1  and  N_2
REMARK    2  A    between atoms: C_3  and  C_5
REMARK    3  A    between atoms: C_9  and  N_10
REMARK    4  A    between atoms: C_11  and  C_13
REMARK    5  A    between atoms: C_17  and  N_22
REMARK                            x       y       z     vdW  Elec       q    Type
REMARK                         _______ _______ _______ _____ _____    ______ ____
ROOT
ATOM      1  N   UNL     1      -2.395  -0.459   0.023  0.00  0.00    -0.275 N 
ATOM      2  C   UNL     1      -1.135  -0.935   0.009  0.00  0.00    +0.255 C 
ATOM      3  O   UNL     1      -0.937  -2.136   0.001  0.00  0.00    -0.269 OA
ATOM      4  H   UNL     1      -2.553   0.498   0.030  0.00  0.00    +0.156 HD
ENDROOT
BRANCH   1   9
ATOM      5  C   UNL     1      -4.823  -1.043   0.050  0.00  0.00    +0.069 A 
ATOM      6  C   UNL     1      -5.753  -2.159   0.048  0.00  0.00    -0.023 A 
ATOM      7  C   UNL     1      -5.182  -3.383   0.037  0.00  0.00    -0.004 A 
ATOM      8  S   UNL     1      -3.439  -3.070   0.021  0.00  0.00    -0.077 S 
ATOM      9  C   UNL     1      -3.467  -1.337   0.030  0.00  0.00    +0.085 A 
ATOM     10  C   UNL     1      -5.882  -4.707   0.038  0.00  0.00    +0.043 C 
ATOM     11  C   UNL     1      -7.349  -4.478   0.431  0.00  0.00    +0.005 C 
ATOM     12  C   UNL     1      -7.905  -3.314  -0.395  0.00  0.00    +0.005 C 
ATOM     13  C   UNL     1      -7.268  -2.001   0.062  0.00  0.00    +0.037 C 
BRANCH   5  16
ATOM     14  C   UNL     1      -5.980   2.355   1.265  0.00  0.00    +0.128 C 
ATOM     15  N   UNL     1      -5.503   0.970   1.246  0.00  0.00    -0.314 N 
ATOM     16  C   UNL     1      -5.300   0.344   0.070  0.00  0.00    +0.246 C 
ATOM     17  O   UNL     1      -5.512   0.929  -0.976  0.00  0.00    -0.270 OA
ATOM     18  H   UNL     1      -5.334   0.503   2.079  0.00  0.00    +0.149 HD
ENDBRANCH   5  16
ENDBRANCH   1   9
BRANCH   2  19
ATOM     19  C   UNL     1       0.002  -0.004   0.002  0.00  0.00    +0.075 A 
ATOM     20  C   UNL     1       1.331  -0.290  -0.012  0.00  0.00    +0.029 A 
ATOM     21  C   UNL     1       2.274   0.754  -0.016  0.00  0.00    -0.008 A 
ATOM     22  C   UNL     1       3.689   0.660  -0.030  0.00  0.00    +0.041 A 
ATOM     23  C   UNL     1       4.460   1.778  -0.032  0.00  0.00    +0.127 A 
ATOM     24  C   UNL     1       3.899   3.050  -0.020  0.00  0.00    +0.034 A 
ATOM     25  C   UNL     1       2.526   3.187  -0.005  0.00  0.00    +0.018 A 
ATOM     26  C   UNL     1       1.730   2.061  -0.003  0.00  0.00    +0.020 A 
ATOM     27  S   UNL     1      -0.022   1.780   0.012  0.00  0.00    -0.084 S 
BRANCH  23  28
ATOM     28  N   UNL     1       5.933   1.639  -0.047  0.00  0.00    +0.056 N 
ATOM     29  O   UNL     1       6.639   2.632  -0.049  0.00  0.00    -0.126 OA
ATOM     30  O   UNL     1       6.441   0.532  -0.058  0.00  0.00    -0.126 OA
ENDBRANCH  23  28
ENDBRANCH   2  19
TORSDOF 4
