REMARK  Name = ZINC35769418
REMARK  8 active torsions:
REMARK  status: ('A' for Active; 'I' for Inactive)
REMARK    1  A    between atoms: C_1  and  C_2
REMARK    2  A    between atoms: C_2  and  C_3
REMARK    3  A    between atoms: C_4  and  C_29
REMARK    4  A    between atoms: C_5  and  N_10
REMARK    5  A    between atoms: C_7  and  C_9
REMARK    6  A    between atoms: N_18  and  C_19
REMARK    7  A    between atoms: C_29  and  C_30
REMARK    8  A    between atoms: C_33  and  C_36
REMARK                            x       y       z     vdW  Elec       q    Type
REMARK                         _______ _______ _______ _____ _____    ______ ____
ROOT
ATOM      1  N   UNL     1      -0.553  -1.909  -4.684  0.00  0.00    -0.312 N 
ATOM      2  C   UNL     1      -2.005  -1.814  -4.472  0.00  0.00    +0.125 C 
ATOM      3  C   UNL     1      -2.615  -0.999  -5.619  0.00  0.00    +0.128 C 
ATOM      4  N   UNL     1      -2.119  -1.538  -6.894  0.00  0.00    -0.283 N 
ATOM      5  C   UNL     1      -0.668  -1.633  -7.106  0.00  0.00    +0.128 C 
ATOM      6  C   UNL     1      -0.058  -2.443  -5.960  0.00  0.00    +0.125 C 
ATOM      7  C   UNL     1      -2.980  -1.938  -7.851  0.00  0.00    +0.303 C 
ATOM      8  O   UNL     1      -4.175  -1.768  -7.703  0.00  0.00    -0.253 OA
ATOM      9  N   UNL     1      -2.516  -2.525  -8.971  0.00  0.00    -0.294 N 
ATOM     10  H   UNL     1      -1.571  -2.727  -9.058  0.00  0.00    +0.151 HD
ENDROOT
BRANCH   9  11
ATOM     11  C   UNL     1      -3.439  -2.859 -10.059  0.00  0.00    +0.037 C 
ATOM     12  C   UNL     1      -4.502  -3.832  -9.545  0.00  0.00    +0.029 C 
ATOM     13  C   UNL     1      -5.466  -4.180 -10.681  0.00  0.00    -0.008 C 
ATOM     14  C   UNL     1      -4.689  -4.833 -11.826  0.00  0.00    +0.007 C 
ATOM     15  C   UNL     1      -3.626  -3.861 -12.340  0.00  0.00    -0.008 C 
ATOM     16  C   UNL     1      -2.662  -3.512 -11.204  0.00  0.00    +0.029 C 
ATOM     17  C   UNL     1      -4.303  -2.584 -12.845  0.00  0.00    +0.007 C 
ATOM     18  C   UNL     1      -5.079  -1.932 -11.699  0.00  0.00    -0.008 C 
ATOM     19  C   UNL     1      -6.143  -2.904 -11.185  0.00  0.00    +0.007 C 
ATOM     20  C   UNL     1      -4.115  -1.583 -10.563  0.00  0.00    +0.029 C 
ENDBRANCH   9  11
BRANCH   1  23
ATOM     21  C   UNL     1       1.527  -1.881  -1.673  0.00  0.00    +0.050 A 
ATOM     22  C   UNL     1       0.638  -2.337  -2.627  0.00  0.00    +0.018 A 
ATOM     23  C   UNL     1       0.332  -1.498  -3.700  0.00  0.00    +0.129 A 
ATOM     24  N   UNL     1       0.902  -0.298  -3.764  0.00  0.00    -0.217 NA
ATOM     25  C   UNL     1       1.744   0.095  -2.830  0.00  0.00    +0.128 A 
ATOM     26  N   UNL     1       2.051  -0.670  -1.802  0.00  0.00    -0.237 NA
ATOM     27  C   UNL     1       2.370   1.462  -2.938  0.00  0.00    +0.088 C 
BRANCH  21  29
ATOM     28  C   UNL     1       0.839  -2.583   0.604  0.00  0.00    +0.010 C 
ATOM     29  C   UNL     1       1.891  -2.747  -0.494  0.00  0.00    +0.052 C 
ENDBRANCH  21  29
BRANCH  22  30
ATOM     30  C   UNL     1       0.017  -3.705  -2.513  0.00  0.00    +0.075 C 
BRANCH  30  31
ATOM     31  C   UNL     1       0.972  -4.737  -3.053  0.00  0.00    -0.043 A 
ATOM     32  C   UNL     1       1.062  -4.950  -4.416  0.00  0.00    +0.004 A 
ATOM     33  C   UNL     1       1.938  -5.897  -4.912  0.00  0.00    +0.003 A 
ATOM     34  C   UNL     1       2.726  -6.631  -4.044  0.00  0.00    -0.050 A 
ATOM     35  C   UNL     1       2.637  -6.418  -2.682  0.00  0.00    +0.003 A 
ATOM     36  C   UNL     1       1.764  -5.467  -2.186  0.00  0.00    +0.004 A 
ATOM     37  C   UNL     1       3.681  -7.665  -4.584  0.00  0.00    +0.044 C 
ENDBRANCH  30  31
ENDBRANCH  22  30
ENDBRANCH   1  23
TORSDOF 5
