REMARK  Name = ZINC11964714
REMARK  9 active torsions:
REMARK  status: ('A' for Active; 'I' for Inactive)
REMARK    1  A    between atoms: C_4  and  C_7
REMARK    2  A    between atoms: C_7  and  N_62
REMARK    3  A    between atoms: C_8  and  C_9
REMARK    4  A    between atoms: C_8  and  N_62
REMARK    5  A    between atoms: C_9  and  O_10
REMARK    6  A    between atoms: C_11  and  N_62
REMARK    7  A    between atoms: N_22  and  C_25
REMARK    8  A    between atoms: C_25  and  C_26
REMARK    9  A    between atoms: C_26  and  C_27
REMARK                            x       y       z     vdW  Elec       q    Type
REMARK                         _______ _______ _______ _____ _____    ______ ____
ROOT
ATOM      1  C   UNL     1      -0.180   6.573   5.210  0.00  0.00    -0.063 C 
ATOM      2  C   UNL     1       0.207   6.849   3.755  0.00  0.00    -0.010 C 
ATOM      3  C   UNL     1       0.504   5.532   3.037  0.00  0.00    +0.035 C 
ATOM      4  C   UNL     1      -0.677   4.585   3.237  0.00  0.00    -0.023 A 
ATOM      5  C   UNL     1      -1.568   4.795   4.228  0.00  0.00    -0.006 A 
ATOM      6  S   UNL     1      -2.741   3.474   4.079  0.00  0.00    -0.073 S 
ATOM      7  C   UNL     1      -2.027   2.642   2.683  0.00  0.00    +0.116 A 
ATOM      8  C   UNL     1      -0.900   3.422   2.380  0.00  0.00    +0.076 A 
ATOM      9  C   UNL     1      -0.113   2.969   1.270  0.00  0.00    +0.262 A 
ATOM     10  O   UNL     1       0.887   3.577   0.931  0.00  0.00    -0.267 OA
ATOM     11  N   UNL     1      -0.501   1.864   0.606  0.00  0.00    -0.298 N 
ATOM     12  C   UNL     1      -1.610   1.171   0.973  0.00  0.00    +0.203 A 
ATOM     13  N   UNL     1      -2.344   1.556   1.982  0.00  0.00    -0.230 NA
ATOM     14  C   UNL     1      -1.562   5.905   5.234  0.00  0.00    +0.027 C 
ENDROOT
BRANCH   1  15
ATOM     15  N   UNL     1      -0.252   7.854   5.944  0.00  0.00    +0.386 N 
ATOM     16  H   UNL     1      -1.019   8.417   5.557  0.00  0.00    -0.081 HD
BRANCH  15  17
ATOM     17  C   UNL     1      -0.517   7.602   7.376  0.00  0.00    -0.043 C 
BRANCH  17  21
ATOM     18  C   UNL     1      -1.698  11.269   9.221  0.00  0.00    +0.000 A 
ATOM     19  C   UNL     1      -2.631  10.501   8.550  0.00  0.00    +0.000 A 
ATOM     20  C   UNL     1      -2.249   9.314   7.953  0.00  0.00    +0.002 A 
ATOM     21  C   UNL     1      -0.933   8.896   8.027  0.00  0.00    -0.064 A 
ATOM     22  C   UNL     1      -0.001   9.661   8.702  0.00  0.00    +0.002 A 
ATOM     23  C   UNL     1      -0.382  10.850   9.295  0.00  0.00    +0.000 A 
ENDBRANCH  17  21
ENDBRANCH  15  17
BRANCH  15  24
ATOM     24  C   UNL     1       1.016   8.598   5.788  0.00  0.00    -0.050 C 
BRANCH  24  25
ATOM     25  C   UNL     1       2.190   7.773   6.320  0.00  0.00    +0.137 C 
BRANCH  25  26
ATOM     26  O   UNL     1       2.387   6.631   5.485  0.00  0.00    -0.397 OA
ATOM     27  H   UNL     1       3.067   6.022   5.805  0.00  0.00    +0.209 HD
ENDBRANCH  25  26
ENDBRANCH  24  25
ENDBRANCH  15  24
ENDBRANCH   1  15
BRANCH  11  28
ATOM     28  C   UNL     1       0.293   1.396  -0.533  0.00  0.00    +0.131 C 
BRANCH  28  29
ATOM     29  C   UNL     1      -0.229   2.041  -1.818  0.00  0.00    +0.057 C 
BRANCH  29  30
ATOM     30  C   UNL     1       0.587   1.559  -2.990  0.00  0.00    -0.044 A 
ATOM     31  C   UNL     1       0.205   0.423  -3.678  0.00  0.00    +0.004 A 
ATOM     32  C   UNL     1       0.953  -0.019  -4.753  0.00  0.00    +0.002 A 
ATOM     33  C   UNL     1       2.084   0.675  -5.140  0.00  0.00    +0.020 A 
ATOM     34  C   UNL     1       2.468   1.812  -4.452  0.00  0.00    +0.041 A 
ATOM     35  C   UNL     1       1.715   2.257  -3.379  0.00  0.00    +0.023 A 
ATOM     36 CL   UNL     1       3.888   2.684  -4.937  0.00  0.00    -0.084 Cl
ENDBRANCH  29  30
ENDBRANCH  28  29
ENDBRANCH  11  28
TORSDOF 9
