REMARK  Name = ZINC43525497
REMARK  14 active torsions:
REMARK  status: ('A' for Active; 'I' for Inactive)
REMARK    1  A    between atoms: C_1  and  C_2
REMARK    2  A    between atoms: C_2  and  C_3
REMARK    3  A    between atoms: C_2  and  C_4
REMARK    4  A    between atoms: C_4  and  N_5
REMARK    5  A    between atoms: N_5  and  C_6
REMARK    6  A    between atoms: C_6  and  N_8
REMARK    7  A    between atoms: N_8  and  C_9
REMARK    8  A    between atoms: C_9  and  C_10
REMARK    9  A    between atoms: C_19  and  C_21
REMARK   10  A    between atoms: C_23  and  C_27
REMARK   11  A    between atoms: N_25  and  C_26
REMARK   12  A    between atoms: C_30  and  N_33
REMARK   13  A    between atoms: N_33  and  C_34
REMARK   14  A    between atoms: N_33  and  C_35
REMARK                            x       y       z     vdW  Elec       q    Type
REMARK                         _______ _______ _______ _____ _____    ______ ____
ROOT
ATOM      1  C   UNL     1      -3.656  -6.259  -0.414  0.00  0.00    -0.051 C 
ATOM      2  C   UNL     1      -4.910  -7.133  -0.491  0.00  0.00    -0.010 C 
ATOM      3  C   UNL     1      -4.911  -7.882  -1.830  0.00  0.00    -0.007 C 
ATOM      4  C   UNL     1      -4.905  -6.848  -2.963  0.00  0.00    -0.015 C 
ATOM      5  C   UNL     1      -3.663  -5.964  -2.818  0.00  0.00    -0.078 C 
ATOM      6  N   UNL     1      -2.864  -6.416  -1.636  0.00  0.00    +0.383 N 
ATOM      7  C   UNL     1      -2.423  -7.804  -1.790  0.00  0.00    -0.068 C 
ATOM      8  C   UNL     1      -3.634  -8.728  -1.911  0.00  0.00    +0.024 C 
ATOM      9  H   UNL     1      -2.042  -5.834  -1.561  0.00  0.00    -0.081 HD
ENDROOT
BRANCH   8  10
ATOM     10  C   UNL     1      -3.589  -9.448  -3.234  0.00  0.00    +0.041 A 
ATOM     11  C   UNL     1      -3.113  -8.948  -4.395  0.00  0.00    +0.053 A 
ATOM     12  C   UNL     1      -3.254  -9.941  -5.383  0.00  0.00    +0.093 A 
ATOM     13  N   UNL     1      -3.799 -10.999  -4.820  0.00  0.00    -0.171 NA
ATOM     14  N   UNL     1      -4.012 -10.710  -3.466  0.00  0.00    -0.271 N 
ATOM     15  C   UNL     1      -4.596 -11.617  -2.475  0.00  0.00    +0.172 C 
BRANCH  12  16
ATOM     16  C   UNL     1      -2.859  -9.818  -6.809  0.00  0.00    +0.002 A 
ATOM     17  C   UNL     1      -2.285  -8.636  -7.273  0.00  0.00    +0.012 A 
ATOM     18  C   UNL     1      -1.918  -8.523  -8.598  0.00  0.00    +0.024 A 
ATOM     19  C   UNL     1      -2.121  -9.586  -9.469  0.00  0.00    +0.029 A 
ATOM     20  C   UNL     1      -2.694 -10.766  -9.008  0.00  0.00    +0.024 A 
ATOM     21  C   UNL     1      -3.056 -10.885  -7.683  0.00  0.00    +0.012 A 
BRANCH  19  22
ATOM     22  N   UNL     1      -1.750  -9.470 -10.810  0.00  0.00    -0.336 N 
ATOM     23  C   UNL     1      -1.146  -8.227 -11.297  0.00  0.00    +0.129 C 
ATOM     24  C   UNL     1      -1.963 -10.590 -11.729  0.00  0.00    +0.129 C 
ENDBRANCH  19  22
ENDBRANCH  12  16
ENDBRANCH   8  10
BRANCH   1  25
ATOM     25  C   UNL     1      -4.067  -4.793  -0.260  0.00  0.00    +0.088 C 
BRANCH  25  26
ATOM     26  N   UNL     1      -2.873  -3.945  -0.302  0.00  0.00    -0.328 N 
ATOM     27  H   UNL     1      -1.997  -4.346  -0.413  0.00  0.00    +0.148 HD
BRANCH  26  28
ATOM     28  C   UNL     1      -2.993  -2.607  -0.184  0.00  0.00    +0.130 C 
ATOM     29  S   UNL     1      -4.539  -1.900   0.013  0.00  0.00    -0.019 S 
BRANCH  28  30
ATOM     30  N   UNL     1      -1.895  -1.827  -0.222  0.00  0.00    -0.326 N 
ATOM     31  H   UNL     1      -1.018  -2.228  -0.334  0.00  0.00    +0.148 HD
BRANCH  30  32
ATOM     32  C   UNL     1      -2.025  -0.373  -0.095  0.00  0.00    +0.106 C 
BRANCH  32  34
ATOM     33  C   UNL     1      -0.784   1.794  -0.162  0.00  0.00    +0.009 C 
ATOM     34  C   UNL     1      -0.639   0.271  -0.170  0.00  0.00    -0.000 C 
ATOM     35  C   UNL     1       0.194  -0.168   1.036  0.00  0.00    +0.009 C 
ENDBRANCH  32  34
ENDBRANCH  30  32
ENDBRANCH  28  30
ENDBRANCH  26  28
ENDBRANCH  25  26
ENDBRANCH   1  25
TORSDOF 9
