REMARK  Name = ZINC17026643
REMARK  11 active torsions:
REMARK  status: ('A' for Active; 'I' for Inactive)
REMARK    1  A    between atoms: C_1  and  C_2
REMARK    2  A    between atoms: C_5  and  C_37
REMARK    3  A    between atoms: C_6  and  N_8
REMARK    4  A    between atoms: C_9  and  C_26
REMARK    5  A    between atoms: C_12  and  S_13
REMARK    6  A    between atoms: S_13  and  C_14
REMARK    7  A    between atoms: C_14  and  C_15
REMARK    8  A    between atoms: N_17  and  C_18
REMARK    9  A    between atoms: C_20  and  C_25
REMARK   10  A    between atoms: C_22  and  C_24
REMARK   11  A    between atoms: C_26  and  C_27
REMARK                            x       y       z     vdW  Elec       q    Type
REMARK                         _______ _______ _______ _____ _____    ______ ____
ROOT
ATOM      1  N   UNL     1      -6.547   0.989   0.303  0.00  0.00    -0.274 N 
ATOM      2  C   UNL     1      -7.168  -0.227   0.418  0.00  0.00    +0.144 A 
ATOM      3  N   UNL     1      -6.236  -1.137   0.441  0.00  0.00    -0.133 NA
ATOM      4  N   UNL     1      -5.078  -0.588   0.344  0.00  0.00    -0.122 NA
ATOM      5  C   UNL     1      -5.207   0.716   0.262  0.00  0.00    +0.197 A 
ENDROOT
BRANCH   1  11
ATOM      6  C   UNL     1      -8.505   4.619  -2.377  0.00  0.00    +0.044 C 
ATOM      7  C   UNL     1      -8.116   4.032  -1.044  0.00  0.00    -0.048 A 
ATOM      8  C   UNL     1      -8.361   4.738   0.119  0.00  0.00    +0.004 A 
ATOM      9  C   UNL     1      -8.007   4.202   1.344  0.00  0.00    +0.005 A 
ATOM     10  C   UNL     1      -7.405   2.960   1.408  0.00  0.00    -0.026 A 
ATOM     11  C   UNL     1      -7.157   2.250   0.241  0.00  0.00    +0.053 A 
ATOM     12  C   UNL     1      -7.510   2.793  -0.987  0.00  0.00    +0.030 A 
ATOM     13  C   UNL     1      -7.019   2.377   2.743  0.00  0.00    +0.046 C 
ENDBRANCH   1  11
BRANCH   5  14
ATOM     14  S   UNL     1      -3.902   1.891   0.118  0.00  0.00    -0.076 S 
BRANCH  14  15
ATOM     15  C   UNL     1      -2.474   0.779   0.133  0.00  0.00    +0.173 C 
BRANCH  15  16
ATOM     16  C   UNL     1      -1.207   1.587   0.017  0.00  0.00    +0.227 C 
ATOM     17  O   UNL     1      -1.264   2.795  -0.067  0.00  0.00    -0.275 OA
ATOM     18  N   UNL     1      -0.011   0.966   0.007  0.00  0.00    -0.285 N 
ATOM     19  H   UNL     1       0.033  -0.003   0.007  0.00  0.00    +0.155 HD
BRANCH  18  20
ATOM     20  C   UNL     1       1.168   1.719  -0.008  0.00  0.00    +0.034 A 
ATOM     21  C   UNL     1       2.289   1.271   0.677  0.00  0.00    +0.026 A 
ATOM     22  C   UNL     1       3.454   2.013   0.655  0.00  0.00    -0.048 A 
ATOM     23  C   UNL     1       3.500   3.208  -0.039  0.00  0.00    +0.006 A 
ATOM     24  C   UNL     1       2.383   3.661  -0.718  0.00  0.00    -0.048 A 
ATOM     25  C   UNL     1       1.218   2.920  -0.704  0.00  0.00    +0.026 A 
ATOM     26  C   UNL     1       2.438   4.964  -1.473  0.00  0.00    +0.044 C 
ATOM     27  C   UNL     1       4.673   1.524   1.393  0.00  0.00    +0.044 C 
ENDBRANCH  18  20
ENDBRANCH  15  16
ENDBRANCH  14  15
ENDBRANCH   5  14
BRANCH   2  28
ATOM     28  C   UNL     1      -8.653  -0.467   0.504  0.00  0.00    +0.130 C 
BRANCH  28  29
ATOM     29  C   UNL     1      -9.213  -0.647  -0.884  0.00  0.00    +0.033 A 
ATOM     30  C   UNL     1      -9.370  -1.886  -1.396  0.00  0.00    +0.091 A 
ATOM     31  C   UNL     1      -9.898  -2.030  -2.702  0.00  0.00    +0.254 A 
ATOM     32  O   UNL     1     -10.048  -3.138  -3.185  0.00  0.00    -0.268 OA
ATOM     33  N   UNL     1     -10.234  -0.930  -3.405  0.00  0.00    -0.275 N 
ATOM     34  H   UNL     1     -10.607  -1.023  -4.328  0.00  0.00    +0.173 HD
ATOM     35  C   UNL     1     -10.067   0.294  -2.869  0.00  0.00    +0.327 A 
ATOM     36  O   UNL     1     -10.374   1.277  -3.515  0.00  0.00    -0.247 OA
ATOM     37  N   UNL     1      -9.572   0.444  -1.628  0.00  0.00    -0.311 N 
ATOM     38  H   UNL     1      -9.464   1.362  -1.245  0.00  0.00    +0.170 HD
ENDBRANCH  28  29
ENDBRANCH   2  28
TORSDOF 7
