REMARK  Name = ZINC21029752
REMARK  11 active torsions:
REMARK  status: ('A' for Active; 'I' for Inactive)
REMARK    1  A    between atoms: C_1  and  C_2
REMARK    2  A    between atoms: C_2  and  C_4
REMARK    3  A    between atoms: C_2  and  N_19
REMARK    4  A    between atoms: C_4  and  N_5
REMARK    5  A    between atoms: C_8  and  N_10
REMARK    6  A    between atoms: N_10  and  C_11
REMARK    7  A    between atoms: N_19  and  C_20
REMARK    8  A    between atoms: C_22  and  C_28
REMARK    9  A    between atoms: C_22  and  C_29
REMARK   10  A    between atoms: C_24  and  C_26
REMARK   11  A    between atoms: C_24  and  C_27
REMARK                            x       y       z     vdW  Elec       q    Type
REMARK                         _______ _______ _______ _____ _____    ______ ____
ROOT
ATOM      1  C   UNL     1       0.471  -0.754  -1.943  0.00  0.00    +0.026 C 
ATOM      2  C   UNL     1      -0.161  -1.661  -0.886  0.00  0.00    +0.072 C 
ENDROOT
BRANCH   2   3
ATOM      3  N   UNL     1       0.787  -1.860   0.219  0.00  0.00    -0.309 NA
ATOM      4  H   UNL     1       1.259  -2.748   0.134  0.00  0.00    +0.123 HD
BRANCH   3   5
ATOM      5  C   UNL     1       0.111  -1.744   1.522  0.00  0.00    +0.051 C 
ATOM      6  C   UNL     1       0.102  -0.276   1.953  0.00  0.00    +0.006 C 
ATOM      7  C   UNL     1      -0.586  -0.140   3.311  0.00  0.00    -0.072 C 
ATOM      8  N   UNL     1       0.004  -1.013   4.315  0.00  0.00    +0.386 N 
ATOM      9  C   UNL     1       0.252  -2.397   3.944  0.00  0.00    -0.072 C 
ATOM     10  C   UNL     1       0.887  -2.546   2.565  0.00  0.00    +0.006 C 
ATOM     11  C   UNL     1      -1.022  -3.243   4.026  0.00  0.00    -0.010 C 
ATOM     12  C   UNL     1       1.248  -2.982   4.973  0.00  0.00    -0.010 C 
ATOM     13  C   UNL     1      -0.383   1.319   3.784  0.00  0.00    -0.010 C 
ATOM     14  C   UNL     1      -2.091  -0.363   3.166  0.00  0.00    -0.010 C 
ATOM     15  H   UNL     1       0.888  -0.599   4.621  0.00  0.00    -0.084 HD
ATOM     16  H   UNL     1      -0.598  -1.004   5.142  0.00  0.00    -0.084 HD
ENDBRANCH   3   5
ENDBRANCH   2   3
BRANCH   2  17
ATOM     17  C   UNL     1      -0.504  -3.014  -1.513  0.00  0.00    +0.162 C 
BRANCH  17  18
ATOM     18  N   UNL     1      -0.999  -3.922  -0.476  0.00  0.00    -0.258 NA
ATOM     19  C   UNL     1      -2.229  -4.345  -0.514  0.00  0.00    +0.193 C 
ATOM     20  N   UNL     1      -3.100  -5.165   0.212  0.00  0.00    -0.198 NA
ATOM     21  C   UNL     1      -4.362  -5.282  -0.286  0.00  0.00    +0.188 C 
ATOM     22  S   UNL     1      -3.691  -4.181  -1.512  0.00  0.00    -0.013 S 
BRANCH  21  23
ATOM     23  N   UNL     1      -5.535  -5.913   0.006  0.00  0.00    -0.190 NA
BRANCH  23  24
ATOM     24  C   UNL     1      -6.579  -5.915  -0.926  0.00  0.00    +0.057 A 
ATOM     25  C   UNL     1      -6.314  -5.673  -2.268  0.00  0.00    +0.028 A 
ATOM     26  C   UNL     1      -7.345  -5.677  -3.186  0.00  0.00    +0.042 A 
ATOM     27  C   UNL     1      -8.643  -5.921  -2.771  0.00  0.00    +0.142 A 
ATOM     28  C   UNL     1      -8.911  -6.163  -1.433  0.00  0.00    +0.078 A 
ATOM     29  C   UNL     1      -7.880  -6.166  -0.511  0.00  0.00    +0.048 A 
ATOM     30 CL   UNL     1     -10.539  -6.469  -0.915  0.00  0.00    -0.081 Cl
ATOM     31  F   UNL     1      -9.650  -5.924  -3.671  0.00  0.00    -0.204 F 
ENDBRANCH  23  24
ENDBRANCH  21  23
ENDBRANCH  17  18
ENDBRANCH   2  17
TORSDOF 6
