REMARK  Name = ZINC36160210
REMARK  13 active torsions:
REMARK  status: ('A' for Active; 'I' for Inactive)
REMARK    1  A    between atoms: C_1  and  C_2
REMARK    2  A    between atoms: C_2  and  C_3
REMARK    3  A    between atoms: C_2  and  O_4
REMARK    4  A    between atoms: O_4  and  C_5
REMARK    5  A    between atoms: C_5  and  C_6
REMARK    6  A    between atoms: C_6  and  C_8
REMARK    7  A    between atoms: C_6  and  O_31
REMARK    8  A    between atoms: C_8  and  N_9
REMARK    9  A    between atoms: N_9  and  C_10
REMARK   10  A    between atoms: C_10  and  C_12
REMARK   11  A    between atoms: C_10  and  C_19
REMARK   12  A    between atoms: C_12  and  C_13
REMARK   13  A    between atoms: C_21  and  C_24
REMARK                            x       y       z     vdW  Elec       q    Type
REMARK                         _______ _______ _______ _____ _____    ______ ____
ROOT
ATOM      1  C   UNL     1      -5.786  -1.710  -3.844  0.00  0.00    +0.023 C 
ENDROOT
BRANCH   1   2
ATOM      2  C   UNL     1      -7.149  -2.320  -3.642  0.00  0.00    +0.214 A 
ATOM      3  N   UNL     1      -7.725  -3.177  -4.436  0.00  0.00    -0.193 NA
ATOM      4  C   UNL     1      -8.935  -3.511  -3.953  0.00  0.00    +0.202 A 
ATOM      5  N   UNL     1      -9.134  -2.859  -2.834  0.00  0.00    -0.056 NA
ATOM      6  O   UNL     1      -7.971  -2.076  -2.612  0.00  0.00    -0.339 OA
BRANCH   4   7
ATOM      7  C   UNL     1      -9.886  -4.462  -4.582  0.00  0.00    +0.023 A 
ATOM      8  C   UNL     1      -9.551  -5.098  -5.775  0.00  0.00    +0.013 A 
ATOM      9  C   UNL     1     -10.438  -5.981  -6.356  0.00  0.00    +0.016 A 
ATOM     10  C   UNL     1     -11.660  -6.233  -5.756  0.00  0.00    +0.018 A 
ATOM     11  C   UNL     1     -11.997  -5.603  -4.571  0.00  0.00    +0.016 A 
ATOM     12  C   UNL     1     -11.114  -4.724  -3.978  0.00  0.00    +0.013 A 
ATOM     13 BR   UNL     1     -12.872  -7.443  -6.558  0.00  0.00    -0.050 Br
ENDBRANCH   4   7
ENDBRANCH   1   2
BRANCH   1  14
ATOM     14  N   UNL     1      -5.041  -1.746  -2.578  0.00  0.00    +0.389 N 
ATOM     15  H   UNL     1      -5.019  -2.692  -2.228  0.00  0.00    -0.085 HD
ATOM     16  H   UNL     1      -5.494  -1.148  -1.904  0.00  0.00    -0.085 HD
BRANCH  14  17
ATOM     17  C   UNL     1      -3.667  -1.277  -2.805  0.00  0.00    -0.048 C 
BRANCH  17  18
ATOM     18  C   UNL     1      -2.855  -1.437  -1.518  0.00  0.00    +0.123 C 
BRANCH  18  19
ATOM     19  O   UNL     1      -2.732  -2.825  -1.202  0.00  0.00    -0.391 OA
ATOM     20  H   UNL     1      -2.290  -3.347  -1.886  0.00  0.00    +0.210 HD
ENDBRANCH  18  19
BRANCH  18  21
ATOM     21  C   UNL     1      -1.463  -0.834  -1.716  0.00  0.00    +0.189 C 
BRANCH  21  22
ATOM     22  O   UNL     1      -0.744  -0.879  -0.482  0.00  0.00    -0.375 OA
BRANCH  22  24
ATOM     23  C   UNL     1       0.532   1.159  -0.238  0.00  0.00    +0.037 C 
ATOM     24  C   UNL     1       0.576  -0.337  -0.557  0.00  0.00    +0.112 C 
ATOM     25  C   UNL     1       1.478  -1.048   0.453  0.00  0.00    +0.037 C 
ENDBRANCH  22  24
ENDBRANCH  21  22
ENDBRANCH  18  21
ENDBRANCH  17  18
ENDBRANCH  14  17
ENDBRANCH   1  14
BRANCH   1  26
ATOM     26  C   UNL     1      -5.939  -0.259  -4.304  0.00  0.00    +0.029 C 
BRANCH  26  27
ATOM     27  C   UNL     1      -6.602  -0.228  -5.657  0.00  0.00    -0.048 A 
ATOM     28  C   UNL     1      -5.843  -0.389  -6.801  0.00  0.00    +0.003 A 
ATOM     29  C   UNL     1      -6.451  -0.360  -8.043  0.00  0.00    +0.000 A 
ATOM     30  C   UNL     1      -7.817  -0.173  -8.139  0.00  0.00    +0.000 A 
ATOM     31  C   UNL     1      -8.576  -0.013  -6.995  0.00  0.00    +0.000 A 
ATOM     32  C   UNL     1      -7.969  -0.046  -5.753  0.00  0.00    +0.003 A 
ENDBRANCH  26  27
ENDBRANCH   1  26
TORSDOF 11
