REMARK  Name = ZINC12035207
REMARK  10 active torsions:
REMARK  status: ('A' for Active; 'I' for Inactive)
REMARK    1  A    between atoms: C_1  and  C_2
REMARK    2  A    between atoms: C_7  and  C_19
REMARK    3  A    between atoms: C_15  and  O_18
REMARK    4  A    between atoms: C_19  and  N_20
REMARK    5  A    between atoms: N_20  and  C_21
REMARK    6  A    between atoms: C_21  and  C_22
REMARK    7  A    between atoms: C_22  and  C_23
REMARK    8  A    between atoms: C_23  and  N_24
REMARK    9  A    between atoms: C_30  and  C_32
REMARK   10  A    between atoms: C_32  and  C_33
REMARK                            x       y       z     vdW  Elec       q    Type
REMARK                         _______ _______ _______ _____ _____    ______ ____
ROOT
ATOM      1  C   UNL     1       3.962  -3.536   0.127  0.00  0.00    +0.044 C 
ATOM      2  C   UNL     1       3.322  -2.196   0.388  0.00  0.00    -0.048 A 
ATOM      3  C   UNL     1       3.078  -1.797   1.700  0.00  0.00    +0.004 A 
ATOM      4  C   UNL     1       2.502  -0.592   1.967  0.00  0.00    +0.010 A 
ATOM      5  C   UNL     1       2.149   0.259   0.908  0.00  0.00    -0.001 A 
ATOM      6  C   UNL     1       1.550   1.513   1.146  0.00  0.00    +0.018 A 
ATOM      7  C   UNL     1       1.231   2.290   0.073  0.00  0.00    +0.008 A 
ATOM      8  C   UNL     1       1.501   1.833  -1.225  0.00  0.00    +0.104 A 
ATOM      9  C   UNL     1       2.396  -0.145  -0.426  0.00  0.00    +0.048 A 
ATOM     10  C   UNL     1       2.993  -1.395  -0.663  0.00  0.00    +0.029 A 
ATOM     11  N   UNL     1       1.176   2.638  -2.307  0.00  0.00    -0.314 N 
ATOM     12  C   UNL     1       0.699   1.831  -3.438  0.00  0.00    +0.106 C 
ATOM     13  C   UNL     1       0.214   2.756  -4.557  0.00  0.00    +0.021 C 
ATOM     14  C   UNL     1       1.367   3.660  -5.001  0.00  0.00    +0.034 C 
ATOM     15  C   UNL     1       1.878   4.453  -3.795  0.00  0.00    +0.132 C 
ATOM     16  C   UNL     1       2.314   3.479  -2.698  0.00  0.00    +0.137 C 
ATOM     17  N   UNL     1       2.075   0.638  -1.513  0.00  0.00    -0.343 N 
ATOM     18  H   UNL     1       2.257   0.338  -2.477  0.00  0.00    +0.167 HD
ENDROOT
BRANCH  15  19
ATOM     19  O   UNL     1       2.990   5.258  -4.189  0.00  0.00    -0.390 OA
ATOM     20  H   UNL     1       2.768   5.952  -4.825  0.00  0.00    +0.210 HD
ENDBRANCH  15  19
BRANCH   7  21
ATOM     21  C   UNL     1       0.589   3.637   0.281  0.00  0.00    +0.146 C 
BRANCH  21  22
ATOM     22  N   UNL     1       0.300   3.826   1.705  0.00  0.00    -0.297 N 
ATOM     23  C   UNL     1       1.258   4.291   2.531  0.00  0.00    +0.216 C 
ATOM     24  O   UNL     1       2.360   4.553   2.096  0.00  0.00    -0.276 OA
BRANCH  22  25
ATOM     25  C   UNL     1      -1.030   3.509   2.231  0.00  0.00    +0.109 C 
BRANCH  25  26
ATOM     26  C   UNL     1      -1.049   2.064   2.733  0.00  0.00    +0.038 C 
BRANCH  26  27
ATOM     27  C   UNL     1      -2.444   1.727   3.264  0.00  0.00    +0.109 C 
BRANCH  27  28
ATOM     28  N   UNL     1      -2.433   0.384   3.848  0.00  0.00    -0.301 N 
ATOM     29  C   UNL     1      -2.728  -0.846   3.102  0.00  0.00    +0.108 C 
ATOM     30  C   UNL     1      -2.176  -1.997   3.974  0.00  0.00    +0.028 C 
ATOM     31  C   UNL     1      -2.227  -1.371   5.387  0.00  0.00    +0.097 C 
ATOM     32  C   UNL     1      -2.157   0.119   5.136  0.00  0.00    +0.216 C 
ATOM     33  O   UNL     1      -1.890   0.953   5.975  0.00  0.00    -0.276 OA
ENDBRANCH  27  28
ENDBRANCH  26  27
ENDBRANCH  25  26
ENDBRANCH  22  25
BRANCH  23  34
ATOM     34  C   UNL     1       0.961   4.485   3.996  0.00  0.00    +0.099 C 
BRANCH  34  35
ATOM     35  C   UNL     1       2.209   5.018   4.703  0.00  0.00    -0.002 C 
ATOM     36  C   UNL     1       3.315   3.943   4.704  0.00  0.00    +0.004 C 
ATOM     37  C   UNL     1       4.002   4.108   6.083  0.00  0.00    +0.000 C 
ATOM     38  C   UNL     1       2.812   4.422   7.024  0.00  0.00    +0.000 C 
ATOM     39  C   UNL     1       1.889   5.323   6.177  0.00  0.00    +0.004 C 
ENDBRANCH  34  35
ENDBRANCH  23  34
ENDBRANCH  21  22
ENDBRANCH   7  21
TORSDOF 9
