REMARK  Name = ZINC02256270
REMARK  14 active torsions:
REMARK  status: ('A' for Active; 'I' for Inactive)
REMARK    1  A    between atoms: C_1  and  C_2
REMARK    2  A    between atoms: C_2  and  O_3
REMARK    3  A    between atoms: O_3  and  C_4
REMARK    4  A    between atoms: C_4  and  C_6
REMARK    5  A    between atoms: C_7  and  N_20
REMARK    6  A    between atoms: C_10  and  O_18
REMARK    7  A    between atoms: C_11  and  O_16
REMARK    8  A    between atoms: O_16  and  C_17
REMARK    9  A    between atoms: O_18  and  C_19
REMARK   10  A    between atoms: C_21  and  C_23
REMARK   11  A    between atoms: C_23  and  C_24
REMARK   12  A    between atoms: C_24  and  N_64
REMARK   13  A    between atoms: C_26  and  C_33
REMARK   14  A    between atoms: C_29  and  C_32
REMARK                            x       y       z     vdW  Elec       q    Type
REMARK                         _______ _______ _______ _____ _____    ______ ____
ROOT
ATOM      1  C   UNL     1       1.103  -6.758  -3.218  0.00  0.00    +0.147 A 
ATOM      2  C   UNL     1       1.990  -5.924  -3.868  0.00  0.00    +0.073 A 
ATOM      3  C   UNL     1       2.990  -6.785  -4.500  0.00  0.00    +0.025 A 
ATOM      4  C   UNL     1       4.126  -6.527  -5.278  0.00  0.00    +0.061 A 
ATOM      5  C   UNL     1       4.894  -7.576  -5.734  0.00  0.00    +0.162 A 
ATOM      6  C   UNL     1       4.545  -8.893  -5.418  0.00  0.00    +0.163 A 
ATOM      7  C   UNL     1       3.429  -9.158  -4.649  0.00  0.00    +0.075 A 
ATOM      8  C   UNL     1       2.642  -8.110  -4.179  0.00  0.00    +0.053 A 
ATOM      9  N   UNL     1       1.501  -8.075  -3.409  0.00  0.00    -0.347 N 
ATOM     10  H   UNL     1       1.044  -8.852  -3.053  0.00  0.00    +0.166 HD
ENDROOT
BRANCH   2  11
ATOM     11  N   UNL     1       1.939  -4.534  -3.917  0.00  0.00    -0.283 N 
ATOM     12  C   UNL     1       2.942  -3.804  -3.389  0.00  0.00    +0.215 C 
ATOM     13  O   UNL     1       3.829  -4.352  -2.768  0.00  0.00    -0.276 OA
ATOM     14  H   UNL     1       1.183  -4.091  -4.331  0.00  0.00    +0.155 HD
BRANCH  12  15
ATOM     15  C   UNL     1       2.961  -2.308  -3.569  0.00  0.00    +0.077 C 
BRANCH  15  16
ATOM     16  C   UNL     1       4.195  -1.727  -2.877  0.00  0.00    -0.070 C 
BRANCH  16  24
ATOM     17  C   UNL     1       5.495   0.298  -2.613  0.00  0.00    -0.076 C 
ATOM     18  C   UNL     1       5.426   1.826  -2.673  0.00  0.00    -0.031 C 
ATOM     19  C   UNL     1       5.119   2.262  -4.108  0.00  0.00    +0.003 C 
ATOM     20  C   UNL     1       3.805   1.619  -4.559  0.00  0.00    -0.031 C 
ATOM     21  C   UNL     1       3.921   0.098  -4.444  0.00  0.00    -0.076 C 
ATOM     22  C   UNL     1       3.521   2.002  -6.013  0.00  0.00    +0.005 C 
ATOM     23  C   UNL     1       6.768   2.416  -2.235  0.00  0.00    +0.005 C 
ATOM     24  N   UNL     1       4.192  -0.258  -3.035  0.00  0.00    +0.380 N 
ATOM     25  H   UNL     1       3.453   0.139  -2.444  0.00  0.00    -0.082 HD
ENDBRANCH  16  24
ENDBRANCH  15  16
ENDBRANCH  12  15
ENDBRANCH   2  11
BRANCH   1  26
ATOM     26  C   UNL     1      -0.030  -6.340  -2.477  0.00  0.00    +0.358 C 
ATOM     27  O   UNL     1      -0.206  -5.157  -2.250  0.00  0.00    -0.243 OA
BRANCH  26  28
ATOM     28  O   UNL     1      -0.914  -7.253  -2.022  0.00  0.00    -0.460 OA
BRANCH  28  30
ATOM     29  C   UNL     1      -2.917  -7.933  -0.854  0.00  0.00    +0.048 C 
ATOM     30  C   UNL     1      -2.033  -6.760  -1.283  0.00  0.00    +0.229 C 
ENDBRANCH  28  30
ENDBRANCH  26  28
ENDBRANCH   1  26
BRANCH   6  31
ATOM     31  O   UNL     1       5.309  -9.920  -5.874  0.00  0.00    -0.491 OA
ATOM     32  C   UNL     1       4.899 -11.242  -5.518  0.00  0.00    +0.277 C 
ENDBRANCH   6  31
BRANCH   5  33
ATOM     33  O   UNL     1       5.995  -7.330  -6.494  0.00  0.00    -0.491 OA
ATOM     34  C   UNL     1       6.294  -5.962  -6.778  0.00  0.00    +0.277 C 
ENDBRANCH   5  33
TORSDOF 9
