REMARK  Name = ZINC42171679
REMARK  4 active torsions:
REMARK  status: ('A' for Active; 'I' for Inactive)
REMARK    1  A    between atoms: C_1  and  C_2
REMARK    2  A    between atoms: N_10  and  C_13
REMARK    3  A    between atoms: C_13  and  C_14
REMARK    4  A    between atoms: C_14  and  C_16
REMARK                            x       y       z     vdW  Elec       q    Type
REMARK                         _______ _______ _______ _____ _____    ______ ____
ROOT
ATOM      1  C   UNL     1      -1.327  -5.363   3.928  0.00  0.00    +0.186 C 
ATOM      2  O   UNL     1      -2.259  -4.926   3.284  0.00  0.00    -0.290 OA
ENDROOT
BRANCH   1   3
ATOM      3  C   UNL     1      -1.579  -6.188   5.114  0.00  0.00    +0.055 A 
ATOM      4  C   UNL     1      -0.505  -6.690   5.862  0.00  0.00    +0.019 A 
ATOM      5  C   UNL     1      -0.740  -7.457   6.966  0.00  0.00    -0.025 A 
ATOM      6  C   UNL     1      -2.047  -7.747   7.356  0.00  0.00    +0.039 A 
ATOM      7  C   UNL     1      -3.121  -7.255   6.622  0.00  0.00    +0.062 A 
ATOM      8  C   UNL     1      -2.895  -6.474   5.507  0.00  0.00    +0.136 A 
ATOM      9  F   UNL     1      -3.936  -5.991   4.795  0.00  0.00    -0.205 F 
ATOM     10  N   UNL     1      -2.277  -8.532   8.483  0.00  0.00    -0.285 N 
ATOM     11  C   UNL     1      -1.312  -8.705   9.404  0.00  0.00    +0.218 C 
ATOM     12  O   UNL     1      -1.527  -9.403  10.373  0.00  0.00    -0.275 OA
ATOM     13  C   UNL     1       0.031  -8.045   9.248  0.00  0.00    +0.101 C 
ATOM     14  C   UNL     1       0.416  -7.996   7.769  0.00  0.00    +0.046 C 
ATOM     15  H   UNL     1      -3.140  -8.957   8.605  0.00  0.00    +0.155 HD
ENDBRANCH   1   3
BRANCH   1  16
ATOM     16  C   UNL     1       0.087  -5.058   3.508  0.00  0.00    +0.205 C 
BRANCH  16  26
ATOM     17  C   UNL     1      -0.018   1.503   0.010  0.00  0.00    +0.044 C 
ATOM     18  C   UNL     1       0.002  -0.004   0.002  0.00  0.00    -0.050 A 
ATOM     19  C   UNL     1       0.006  -0.686  -1.208  0.00  0.00    +0.005 A 
ATOM     20  C   UNL     1       0.024  -2.062  -1.242  0.00  0.00    +0.029 A 
ATOM     21  C   UNL     1       0.040  -2.783  -0.046  0.00  0.00    +0.078 A 
ATOM     22  C   UNL     1       0.037  -2.087   1.182  0.00  0.00    +0.065 A 
ATOM     23  C   UNL     1       0.023  -0.693   1.195  0.00  0.00    +0.018 A 
ATOM     24  C   UNL     1       0.053  -2.875   2.423  0.00  0.00    +0.262 A 
ATOM     25  O   UNL     1       0.051  -2.337   3.515  0.00  0.00    -0.267 OA
ATOM     26  N   UNL     1       0.071  -4.223   2.304  0.00  0.00    -0.291 N 
ATOM     27  C   UNL     1       0.073  -4.810   1.079  0.00  0.00    +0.203 A 
ATOM     28  N   UNL     1       0.058  -4.140  -0.034  0.00  0.00    -0.237 NA
ENDBRANCH  16  26
ENDBRANCH   1  16
TORSDOF 3
