REMARK  Name = ZINC12283075
REMARK  7 active torsions:
REMARK  status: ('A' for Active; 'I' for Inactive)
REMARK    1  A    between atoms: C_1  and  C_2
REMARK    2  A    between atoms: C_2  and  C_4
REMARK    3  A    between atoms: C_2  and  N_14
REMARK    4  A    between atoms: C_15  and  C_17
REMARK    5  A    between atoms: C_20  and  C_25
REMARK    6  A    between atoms: C_25  and  N_64
REMARK    7  A    between atoms: C_28  and  C_31
REMARK                            x       y       z     vdW  Elec       q    Type
REMARK                         _______ _______ _______ _____ _____    ______ ____
ROOT
ATOM      1  C   UNL     1      -2.059   2.443   3.506  0.00  0.00    +0.101 A 
ATOM      2  C   UNL     1      -1.992   1.074   3.254  0.00  0.00    +0.020 A 
ATOM      3  C   UNL     1      -1.359   0.632   2.092  0.00  0.00    +0.020 A 
ATOM      4  C   UNL     1      -0.819   1.528   1.227  0.00  0.00    +0.003 A 
ATOM      5  N   UNL     1      -0.875   2.859   1.468  0.00  0.00    -0.327 N 
ATOM      6  H   UNL     1      -0.478   3.476   0.835  0.00  0.00    +0.169 HD
ATOM      7  C   UNL     1      -1.479   3.340   2.572  0.00  0.00    +0.261 A 
ATOM      8  O   UNL     1      -1.524   4.542   2.769  0.00  0.00    -0.267 OA
ENDROOT
BRANCH   1  10
ATOM      9  N   UNL     1      -2.667   4.263   5.016  0.00  0.00    -0.305 N 
ATOM     10  C   UNL     1      -2.717   2.949   4.720  0.00  0.00    +0.250 C 
ATOM     11  O   UNL     1      -3.307   2.182   5.457  0.00  0.00    -0.270 OA
ATOM     12  H   UNL     1      -2.263   4.886   4.391  0.00  0.00    +0.150 HD
BRANCH   9  14
ATOM     13  C   UNL     1      -2.142   4.721   7.360  0.00  0.00    +0.033 C 
ATOM     14  C   UNL     1      -3.225   4.751   6.279  0.00  0.00    +0.101 C 
BRANCH  14  15
ATOM     15  C   UNL     1      -3.716   6.165   6.099  0.00  0.00    -0.020 A 
ATOM     16  C   UNL     1      -3.165   6.964   5.145  0.00  0.00    +0.006 A 
ATOM     17  C   UNL     1      -3.606   8.273   4.964  0.00  0.00    +0.001 A 
ATOM     18  C   UNL     1      -4.601   8.791   5.736  0.00  0.00    +0.008 A 
ATOM     19  C   UNL     1      -5.193   7.996   6.731  0.00  0.00    -0.018 A 
ATOM     20  C   UNL     1      -4.748   6.663   6.912  0.00  0.00    -0.013 A 
ATOM     21  C   UNL     1      -5.345   5.866   7.904  0.00  0.00    +0.009 A 
ATOM     22  C   UNL     1      -6.343   6.381   8.672  0.00  0.00    +0.001 A 
ATOM     23  C   UNL     1      -6.784   7.691   8.491  0.00  0.00    +0.001 A 
ATOM     24  C   UNL     1      -6.223   8.496   7.548  0.00  0.00    +0.008 A 
ENDBRANCH  14  15
ENDBRANCH   9  14
ENDBRANCH   1  10
BRANCH   4  25
ATOM     25  C   UNL     1      -0.139   1.031  -0.023  0.00  0.00    -0.024 C 
BRANCH  25  31
ATOM     26  C   UNL     1      -0.136   1.223  -2.439  0.00  0.00    -0.073 C 
ATOM     27  C   UNL     1      -1.077   1.410  -3.631  0.00  0.00    +0.017 C 
ATOM     28  C   UNL     1      -1.808   2.718  -3.499  0.00  0.00    -0.048 C 
ATOM     29  C   UNL     1      -1.875   3.382  -2.366  0.00  0.00    -0.041 C 
ATOM     30  C   UNL     1      -1.224   2.908  -1.099  0.00  0.00    -0.050 C 
ATOM     31  N   UNL     1      -0.911   1.471  -1.206  0.00  0.00    +0.386 N 
ATOM     32  H   UNL     1      -1.789   0.939  -1.250  0.00  0.00    -0.081 HD
BRANCH  28  33
ATOM     33  C   UNL     1      -2.479   3.278  -4.691  0.00  0.00    -0.022 A 
ATOM     34  C   UNL     1      -3.552   2.603  -5.272  0.00  0.00    +0.011 A 
ATOM     35  C   UNL     1      -4.178   3.134  -6.381  0.00  0.00    +0.039 A 
ATOM     36  C   UNL     1      -3.735   4.329  -6.924  0.00  0.00    +0.123 A 
ATOM     37  C   UNL     1      -2.666   5.001  -6.354  0.00  0.00    +0.039 A 
ATOM     38  C   UNL     1      -2.037   4.482  -5.241  0.00  0.00    +0.011 A 
ATOM     39  F   UNL     1      -4.348   4.842  -8.013  0.00  0.00    -0.205 F 
ENDBRANCH  28  33
ENDBRANCH  25  31
ENDBRANCH   4  25
TORSDOF 6
