REMARK  Name = ZINC66208400
REMARK  8 active torsions:
REMARK  status: ('A' for Active; 'I' for Inactive)
REMARK    1  A    between atoms: C_1  and  C_2
REMARK    2  A    between atoms: C_2  and  C_3
REMARK    3  A    between atoms: C_3  and  C_4
REMARK    4  A    between atoms: N_6  and  C_7
REMARK    5  A    between atoms: C_10  and  N_13
REMARK    6  A    between atoms: C_14  and  C_16
REMARK    7  A    between atoms: C_16  and  N_17
REMARK    8  A    between atoms: N_17  and  C_18
REMARK                            x       y       z     vdW  Elec       q    Type
REMARK                         _______ _______ _______ _____ _____    ______ ____
ROOT
ATOM      1  N   UNL     1      -2.274  -8.283   0.338  0.00  0.00    -0.284 N 
ATOM      2  C   UNL     1      -3.165  -9.046  -0.326  0.00  0.00    +0.234 C 
ATOM      3  O   UNL     1      -4.085  -8.525  -0.921  0.00  0.00    -0.274 OA
ATOM      4  H   UNL     1      -1.578  -8.701   0.869  0.00  0.00    +0.155 HD
ENDROOT
BRANCH   1   8
ATOM      5  C   UNL     1      -2.511  -4.126   0.113  0.00  0.00    +0.033 A 
ATOM      6  C   UNL     1      -1.271  -4.748   0.190  0.00  0.00    +0.025 A 
ATOM      7  C   UNL     1      -1.193  -6.124   0.265  0.00  0.00    +0.025 A 
ATOM      8  C   UNL     1      -2.353  -6.887   0.263  0.00  0.00    +0.034 A 
ATOM      9  C   UNL     1      -3.593  -6.265   0.186  0.00  0.00    +0.025 A 
ATOM     10  C   UNL     1      -3.671  -4.889   0.117  0.00  0.00    +0.025 A 
BRANCH   5  13
ATOM     11  C   UNL     1      -3.602  -2.079   0.644  0.00  0.00    +0.217 C 
ATOM     12  O   UNL     1      -4.489  -2.705   1.185  0.00  0.00    -0.275 OA
ATOM     13  N   UNL     1      -2.590  -2.730   0.038  0.00  0.00    -0.285 N 
ATOM     14  H   UNL     1      -1.917  -2.232  -0.452  0.00  0.00    +0.155 HD
BRANCH  11  15
ATOM     15  C   UNL     1      -3.632  -0.572   0.652  0.00  0.00    +0.096 C 
BRANCH  15  17
ATOM     16  C   UNL     1      -4.906   1.440   1.407  0.00  0.00    +0.004 C 
ATOM     17  C   UNL     1      -4.876  -0.090   1.400  0.00  0.00    +0.006 C 
ENDBRANCH  15  17
ENDBRANCH  11  15
ENDBRANCH   5  13
ENDBRANCH   1   8
BRANCH   2  18
ATOM     18  C   UNL     1      -3.018 -10.546  -0.330  0.00  0.00    +0.198 C 
BRANCH  18  19
ATOM     19  N   UNL     1      -4.102 -11.140  -1.116  0.00  0.00    -0.335 N 
ATOM     20  H   UNL     1      -4.768 -10.571  -1.532  0.00  0.00    +0.147 HD
BRANCH  19  21
ATOM     21  C   UNL     1      -4.177 -12.527  -1.265  0.00  0.00    +0.028 A 
ATOM     22  C   UNL     1      -3.228 -13.344  -0.664  0.00  0.00    +0.024 A 
ATOM     23  C   UNL     1      -3.305 -14.715  -0.813  0.00  0.00    +0.016 A 
ATOM     24  C   UNL     1      -4.326 -15.275  -1.560  0.00  0.00    +0.013 A 
ATOM     25  C   UNL     1      -5.272 -14.464  -2.159  0.00  0.00    +0.016 A 
ATOM     26  C   UNL     1      -5.205 -13.093  -2.009  0.00  0.00    +0.024 A 
ATOM     27  I   UNL     1      -4.438 -17.355  -1.784  0.00  0.00    -0.044 I 
ENDBRANCH  19  21
ENDBRANCH  18  19
ENDBRANCH   2  18
TORSDOF 7
