REMARK  Name = ZINC33575086
REMARK  11 active torsions:
REMARK  status: ('A' for Active; 'I' for Inactive)
REMARK    1  A    between atoms: C_1  and  C_2
REMARK    2  A    between atoms: C_3  and  O_40
REMARK    3  A    between atoms: C_6  and  C_10
REMARK    4  A    between atoms: C_7  and  O_8
REMARK    5  A    between atoms: O_8  and  C_9
REMARK    6  A    between atoms: N_18  and  C_21
REMARK    7  A    between atoms: C_21  and  C_22
REMARK    8  A    between atoms: C_28  and  C_30
REMARK    9  A    between atoms: C_28  and  C_37
REMARK   10  A    between atoms: C_30  and  C_31
REMARK   11  A    between atoms: O_40  and  C_41
REMARK                            x       y       z     vdW  Elec       q    Type
REMARK                         _______ _______ _______ _____ _____    ______ ____
ROOT
ATOM      1  C   UNL     1       0.779  -2.813   1.933  0.00  0.00    -0.023 C 
ATOM      2  C   UNL     1      -0.694  -2.540   2.219  0.00  0.00    +0.077 C 
ATOM      3  C   UNL     1      -0.875  -3.617   3.356  0.00  0.00    +0.086 C 
ATOM      4  C   UNL     1      -2.095  -3.179   3.991  0.00  0.00    +0.225 C 
ATOM      5  O   UNL     1      -2.951  -3.870   4.500  0.00  0.00    -0.275 OA
ATOM      6  N   UNL     1      -2.075  -1.810   3.893  0.00  0.00    -0.237 N 
ATOM      7  C   UNL     1      -1.119  -1.345   3.013  0.00  0.00    +0.225 C 
ATOM      8  O   UNL     1      -0.701  -0.212   2.905  0.00  0.00    -0.275 OA
ATOM      9  C   UNL     1      -0.278  -4.827   2.779  0.00  0.00    +0.048 C 
ATOM     10  N   UNL     1       0.856  -4.310   1.924  0.00  0.00    +0.396 N 
ATOM     11  H   UNL     1       0.747  -4.653   0.981  0.00  0.00    -0.083 HD
ATOM     12  H   UNL     1       1.744  -4.610   2.298  0.00  0.00    -0.083 HD
ENDROOT
BRANCH   1  18
ATOM     13  C   UNL     1       4.318  -1.718  -1.445  0.00  0.00    +0.051 C 
ATOM     14  C   UNL     1       2.870  -1.727  -1.026  0.00  0.00    +0.033 A 
ATOM     15  C   UNL     1       1.899  -1.217  -1.874  0.00  0.00    +0.126 A 
ATOM     16  C   UNL     1       0.567  -1.226  -1.486  0.00  0.00    +0.046 A 
ATOM     17  C   UNL     1       0.208  -1.742  -0.255  0.00  0.00    +0.009 A 
ATOM     18  C   UNL     1       1.174  -2.251   0.592  0.00  0.00    -0.018 A 
ATOM     19  C   UNL     1       2.507  -2.250   0.205  0.00  0.00    +0.128 A 
BRANCH  19  20
ATOM     20  O   UNL     1       3.456  -2.756   1.036  0.00  0.00    -0.495 OA
ATOM     21  C   UNL     1       3.997  -1.871   2.018  0.00  0.00    +0.277 C 
ENDBRANCH  19  20
BRANCH  15  22
ATOM     22  O   UNL     1       2.251  -0.708  -3.083  0.00  0.00    -0.495 OA
ATOM     23  C   UNL     1       1.198  -0.199  -3.905  0.00  0.00    +0.277 C 
ENDBRANCH  15  22
ENDBRANCH   1  18
BRANCH   9  24
ATOM     24  C   UNL     1      -1.294  -5.572   1.952  0.00  0.00    +0.346 C 
ATOM     25  O   UNL     1      -1.126  -5.704   0.752  0.00  0.00    -0.248 OA
ATOM     26  O   UNL     1      -2.285  -6.043   2.484  0.00  0.00    -0.248 OA
ENDBRANCH   9  24
BRANCH   6  27
ATOM     27  C   UNL     1      -2.982  -0.930   4.634  0.00  0.00    +0.151 C 
BRANCH  27  28
ATOM     28  C   UNL     1      -2.359  -0.566   5.957  0.00  0.00    -0.030 A 
ATOM     29  C   UNL     1      -2.583  -1.358   7.068  0.00  0.00    +0.005 A 
ATOM     30  C   UNL     1      -2.012  -1.024   8.281  0.00  0.00    +0.000 A 
ATOM     31  C   UNL     1      -1.216   0.101   8.384  0.00  0.00    +0.000 A 
ATOM     32  C   UNL     1      -0.991   0.893   7.274  0.00  0.00    +0.000 A 
ATOM     33  C   UNL     1      -1.559   0.556   6.059  0.00  0.00    +0.005 A 
ENDBRANCH  27  28
ENDBRANCH   6  27
BRANCH   9  34
ATOM     34  C   UNL     1       0.276  -5.728   3.884  0.00  0.00    +0.003 C 
BRANCH  34  35
ATOM     35  C   UNL     1       1.050  -6.889   3.256  0.00  0.00    -0.012 C 
ATOM     36  C   UNL     1       0.071  -7.840   2.566  0.00  0.00    +0.003 C 
ATOM     37  C   UNL     1       0.845  -9.002   1.938  0.00  0.00    +0.000 C 
ATOM     38  C   UNL     1       1.605  -9.757   3.030  0.00  0.00    +0.000 C 
ATOM     39  C   UNL     1       2.585  -8.805   3.720  0.00  0.00    +0.000 C 
ATOM     40  C   UNL     1       1.811  -7.644   4.348  0.00  0.00    +0.003 C 
ENDBRANCH  34  35
ENDBRANCH   9  34
TORSDOF 8
