REMARK  Name = ZINC01196906
REMARK  8 active torsions:
REMARK  status: ('A' for Active; 'I' for Inactive)
REMARK    1  A    between atoms: C_1  and  C_2
REMARK    2  A    between atoms: C_2  and  C_26
REMARK    3  A    between atoms: C_9  and  N_23
REMARK    4  A    between atoms: C_11  and  S_13
REMARK    5  A    between atoms: S_13  and  C_14
REMARK    6  A    between atoms: C_14  and  C_15
REMARK    7  A    between atoms: C_18  and  O_21
REMARK    8  A    between atoms: O_21  and  C_22
REMARK                            x       y       z     vdW  Elec       q    Type
REMARK                         _______ _______ _______ _____ _____    ______ ____
ROOT
ATOM      1  C   UNL     1      -9.868   3.382   0.105  0.00  0.00    +0.041 C 
ATOM      2  C   UNL     1      -9.480   4.841  -0.138  0.00  0.00    +0.068 C 
ATOM      3  C   UNL     1      -7.973   4.930  -0.392  0.00  0.00    +0.071 C 
ATOM      4  C   UNL     1      -7.253   4.627   0.920  0.00  0.00    -0.020 A 
ATOM      5  C   UNL     1      -7.932   4.699   2.084  0.00  0.00    +0.021 A 
ATOM      6  S   UNL     1      -6.751   4.279   3.334  0.00  0.00    -0.071 S 
ATOM      7  C   UNL     1      -5.342   4.007   2.290  0.00  0.00    +0.115 A 
ATOM      8  C   UNL     1      -5.841   4.254   0.994  0.00  0.00    +0.051 A 
ATOM      9  C   UNL     1      -4.901   4.104  -0.064  0.00  0.00    +0.129 A 
ATOM     10  N   UNL     1      -3.658   3.755   0.221  0.00  0.00    -0.207 NA
ATOM     11  C   UNL     1      -3.253   3.538   1.466  0.00  0.00    +0.191 A 
ATOM     12  N   UNL     1      -4.087   3.658   2.491  0.00  0.00    -0.215 NA
ATOM     13  C   UNL     1      -9.376   5.060   2.247  0.00  0.00    +0.203 C 
ATOM     14  O   UNL     1      -9.833   5.623   1.007  0.00  0.00    -0.368 OA
ATOM     15  C   UNL     1     -10.230   5.369  -1.363  0.00  0.00    +0.041 C 
ENDROOT
BRANCH   9  16
ATOM     16  N   UNL     1      -5.284   4.321  -1.375  0.00  0.00    -0.343 N 
ATOM     17  H   UNL     1      -4.689   4.075  -2.101  0.00  0.00    +0.144 HD
ATOM     18  H   UNL     1      -6.147   4.719  -1.569  0.00  0.00    +0.144 HD
ENDBRANCH   9  16
BRANCH  11  19
ATOM     19  S   UNL     1      -1.579   3.076   1.763  0.00  0.00    -0.081 S 
BRANCH  19  20
ATOM     20  C   UNL     1      -0.950   3.064   0.066  0.00  0.00    +0.112 C 
BRANCH  20  21
ATOM     21  C   UNL     1       0.508   2.684   0.073  0.00  0.00    -0.037 A 
ATOM     22  C   UNL     1       1.477   3.665   0.173  0.00  0.00    +0.008 A 
ATOM     23  C   UNL     1       2.814   3.320   0.174  0.00  0.00    +0.046 A 
ATOM     24  C   UNL     1       3.185   1.987   0.074  0.00  0.00    +0.120 A 
ATOM     25  C   UNL     1       2.211   1.004  -0.028  0.00  0.00    +0.046 A 
ATOM     26  C   UNL     1       0.875   1.355  -0.028  0.00  0.00    +0.008 A 
BRANCH  24  27
ATOM     27  O   UNL     1       4.500   1.644   0.074  0.00  0.00    -0.495 OA
ATOM     28  C   UNL     1       5.448   2.708   0.182  0.00  0.00    +0.277 C 
ENDBRANCH  24  27
ENDBRANCH  20  21
ENDBRANCH  19  20
ENDBRANCH  11  19
TORSDOF 5
