REMARK  Name = ZINC58219036
REMARK  10 active torsions:
REMARK  status: ('A' for Active; 'I' for Inactive)
REMARK    1  A    between atoms: C_1  and  C_2
REMARK    2  A    between atoms: C_2  and  N_3
REMARK    3  A    between atoms: C_9  and  N_16
REMARK    4  A    between atoms: C_10  and  C_11
REMARK    5  A    between atoms: C_11  and  O_13
REMARK    6  A    between atoms: O_13  and  C_14
REMARK    7  A    between atoms: C_14  and  C_15
REMARK    8  A    between atoms: C_17  and  C_19
REMARK    9  A    between atoms: C_19  and  N_20
REMARK   10  A    between atoms: N_20  and  C_21
REMARK                            x       y       z     vdW  Elec       q    Type
REMARK                         _______ _______ _______ _____ _____    ______ ____
ROOT
ATOM      1  N   UNL     1       0.604  -0.377  -1.359  0.00  0.00    +0.383 N 
ATOM      2  C   UNL     1       0.432  -1.822  -1.556  0.00  0.00    -0.074 C 
ATOM      3  C   UNL     1       0.858  -2.218  -2.974  0.00  0.00    +0.018 C 
ATOM      4  C   UNL     1       2.255  -1.662  -3.213  0.00  0.00    -0.025 A 
ATOM      5  C   UNL     1       2.747  -0.691  -2.412  0.00  0.00    -0.021 A 
ATOM      6  S   UNL     1       4.364  -0.365  -3.046  0.00  0.00    -0.079 S 
ATOM      7  C   UNL     1       4.399  -1.459  -4.320  0.00  0.00    +0.086 A 
ATOM      8  C   UNL     1       3.161  -2.085  -4.263  0.00  0.00    +0.091 A 
ATOM      9  C   UNL     1       2.040  -0.059  -1.255  0.00  0.00    -0.035 C 
ATOM     10  H   UNL     1       0.207   0.118  -2.144  0.00  0.00    -0.081 HD
ENDROOT
BRANCH   7  11
ATOM     11  N   UNL     1       5.428  -1.685  -5.221  0.00  0.00    -0.278 N 
ATOM     12  C   UNL     1       6.572  -0.979  -5.128  0.00  0.00    +0.231 C 
ATOM     13  O   UNL     1       6.702  -0.146  -4.256  0.00  0.00    -0.274 OA
ATOM     14  H   UNL     1       5.324  -2.351  -5.919  0.00  0.00    +0.155 HD
BRANCH  12  15
ATOM     15  C   UNL     1       7.690  -1.224  -6.108  0.00  0.00    +0.178 C 
BRANCH  15  16
ATOM     16  N   UNL     1       8.818  -0.336  -5.796  0.00  0.00    -0.301 NA
ATOM     17  H   UNL     1       8.549   0.633  -5.876  0.00  0.00    +0.123 HD
BRANCH  16  18
ATOM     18  C   UNL     1       9.975  -0.634  -6.652  0.00  0.00    +0.085 C 
ATOM     19  C   UNL     1      10.779  -1.775  -6.033  0.00  0.00    +0.024 C 
ATOM     20  C   UNL     1      12.089  -1.924  -6.816  0.00  0.00    +0.006 C 
ATOM     21  C   UNL     1      12.969  -0.712  -6.516  0.00  0.00    +0.035 C 
ATOM     22  C   UNL     1      12.200   0.566  -6.726  0.00  0.00    -0.043 A 
ATOM     23  C   UNL     1      10.825   0.602  -6.784  0.00  0.00    -0.027 A 
ATOM     24  C   UNL     1      10.178   1.816  -6.973  0.00  0.00    +0.005 A 
ATOM     25  C   UNL     1      10.901   2.984  -7.106  0.00  0.00    +0.000 A 
ATOM     26  C   UNL     1      12.281   2.946  -7.052  0.00  0.00    +0.000 A 
ATOM     27  C   UNL     1      12.926   1.742  -6.863  0.00  0.00    +0.004 A 
ENDBRANCH  16  18
ENDBRANCH  15  16
ENDBRANCH  12  15
ENDBRANCH   7  11
BRANCH   1  29
ATOM     28  C   UNL     1      -0.011   1.556   0.013  0.00  0.00    -0.017 C 
ATOM     29  C   UNL     1      -0.079   0.034  -0.126  0.00  0.00    -0.082 C 
ENDBRANCH   1  29
BRANCH   8  30
ATOM     30  C   UNL     1       2.787  -3.127  -5.222  0.00  0.00    +0.342 C 
ATOM     31  O   UNL     1       2.232  -2.826  -6.261  0.00  0.00    -0.245 OA
BRANCH  30  32
ATOM     32  O   UNL     1       3.059  -4.420  -4.952  0.00  0.00    -0.461 OA
BRANCH  32  33
ATOM     33  C   UNL     1       2.667  -5.384  -5.932  0.00  0.00    +0.229 C 
ATOM     34  C   UNL     1       3.055  -6.785  -5.455  0.00  0.00    +0.048 C 
ENDBRANCH  32  33
ENDBRANCH  30  32
ENDBRANCH   8  30
TORSDOF 8
