REMARK  Name = ZINC59645128
REMARK  11 active torsions:
REMARK  status: ('A' for Active; 'I' for Inactive)
REMARK    1  A    between atoms: C_1  and  C_2
REMARK    2  A    between atoms: C_2  and  O_3
REMARK    3  A    between atoms: O_3  and  C_4
REMARK    4  A    between atoms: C_4  and  C_6
REMARK    5  A    between atoms: C_10  and  N_11
REMARK    6  A    between atoms: C_12  and  C_29
REMARK    7  A    between atoms: C_14  and  C_17
REMARK    8  A    between atoms: C_15  and  C_16
REMARK    9  A    between atoms: N_18  and  N_19
REMARK   10  A    between atoms: C_20  and  C_22
REMARK   11  A    between atoms: C_22  and  C_23
REMARK                            x       y       z     vdW  Elec       q    Type
REMARK                         _______ _______ _______ _____ _____    ______ ____
ROOT
ATOM      1  N   UNL     1      -0.331  -2.439  -3.715  0.00  0.00    -0.311 N 
ATOM      2  C   UNL     1      -1.181  -2.038  -2.722  0.00  0.00    +0.022 A 
ATOM      3  C   UNL     1      -2.421  -1.922  -3.232  0.00  0.00    +0.032 A 
ATOM      4  C   UNL     1      -2.327  -2.279  -4.651  0.00  0.00    +0.016 A 
ATOM      5  C   UNL     1      -1.016  -2.581  -4.884  0.00  0.00    +0.030 A 
ATOM      6  C   UNL     1      -0.428  -3.003  -6.206  0.00  0.00    +0.064 C 
ATOM      7  C   UNL     1      -0.793  -1.770  -1.291  0.00  0.00    +0.064 C 
ENDROOT
BRANCH   1  12
ATOM      8  C   UNL     1       1.736  -3.832  -3.790  0.00  0.00    +0.093 A 
ATOM      9  C   UNL     1       3.168  -3.804  -3.551  0.00  0.00    -0.021 A 
ATOM     10  C   UNL     1       3.632  -2.613  -3.116  0.00  0.00    -0.004 A 
ATOM     11  S   UNL     1       2.201  -1.576  -3.034  0.00  0.00    -0.075 S 
ATOM     12  C   UNL     1       1.031  -2.662  -3.556  0.00  0.00    +0.099 A 
ATOM     13  C   UNL     1       5.051  -2.268  -2.782  0.00  0.00    +0.043 C 
ATOM     14  C   UNL     1       5.845  -3.575  -2.645  0.00  0.00    +0.005 C 
ATOM     15  C   UNL     1       5.538  -4.470  -3.849  0.00  0.00    +0.005 C 
ATOM     16  C   UNL     1       4.101  -4.988  -3.760  0.00  0.00    +0.037 C 
BRANCH   8  17
ATOM     17  C   UNL     1       1.065  -5.045  -4.265  0.00  0.00    +0.342 C 
ATOM     18  O   UNL     1       1.050  -5.307  -5.453  0.00  0.00    -0.245 OA
BRANCH  17  19
ATOM     19  O   UNL     1       0.464  -5.872  -3.385  0.00  0.00    -0.461 OA
BRANCH  19  21
ATOM     20  C   UNL     1      -0.601  -7.947  -2.749  0.00  0.00    +0.048 C 
ATOM     21  C   UNL     1      -0.073  -7.091  -3.903  0.00  0.00    +0.229 C 
ENDBRANCH  19  21
ENDBRANCH  17  19
ENDBRANCH   8  17
ENDBRANCH   1  12
BRANCH   4  22
ATOM     22  C   UNL     1      -3.427  -2.303  -5.631  0.00  0.00    +0.140 C 
ATOM     23  N   UNL     1      -3.192  -2.643  -6.862  0.00  0.00    -0.188 NA
BRANCH  23  24
ATOM     24  N   UNL     1      -4.238  -2.665  -7.794  0.00  0.00    -0.207 N 
ATOM     25  C   UNL     1      -3.995  -3.018  -9.071  0.00  0.00    +0.238 C 
ATOM     26  O   UNL     1      -2.870  -3.317  -9.415  0.00  0.00    -0.274 OA
ATOM     27  H   UNL     1      -5.138  -2.426  -7.519  0.00  0.00    +0.177 HD
BRANCH  25  28
ATOM     28  C   UNL     1      -5.120  -3.042 -10.074  0.00  0.00    +0.153 C 
BRANCH  28  29
ATOM     29  C   UNL     1      -4.586  -3.467 -11.418  0.00  0.00    +0.059 A 
ATOM     30  C   UNL     1      -5.121  -4.513 -12.093  0.00  0.00    +0.072 A 
ATOM     31  S   UNL     1      -4.101  -4.521 -13.558  0.00  0.00    -0.061 S 
ATOM     32  C   UNL     1      -3.117  -3.213 -13.164  0.00  0.00    +0.156 A 
ATOM     33  N   UNL     1      -3.579  -2.832 -11.992  0.00  0.00    -0.230 NA
ATOM     34  N   UNL     1      -2.076  -2.667 -13.898  0.00  0.00    -0.338 N 
ATOM     35  H   UNL     1      -1.838  -3.046 -14.759  0.00  0.00    +0.144 HD
ATOM     36  H   UNL     1      -1.585  -1.905 -13.551  0.00  0.00    +0.144 HD
ENDBRANCH  28  29
ENDBRANCH  25  28
ENDBRANCH  23  24
ENDBRANCH   4  22
TORSDOF 8
