REMARK  Name = ZINC20324072
REMARK  4 active torsions:
REMARK  status: ('A' for Active; 'I' for Inactive)
REMARK    1  A    between atoms: C_1  and  C_2
REMARK    2  A    between atoms: C_6  and  C_11
REMARK    3  A    between atoms: N_17  and  C_18
REMARK    4  A    between atoms: C_23  and  O_24
REMARK                            x       y       z     vdW  Elec       q    Type
REMARK                         _______ _______ _______ _____ _____    ______ ____
ROOT
ATOM      1  C   UNL     1       5.743   4.713  -4.565  0.00  0.00    +0.088 C 
ATOM      2  C   UNL     1       5.106   4.150  -3.321  0.00  0.00    +0.129 A 
ATOM      3  N   UNL     1       3.823   3.837  -3.337  0.00  0.00    -0.217 NA
ATOM      4  C   UNL     1       3.207   3.338  -2.277  0.00  0.00    +0.135 A 
ATOM      5  C   UNL     1       3.945   3.125  -1.082  0.00  0.00    +0.055 A 
ATOM      6  C   UNL     1       3.501   2.601   0.206  0.00  0.00    +0.002 A 
ATOM      7  C   UNL     1       4.402   2.497   1.212  0.00  0.00    +0.056 A 
ATOM      8  S   UNL     1       5.910   3.108   0.485  0.00  0.00    -0.076 S 
ATOM      9  C   UNL     1       5.306   3.488  -1.138  0.00  0.00    +0.114 A 
ATOM     10  N   UNL     1       5.841   3.980  -2.239  0.00  0.00    -0.225 NA
ATOM     11  N   UNL     1       1.860   3.022  -2.333  0.00  0.00    -0.296 N 
ATOM     12  H   UNL     1       1.383   2.497  -1.493  0.00  0.00    +0.154 HD
ENDROOT
BRANCH   6  13
ATOM     13  C   UNL     1       2.093   2.186   0.407  0.00  0.00    -0.017 A 
ATOM     14  C   UNL     1       1.069   3.130   0.340  0.00  0.00    +0.008 A 
ATOM     15  C   UNL     1      -0.241   2.737   0.528  0.00  0.00    +0.001 A 
ATOM     16  C   UNL     1      -0.538   1.411   0.784  0.00  0.00    +0.000 A 
ATOM     17  C   UNL     1       0.474   0.470   0.853  0.00  0.00    +0.001 A 
ATOM     18  C   UNL     1       1.787   0.851   0.666  0.00  0.00    +0.008 A 
ENDBRANCH   6  13
BRANCH  11  19
ATOM     19  C   UNL     1       1.106   3.371  -3.460  0.00  0.00    +0.074 A 
ATOM     20  C   UNL     1       1.646   4.208  -4.427  0.00  0.00    +0.027 A 
ATOM     21  C   UNL     1       0.902   4.547  -5.541  0.00  0.00    +0.002 A 
ATOM     22  C   UNL     1      -0.385   4.063  -5.690  0.00  0.00    +0.004 A 
ATOM     23  C   UNL     1      -0.931   3.233  -4.729  0.00  0.00    +0.047 A 
ATOM     24  C   UNL     1      -0.190   2.884  -3.612  0.00  0.00    +0.138 A 
BRANCH  24  25
ATOM     25  O   UNL     1      -0.727   2.069  -2.665  0.00  0.00    -0.505 OA
ATOM     26  H   UNL     1      -1.750   1.685  -2.786  0.00  0.00    +0.292 HD
ENDBRANCH  24  25
ENDBRANCH  11  19
TORSDOF 3
