REMARK  Name = ZINC39638976
REMARK  5 active torsions:
REMARK  status: ('A' for Active; 'I' for Inactive)
REMARK    1  A    between atoms: C_5  and  C_7
REMARK    2  A    between atoms: C_7  and  C_8
REMARK    3  A    between atoms: C_8  and  N_9
REMARK    4  A    between atoms: C_10  and  C_12
REMARK    5  A    between atoms: C_23  and  C_25
REMARK                            x       y       z     vdW  Elec       q    Type
REMARK                         _______ _______ _______ _____ _____    ______ ____
ROOT
ATOM      1  C   UNL     1       1.535  -6.363   2.542  0.00  0.00    +0.100 C 
ATOM      2  C   UNL     1       2.692  -6.881   1.660  0.00  0.00    +0.121 C 
ATOM      3  N   UNL     1       3.809  -7.113   2.606  0.00  0.00    -0.296 N 
ATOM      4  C   UNL     1       3.160  -7.684   3.810  0.00  0.00    +0.115 C 
ATOM      5  C   UNL     1       1.843  -6.895   3.951  0.00  0.00    -0.004 C 
ATOM      6  C   UNL     1       0.723  -7.817   4.425  0.00  0.00    -0.010 C 
ATOM      7  C   UNL     1       1.024  -8.287   5.851  0.00  0.00    -0.082 C 
ATOM      8  N   UNL     1       1.136  -7.124   6.739  0.00  0.00    +0.379 N 
ATOM      9  C   UNL     1       2.274  -6.291   6.332  0.00  0.00    -0.082 C 
ATOM     10  C   UNL     1       2.026  -5.736   4.926  0.00  0.00    -0.010 C 
ATOM     11  C   UNL     1       5.120  -6.861   2.415  0.00  0.00    +0.248 C 
ATOM     12  O   UNL     1       5.489  -6.297   1.402  0.00  0.00    -0.270 OA
ATOM     13  H   UNL     1       0.287  -6.580   6.687  0.00  0.00    -0.086 HD
ATOM     14  H   UNL     1       1.273  -7.438   7.688  0.00  0.00    -0.086 HD
ENDROOT
BRANCH  11  15
ATOM     15  C   UNL     1       6.101  -7.267   3.429  0.00  0.00    +0.052 A 
ATOM     16  C   UNL     1       5.934  -8.408   4.147  0.00  0.00    +0.059 A 
ATOM     17  S   UNL     1       7.259  -8.487   5.172  0.00  0.00    -0.096 S 
ATOM     18  C   UNL     1       8.109  -7.006   4.700  0.00  0.00    +0.020 A 
ATOM     19  C   UNL     1       7.293  -6.458   3.693  0.00  0.00    +0.001 A 
ATOM     20  C   UNL     1       7.717  -5.252   3.104  0.00  0.00    +0.010 A 
ATOM     21  C   UNL     1       8.885  -4.655   3.507  0.00  0.00    +0.001 A 
ATOM     22  C   UNL     1       9.675  -5.218   4.499  0.00  0.00    +0.001 A 
ATOM     23  C   UNL     1       9.278  -6.396   5.102  0.00  0.00    +0.015 A 
ENDBRANCH  11  15
BRANCH   1  25
ATOM     24  N   UNL     1       0.341  -4.201   2.689  0.00  0.00    -0.315 N 
ATOM     25  C   UNL     1       1.510  -4.856   2.544  0.00  0.00    +0.218 C 
ATOM     26  O   UNL     1       2.543  -4.233   2.415  0.00  0.00    -0.275 OA
ATOM     27  H   UNL     1      -0.484  -4.700   2.792  0.00  0.00    +0.149 HD
BRANCH  24  28
ATOM     28  C   UNL     1       0.318  -2.736   2.692  0.00  0.00    +0.109 C 
BRANCH  28  29
ATOM     29  C   UNL     1      -1.122  -2.250   2.870  0.00  0.00    +0.056 C 
BRANCH  29  34
ATOM     30  C   UNL     1      -1.137   1.329   4.072  0.00  0.00    +0.000 A 
ATOM     31  C   UNL     1      -1.192   2.023   2.877  0.00  0.00    +0.003 A 
ATOM     32  C   UNL     1      -1.224   1.335   1.679  0.00  0.00    +0.038 A 
ATOM     33  C   UNL     1      -1.201  -0.050   1.676  0.00  0.00    +0.127 A 
ATOM     34  C   UNL     1      -1.146  -0.743   2.873  0.00  0.00    -0.011 A 
ATOM     35  C   UNL     1      -1.114  -0.053   4.070  0.00  0.00    +0.006 A 
ATOM     36  F   UNL     1      -1.233  -0.723   0.505  0.00  0.00    -0.205 F 
ENDBRANCH  29  34
ENDBRANCH  28  29
ENDBRANCH  24  28
ENDBRANCH   1  25
TORSDOF 5
