REMARK  Name = ZINC63075101
REMARK  6 active torsions:
REMARK  status: ('A' for Active; 'I' for Inactive)
REMARK    1  A    between atoms: C_1  and  C_2
REMARK    2  A    between atoms: C_9  and  N_12
REMARK    3  A    between atoms: C_13  and  C_15
REMARK    4  A    between atoms: C_15  and  S_16
REMARK    5  A    between atoms: S_16  and  C_17
REMARK    6  A    between atoms: C_23  and  N_27
REMARK                            x       y       z     vdW  Elec       q    Type
REMARK                         _______ _______ _______ _____ _____    ______ ____
ROOT
ATOM      1  C   UNL     1       2.581  -1.110   6.521  0.00  0.00    +0.168 C 
ENDROOT
BRANCH   1   3
ATOM      2  N   UNL     1       1.261  -0.818   4.450  0.00  0.00    -0.288 N 
ATOM      3  C   UNL     1       1.334  -1.316   5.700  0.00  0.00    +0.225 C 
ATOM      4  O   UNL     1       0.397  -1.931   6.163  0.00  0.00    -0.275 OA
ATOM      5  H   UNL     1       2.010  -0.326   4.079  0.00  0.00    +0.151 HD
BRANCH   2  14
ATOM      6  C   UNL     1      -0.018   1.503   0.010  0.00  0.00    +0.046 C 
ATOM      7  C   UNL     1       0.002  -0.004   0.002  0.00  0.00    -0.028 A 
ATOM      8  C   UNL     1       0.005  -0.673  -1.200  0.00  0.00    +0.005 A 
ATOM      9  C   UNL     1       0.024  -2.054  -1.249  0.00  0.00    +0.001 A 
ATOM     10  C   UNL     1       0.039  -2.767  -0.061  0.00  0.00    +0.016 A 
ATOM     11  C   UNL     1       0.036  -2.097   1.141  0.00  0.00    +0.032 A 
ATOM     12  C   UNL     1       0.023  -0.701   1.223  0.00  0.00    +0.046 A 
ATOM     13  N   UNL     1       0.027  -0.119   2.490  0.00  0.00    -0.316 N 
ATOM     14  C   UNL     1       0.050  -1.019   3.651  0.00  0.00    +0.224 C 
ATOM     15  S   UNL     1       0.051  -2.662   2.827  0.00  0.00    -0.082 S 
ATOM     16  H   UNL     1       0.015   0.845   2.600  0.00  0.00    +0.149 HD
ENDBRANCH   2  14
ENDBRANCH   1   3
BRANCH   1  17
ATOM     17  S   UNL     1       2.372  -1.893   8.144  0.00  0.00    -0.106 S 
BRANCH  17  18
ATOM     18  C   UNL     1       3.937  -1.558   8.998  0.00  0.00    +0.236 C 
ATOM     19  N   UNL     1       5.060  -2.097   8.222  0.00  0.00    -0.355 N 
ATOM     20  C   UNL     1       5.833  -1.098   7.907  0.00  0.00    +0.061 A 
ATOM     21  C   UNL     1       7.089  -1.007   7.151  0.00  0.00    +0.029 A 
ATOM     22  C   UNL     1       7.678   0.194   6.982  0.00  0.00    +0.035 A 
ATOM     23  C   UNL     1       7.139   1.383   7.504  0.00  0.00    +0.128 A 
ATOM     24  C   UNL     1       5.992   1.411   8.213  0.00  0.00    +0.060 A 
ATOM     25  C   UNL     1       5.262   0.160   8.460  0.00  0.00    +0.063 A 
ATOM     26  N   UNL     1       4.157  -0.109   9.096  0.00  0.00    -0.355 N 
ATOM     27  H   UNL     1       3.585   0.529   9.550  0.00  0.00    +0.162 HD
ATOM     28  H   UNL     1       5.200  -3.028   7.987  0.00  0.00    +0.162 HD
BRANCH  23  29
ATOM     29  N   UNL     1       7.858   2.654   7.266  0.00  0.00    +0.056 N 
ATOM     30  O   UNL     1       8.889   2.656   6.633  0.00  0.00    -0.126 OA
ATOM     31  O   UNL     1       7.416   3.690   7.704  0.00  0.00    -0.126 OA
ENDBRANCH  23  29
ENDBRANCH  17  18
ENDBRANCH   1  17
TORSDOF 5
