REMARK  Name = ZINC13065564
REMARK  13 active torsions:
REMARK  status: ('A' for Active; 'I' for Inactive)
REMARK    1  A    between atoms: C_1  and  C_2
REMARK    2  A    between atoms: C_2  and  O_3
REMARK    3  A    between atoms: O_3  and  C_4
REMARK    4  A    between atoms: C_11  and  C_16
REMARK    5  A    between atoms: C_16  and  N_70
REMARK    6  A    between atoms: C_17  and  C_18
REMARK    7  A    between atoms: C_17  and  N_70
REMARK    8  A    between atoms: C_18  and  C_19
REMARK    9  A    between atoms: C_24  and  C_25
REMARK   10  A    between atoms: C_26  and  C_27
REMARK   11  A    between atoms: C_26  and  N_70
REMARK   12  A    between atoms: N_31  and  C_32
REMARK   13  A    between atoms: C_32  and  C_33
REMARK                            x       y       z     vdW  Elec       q    Type
REMARK                         _______ _______ _______ _____ _____    ______ ____
ROOT
ATOM      1  N   UNL     1       2.206  -2.182  -1.339  0.00  0.00    +0.387 N 
ATOM      2  H   UNL     1       2.564  -1.680  -2.160  0.00  0.00    -0.081 HD
ENDROOT
BRANCH   1   3
ATOM      3  C   UNL     1       3.134  -3.284  -1.008  0.00  0.00    -0.037 C 
BRANCH   3  11
ATOM      4  C   UNL     1       5.920  -5.203  -6.202  0.00  0.00    +0.121 A 
ATOM      5  C   UNL     1       5.012  -6.219  -6.492  0.00  0.00    +0.047 A 
ATOM      6  C   UNL     1       3.936  -6.456  -5.666  0.00  0.00    +0.030 A 
ATOM      7  C   UNL     1       3.747  -5.675  -4.530  0.00  0.00    +0.049 A 
ATOM      8  C   UNL     1       4.661  -4.648  -4.233  0.00  0.00    +0.002 A 
ATOM      9  C   UNL     1       5.751  -4.418  -5.080  0.00  0.00    +0.055 A 
ATOM     10  C   UNL     1       4.451  -3.835  -3.034  0.00  0.00    +0.017 A 
ATOM     11  C   UNL     1       3.379  -4.102  -2.249  0.00  0.00    +0.001 A 
ATOM     12  C   UNL     1       2.494  -5.148  -2.588  0.00  0.00    +0.251 A 
ATOM     13  O   UNL     1       1.538  -5.375  -1.865  0.00  0.00    -0.268 OA
ATOM     14  N   UNL     1       2.675  -5.897  -3.690  0.00  0.00    -0.322 N 
ATOM     15  H   UNL     1       2.045  -6.605  -3.895  0.00  0.00    +0.169 HD
BRANCH   4  16
ATOM     16  O   UNL     1       6.976  -4.984  -7.029  0.00  0.00    -0.492 OA
BRANCH  16  18
ATOM     17  C   UNL     1       8.332  -5.438  -8.977  0.00  0.00    +0.048 C 
ATOM     18  C   UNL     1       7.092  -5.833  -8.173  0.00  0.00    +0.225 C 
ENDBRANCH  16  18
ENDBRANCH   4  16
ENDBRANCH   3  11
ENDBRANCH   1   3
BRANCH   1  19
ATOM     19  C   UNL     1       0.868  -2.724  -1.653  0.00  0.00    -0.073 C 
BRANCH  19  20
ATOM     20  C   UNL     1      -0.028  -1.583  -2.137  0.00  0.00    +0.017 C 
BRANCH  20  21
ATOM     21  C   UNL     1      -1.344  -2.143  -2.611  0.00  0.00    -0.046 A 
ATOM     22  C   UNL     1      -1.531  -2.432  -3.950  0.00  0.00    +0.004 A 
ATOM     23  C   UNL     1      -2.736  -2.950  -4.383  0.00  0.00    +0.000 A 
ATOM     24  C   UNL     1      -3.759  -3.170  -3.480  0.00  0.00    +0.000 A 
ATOM     25  C   UNL     1      -3.574  -2.876  -2.142  0.00  0.00    +0.003 A 
ATOM     26  C   UNL     1      -2.366  -2.363  -1.707  0.00  0.00    -0.047 A 
ATOM     27  C   UNL     1      -2.165  -2.042  -0.249  0.00  0.00    +0.044 C 
ENDBRANCH  20  21
ENDBRANCH  19  20
ENDBRANCH   1  19
BRANCH   1  28
ATOM     28  C   UNL     1       2.115  -1.240  -0.203  0.00  0.00    +0.001 C 
BRANCH  28  29
ATOM     29  C   UNL     1       3.425  -0.506  -0.075  0.00  0.00    +0.135 A 
ATOM     30  N   UNL     1       3.807   0.540  -0.766  0.00  0.00    -0.115 NA
ATOM     31  N   UNL     1       4.985   0.875  -0.365  0.00  0.00    -0.023 NA
ATOM     32  N   UNL     1       5.364   0.069   0.564  0.00  0.00    -0.044 NA
ATOM     33  N   UNL     1       4.430  -0.796   0.772  0.00  0.00    -0.227 N 
BRANCH  33  34
ATOM     34  C   UNL     1       4.458  -1.890   1.747  0.00  0.00    +0.182 C 
BRANCH  34  35
ATOM     35  C   UNL     1       4.034  -1.371   3.096  0.00  0.00    -0.026 A 
ATOM     36  C   UNL     1       4.965  -0.791   3.938  0.00  0.00    +0.008 A 
ATOM     37  C   UNL     1       4.577  -0.310   5.173  0.00  0.00    +0.038 A 
ATOM     38  C   UNL     1       3.256  -0.418   5.574  0.00  0.00    +0.123 A 
ATOM     39  C   UNL     1       2.324  -1.004   4.732  0.00  0.00    +0.038 A 
ATOM     40  C   UNL     1       2.714  -1.479   3.495  0.00  0.00    +0.008 A 
ATOM     41  F   UNL     1       2.875   0.047   6.784  0.00  0.00    -0.205 F 
ENDBRANCH  34  35
ENDBRANCH  33  34
ENDBRANCH  28  29
ENDBRANCH   1  28
TORSDOF 11
