REMARK  Name = ZINC63167827
REMARK  11 active torsions:
REMARK  status: ('A' for Active; 'I' for Inactive)
REMARK    1  A    between atoms: C_1  and  C_2
REMARK    2  A    between atoms: C_2  and  C_3
REMARK    3  A    between atoms: C_2  and  C_4
REMARK    4  A    between atoms: C_2  and  O_5
REMARK    5  A    between atoms: O_5  and  C_6
REMARK    6  A    between atoms: N_8  and  C_9
REMARK    7  A    between atoms: C_9  and  C_11
REMARK    8  A    between atoms: C_9  and  C_21
REMARK    9  A    between atoms: C_11  and  C_12
REMARK   10  A    between atoms: C_21  and  O_23
REMARK   11  A    between atoms: O_23  and  C_24
REMARK                            x       y       z     vdW  Elec       q    Type
REMARK                         _______ _______ _______ _____ _____    ______ ____
ROOT
ATOM      1  C   UNL     1       4.043  -0.032  -2.594  0.00  0.00    +0.189 C 
ENDROOT
BRANCH   1   4
ATOM      2  C   UNL     1       1.972   0.035  -1.311  0.00  0.00    +0.401 C 
ATOM      3  O   UNL     1       2.534   0.740  -0.496  0.00  0.00    -0.226 OA
ATOM      4  N   UNL     1       2.639  -0.404  -2.396  0.00  0.00    -0.268 N 
ATOM      5  H   UNL     1       2.191  -0.967  -3.047  0.00  0.00    +0.153 HD
BRANCH   2   6
ATOM      6  O   UNL     1       0.683  -0.307  -1.129  0.00  0.00    -0.445 OA
BRANCH   6   8
ATOM      7  C   UNL     1       0.058   1.724   0.022  0.00  0.00    +0.055 C 
ATOM      8  C   UNL     1       0.037   0.195   0.043  0.00  0.00    +0.107 C 
ATOM      9  C   UNL     1       0.775  -0.309   1.286  0.00  0.00    +0.055 C 
ATOM     10  C   UNL     1      -1.412  -0.295   0.077  0.00  0.00    +0.055 C 
ENDBRANCH   6   8
ENDBRANCH   2   6
ENDBRANCH   1   4
BRANCH   1  11
ATOM     11  C   UNL     1       4.863  -0.535  -1.434  0.00  0.00    +0.333 C 
ATOM     12  O   UNL     1       4.326  -0.809  -0.387  0.00  0.00    -0.248 OA
BRANCH  11  13
ATOM     13  O   UNL     1       6.192  -0.677  -1.564  0.00  0.00    -0.424 OA
BRANCH  13  14
ATOM     14  C   UNL     1       6.906  -1.035  -0.464  0.00  0.00    +0.135 A 
ATOM     15  C   UNL     1       6.895  -2.358  -0.034  0.00  0.00    +0.047 A 
ATOM     16  C   UNL     1       7.613  -2.728   1.082  0.00  0.00    +0.016 A 
ATOM     17  C   UNL     1       8.351  -1.774   1.779  0.00  0.00    +0.026 A 
ATOM     18  C   UNL     1       9.116  -2.134   2.989  0.00  0.00    -0.000 A 
ATOM     19  C   UNL     1       9.359  -3.447   3.363  0.00  0.00    +0.009 A 
ATOM     20  C   UNL     1      10.081  -3.703   4.512  0.00  0.00    +0.001 A 
ATOM     21  C   UNL     1      10.564  -2.663   5.293  0.00  0.00    +0.001 A 
ATOM     22  C   UNL     1      10.332  -1.349   4.937  0.00  0.00    +0.015 A 
ATOM     23  C   UNL     1       9.609  -1.073   3.783  0.00  0.00    +0.067 A 
ATOM     24  C   UNL     1       9.323   0.301   3.331  0.00  0.00    +0.345 A 
ATOM     25  O   UNL     1       9.292   1.228   4.116  0.00  0.00    -0.245 OA
ATOM     26  O   UNL     1       9.097   0.491   2.010  0.00  0.00    -0.422 OA
ATOM     27  C   UNL     1       8.369  -0.439   1.343  0.00  0.00    +0.143 A 
ATOM     28  C   UNL     1       7.644  -0.081   0.217  0.00  0.00    +0.093 A 
ENDBRANCH  13  14
ENDBRANCH  11  13
ENDBRANCH   1  11
BRANCH   1  29
ATOM     29  C   UNL     1       4.159   1.491  -2.679  0.00  0.00    +0.067 C 
BRANCH  29  30
ATOM     30  C   UNL     1       3.440   1.981  -3.910  0.00  0.00    -0.039 C 
ATOM     31  C   UNL     1       2.170   2.441  -3.980  0.00  0.00    -0.001 A 
ATOM     32  C   UNL     1       1.118   2.615  -2.971  0.00  0.00    +0.010 A 
ATOM     33  C   UNL     1      -0.081   3.110  -3.352  0.00  0.00    +0.001 A 
ATOM     34  C   UNL     1      -0.344   3.460  -4.684  0.00  0.00    +0.002 A 
ATOM     35  C   UNL     1       0.571   3.329  -5.667  0.00  0.00    +0.026 A 
ATOM     36  C   UNL     1       1.867   2.819  -5.379  0.00  0.00    +0.043 A 
ATOM     37  N   UNL     1       2.909   2.601  -6.144  0.00  0.00    -0.380 N 
ATOM     38  C   UNL     1       3.994   2.065  -5.314  0.00  0.00    +0.144 C 
ATOM     39  H   UNL     1       2.956   2.769  -7.098  0.00  0.00    +0.160 HD
ENDBRANCH  29  30
ENDBRANCH   1  29
TORSDOF 8
