REMARK  Name = ZINC35374926
REMARK  7 active torsions:
REMARK  status: ('A' for Active; 'I' for Inactive)
REMARK    1  A    between atoms: C_1  and  C_2
REMARK    2  A    between atoms: C_2  and  C_3
REMARK    3  A    between atoms: C_3  and  C_5
REMARK    4  A    between atoms: C_3  and  C_6
REMARK    5  A    between atoms: C_6  and  N_7
REMARK    6  A    between atoms: C_8  and  C_10
REMARK    7  A    between atoms: C_21  and  C_23
REMARK                            x       y       z     vdW  Elec       q    Type
REMARK                         _______ _______ _______ _____ _____    ______ ____
ROOT
ATOM      1  C   UNL     1      -4.363  -4.404   0.467  0.00  0.00    +0.028 C 
ATOM      2  C   UNL     1      -5.006  -3.801   1.752  0.00  0.00    +0.061 C 
ATOM      3  S   UNL     1      -6.372  -5.018   2.003  0.00  0.00    -0.174 S 
ATOM      4  C   UNL     1      -5.681  -6.396   1.005  0.00  0.00    -0.016 C 
ATOM      5  N   UNL     1      -4.364  -5.876   0.585  0.00  0.00    +0.397 N 
ATOM      6  C   UNL     1      -6.575  -6.662  -0.196  0.00  0.00    +0.017 C 
ATOM      7  C   UNL     1      -5.977  -7.794  -1.039  0.00  0.00    +0.107 C 
ATOM      8  N   UNL     1      -5.735  -8.952  -0.168  0.00  0.00    -0.298 N 
ATOM      9  C   UNL     1      -4.921  -8.771   1.042  0.00  0.00    +0.107 C 
ATOM     10  C   UNL     1      -5.525  -7.634   1.875  0.00  0.00    +0.017 C 
ATOM     11  C   UNL     1      -6.250 -10.159  -0.473  0.00  0.00    +0.248 C 
ATOM     12  O   UNL     1      -7.005 -10.276  -1.418  0.00  0.00    -0.270 OA
ATOM     13  H   UNL     1      -4.125  -6.277  -0.309  0.00  0.00    -0.083 HD
ATOM     14  H   UNL     1      -3.669  -6.151   1.263  0.00  0.00    -0.083 HD
ENDROOT
BRANCH  11  15
ATOM     15  C   UNL     1      -5.896 -11.341   0.341  0.00  0.00    +0.051 A 
ATOM     16  C   UNL     1      -4.556 -11.674   0.548  0.00  0.00    +0.014 A 
ATOM     17  C   UNL     1      -4.233 -12.778   1.309  0.00  0.00    +0.001 A 
ATOM     18  C   UNL     1      -5.233 -13.556   1.866  0.00  0.00    +0.001 A 
ATOM     19  C   UNL     1      -6.563 -13.233   1.665  0.00  0.00    +0.016 A 
ATOM     20  C   UNL     1      -6.901 -12.127   0.910  0.00  0.00    +0.030 A 
ATOM     21 BR   UNL     1      -8.719 -11.681   0.643  0.00  0.00    -0.050 Br
ENDBRANCH  11  15
BRANCH   1  23
ATOM     22  N   UNL     1      -2.705  -2.588   0.199  0.00  0.00    -0.316 N 
ATOM     23  C   UNL     1      -2.947  -3.908   0.328  0.00  0.00    +0.200 C 
ATOM     24  O   UNL     1      -2.025  -4.696   0.332  0.00  0.00    -0.278 OA
ATOM     25  H   UNL     1      -3.442  -1.958   0.196  0.00  0.00    +0.149 HD
BRANCH  22  26
ATOM     26  C   UNL     1      -1.328  -2.106   0.064  0.00  0.00    +0.107 C 
BRANCH  26  27
ATOM     27  C   UNL     1      -1.332  -0.581  -0.065  0.00  0.00    +0.003 C 
ATOM     28  C   UNL     1      -2.031  -0.182  -1.367  0.00  0.00    +0.009 C 
BRANCH  27  30
ATOM     29  C   UNL     1       0.104   1.463  -0.084  0.00  0.00    +0.004 C 
ATOM     30  C   UNL     1       0.108  -0.067  -0.081  0.00  0.00    +0.001 C 
ENDBRANCH  27  30
ENDBRANCH  26  27
ENDBRANCH  22  26
ENDBRANCH   1  23
TORSDOF 5
