REMARK  Name = ZINC35363905
REMARK  7 active torsions:
REMARK  status: ('A' for Active; 'I' for Inactive)
REMARK    1  A    between atoms: C_1  and  C_2
REMARK    2  A    between atoms: C_17  and  C_20
REMARK    3  A    between atoms: C_20  and  C_22
REMARK    4  A    between atoms: C_20  and  O_23
REMARK    5  A    between atoms: N_26  and  C_29
REMARK    6  A    between atoms: C_29  and  C_30
REMARK    7  A    between atoms: C_30  and  C_31
REMARK                            x       y       z     vdW  Elec       q    Type
REMARK                         _______ _______ _______ _____ _____    ______ ____
ROOT
ATOM      1  C   UNL     1      -0.018   1.503   0.010  0.00  0.00    +0.044 C 
ATOM      2  C   UNL     1       0.002  -0.004   0.002  0.00  0.00    -0.049 A 
ATOM      3  C   UNL     1       0.006  -0.691  -1.199  0.00  0.00    +0.011 A 
ATOM      4  C   UNL     1       0.024  -2.068  -1.207  0.00  0.00    +0.005 A 
ATOM      5  C   UNL     1       0.043  -2.783  -0.013  0.00  0.00    +0.057 A 
ATOM      6  C   UNL     1       0.038  -2.084   1.193  0.00  0.00    +0.063 A 
ATOM      7  C   UNL     1       0.023  -0.703   1.195  0.00  0.00    +0.025 A 
ATOM      8 CL   UNL     1       0.058  -2.951   2.696  0.00  0.00    -0.082 Cl
ATOM      9  N   UNL     1       0.064  -4.155  -0.272  0.00  0.00    -0.282 N 
ATOM     10  C   UNL     1       0.060  -4.423  -1.593  0.00  0.00    +0.243 C 
ATOM     11  O   UNL     1       0.076  -5.520  -2.110  0.00  0.00    -0.273 OA
ATOM     12  C   UNL     1       0.029  -3.096  -2.302  0.00  0.00    +0.136 C 
ATOM     13  C   UNL     1       1.236  -2.928  -3.231  0.00  0.00    +0.122 C 
ATOM     14  C   UNL     1       0.682  -2.146  -4.455  0.00  0.00    +0.109 C 
ATOM     15  C   UNL     1      -0.810  -1.917  -4.136  0.00  0.00    +0.096 C 
ATOM     16  N   UNL     1      -1.164  -2.974  -3.161  0.00  0.00    -0.293 NA
ATOM     17  C   UNL     1       1.425  -0.831  -4.393  0.00  0.00    +0.227 C 
ATOM     18  O   UNL     1       1.293   0.086  -5.176  0.00  0.00    -0.275 OA
ATOM     19  N   UNL     1       2.251  -0.835  -3.341  0.00  0.00    -0.241 N 
ATOM     20  C   UNL     1       2.232  -1.974  -2.611  0.00  0.00    +0.228 C 
ATOM     21  O   UNL     1       2.897  -2.200  -1.623  0.00  0.00    -0.275 OA
ATOM     22  H   UNL     1       0.081  -4.837   0.418  0.00  0.00    +0.155 HD
ATOM     23  H   UNL     1      -1.357  -3.842  -3.637  0.00  0.00    +0.124 HD
ENDROOT
BRANCH  15  24
ATOM     24  C   UNL     1      -1.652  -2.038  -5.408  0.00  0.00    +0.129 C 
ATOM     25  C   UNL     1      -3.126  -1.808  -5.068  0.00  0.00    +0.039 C 
BRANCH  24  26
ATOM     26  O   UNL     1      -1.224  -1.059  -6.357  0.00  0.00    -0.390 OA
ATOM     27  H   UNL     1      -1.306  -0.147  -6.046  0.00  0.00    +0.210 HD
ENDBRANCH  24  26
ENDBRANCH  15  24
BRANCH  19  28
ATOM     28  C   UNL     1       3.114   0.300  -3.006  0.00  0.00    +0.121 C 
BRANCH  28  29
ATOM     29  C   UNL     1       2.368   1.248  -2.065  0.00  0.00    +0.054 C 
BRANCH  29  30
ATOM     30  C   UNL     1       3.256   2.416  -1.720  0.00  0.00    -0.046 A 
ATOM     31  C   UNL     1       4.093   2.347  -0.622  0.00  0.00    +0.004 A 
ATOM     32  C   UNL     1       4.907   3.419  -0.306  0.00  0.00    +0.000 A 
ATOM     33  C   UNL     1       4.885   4.558  -1.088  0.00  0.00    +0.000 A 
ATOM     34  C   UNL     1       4.049   4.626  -2.187  0.00  0.00    +0.000 A 
ATOM     35  C   UNL     1       3.237   3.553  -2.506  0.00  0.00    +0.004 A 
ENDBRANCH  29  30
ENDBRANCH  28  29
ENDBRANCH  19  28
TORSDOF 5
