REMARK  Name = ZINC00710587
REMARK  12 active torsions:
REMARK  status: ('A' for Active; 'I' for Inactive)
REMARK    1  A    between atoms: C_1  and  C_2
REMARK    2  A    between atoms: C_5  and  N_9
REMARK    3  A    between atoms: C_10  and  C_12
REMARK    4  A    between atoms: C_12  and  S_13
REMARK    5  A    between atoms: S_13  and  C_14
REMARK    6  A    between atoms: C_15  and  C_38
REMARK    7  A    between atoms: C_16  and  C_33
REMARK    8  A    between atoms: C_18  and  C_22
REMARK    9  A    between atoms: C_19  and  C_21
REMARK   10  A    between atoms: N_24  and  C_25
REMARK   11  A    between atoms: C_30  and  O_31
REMARK   12  A    between atoms: O_31  and  C_32
REMARK                            x       y       z     vdW  Elec       q    Type
REMARK                         _______ _______ _______ _____ _____    ______ ____
ROOT
ATOM      1  C   UNL     1       0.571  -8.786   2.879  0.00  0.00    +0.080 C 
ATOM      2  C   UNL     1       1.010  -9.480   3.962  0.00  0.00    +0.072 C 
ATOM      3  C   UNL     1       1.200 -10.970   3.908  0.00  0.00    +0.134 C 
ATOM      4  C   UNL     1       1.230 -11.454   2.487  0.00  0.00    +0.047 C 
ATOM      5  C   UNL     1       0.787 -10.693   1.473  0.00  0.00    +0.015 C 
ATOM      6  N   UNL     1       0.291  -9.436   1.698  0.00  0.00    -0.312 N 
ATOM      7  C   UNL     1       0.833 -11.232   0.066  0.00  0.00    +0.061 C 
ATOM      8  H   UNL     1      -0.255  -9.002   1.024  0.00  0.00    +0.152 HD
ENDROOT
BRANCH   3   9
ATOM      9  C   UNL     1       2.501 -11.328   4.580  0.00  0.00    +0.118 A 
ATOM     10  C   UNL     1       2.650 -12.205   5.589  0.00  0.00    +0.045 A 
ATOM     11  C   UNL     1       4.027 -12.233   5.908  0.00  0.00    +0.041 A 
ATOM     12  C   UNL     1       4.637 -11.371   5.074  0.00  0.00    +0.195 A 
ATOM     13  O   UNL     1       3.709 -10.831   4.269  0.00  0.00    -0.467 OA
ENDBRANCH   3   9
BRANCH   4  14
ATOM     14  C   UNL     1       1.738 -12.745   2.209  0.00  0.00    +0.247 C 
ATOM     15  O   UNL     1       1.064 -13.730   2.454  0.00  0.00    -0.270 OA
ATOM     16  N   UNL     1       2.967 -12.885   1.673  0.00  0.00    -0.279 N 
ATOM     17  H   UNL     1       3.530 -12.107   1.541  0.00  0.00    +0.155 HD
BRANCH  16  18
ATOM     18  C   UNL     1       3.431 -14.155   1.308  0.00  0.00    +0.076 A 
ATOM     19  C   UNL     1       2.531 -15.190   1.097  0.00  0.00    +0.027 A 
ATOM     20  C   UNL     1       2.991 -16.442   0.736  0.00  0.00    +0.002 A 
ATOM     21  C   UNL     1       4.347 -16.667   0.583  0.00  0.00    +0.004 A 
ATOM     22  C   UNL     1       5.250 -15.640   0.791  0.00  0.00    +0.047 A 
ATOM     23  C   UNL     1       4.796 -14.381   1.148  0.00  0.00    +0.141 A 
BRANCH  23  24
ATOM     24  O   UNL     1       5.682 -13.369   1.348  0.00  0.00    -0.493 OA
ATOM     25  C   UNL     1       7.066 -13.673   1.167  0.00  0.00    +0.277 C 
ENDBRANCH  23  24
ENDBRANCH  16  18
ENDBRANCH   4  14
BRANCH   2  26
ATOM     26  C   UNL     1       1.297  -8.779   5.178  0.00  0.00    +0.098 C 
ATOM     27  N   UNL     1       1.525  -8.223   6.142  0.00  0.00    -0.191 NA
ENDBRANCH   2  26
BRANCH   1  28
ATOM     28  S   UNL     1       0.352  -7.041   2.989  0.00  0.00    -0.100 S 
BRANCH  28  29
ATOM     29  C   UNL     1      -0.239  -6.568   1.341  0.00  0.00    +0.171 C 
BRANCH  29  31
ATOM     30  N   UNL     1      -0.913  -4.498   0.166  0.00  0.00    -0.285 N 
ATOM     31  C   UNL     1      -0.470  -5.079   1.298  0.00  0.00    +0.227 C 
ATOM     32  O   UNL     1      -0.256  -4.404   2.282  0.00  0.00    -0.275 OA
ATOM     33  H   UNL     1      -1.155  -5.045  -0.598  0.00  0.00    +0.155 HD
BRANCH  30  38
ATOM     34  C   UNL     1      -1.368   1.150  -0.134  0.00  0.00    +0.045 C 
ATOM     35  C   UNL     1      -1.248  -0.350  -0.055  0.00  0.00    -0.032 A 
ATOM     36  C   UNL     1      -0.276  -0.923   0.745  0.00  0.00    +0.006 A 
ATOM     37  C   UNL     1      -0.163  -2.297   0.821  0.00  0.00    +0.023 A 
ATOM     38  C   UNL     1      -1.026  -3.105   0.091  0.00  0.00    +0.035 A 
ATOM     39  C   UNL     1      -2.001  -2.528  -0.711  0.00  0.00    +0.043 A 
ATOM     40  C   UNL     1      -2.113  -1.152  -0.778  0.00  0.00    +0.046 A 
ATOM     41 CL   UNL     1      -3.335  -0.429  -1.776  0.00  0.00    -0.083 Cl
ENDBRANCH  30  38
ENDBRANCH  29  31
ENDBRANCH  28  29
ENDBRANCH   1  28
TORSDOF 9
