REMARK  Name = ZINC16043106
REMARK  14 active torsions:
REMARK  status: ('A' for Active; 'I' for Inactive)
REMARK    1  A    between atoms: C_1  and  O_2
REMARK    2  A    between atoms: O_2  and  C_3
REMARK    3  A    between atoms: C_6  and  C_11
REMARK    4  A    between atoms: C_8  and  O_9
REMARK    5  A    between atoms: O_9  and  C_10
REMARK    6  A    between atoms: C_19  and  O_39
REMARK    7  A    between atoms: C_23  and  C_25
REMARK    8  A    between atoms: C_26  and  C_27
REMARK    9  A    between atoms: C_29  and  O_37
REMARK   10  A    between atoms: C_30  and  O_35
REMARK   11  A    between atoms: C_31  and  O_33
REMARK   12  A    between atoms: O_33  and  C_34
REMARK   13  A    between atoms: O_35  and  C_36
REMARK   14  A    between atoms: O_37  and  C_38
REMARK                            x       y       z     vdW  Elec       q    Type
REMARK                         _______ _______ _______ _____ _____    ______ ____
ROOT
ATOM      1  C   UNL     1       3.657  -6.391  -0.279  0.00  0.00    +0.112 C 
ATOM      2  C   UNL     1       4.380  -6.520  -1.623  0.00  0.00    +0.046 C 
ATOM      3  C   UNL     1       3.558  -5.832  -2.714  0.00  0.00    +0.008 C 
ATOM      4  C   UNL     1       4.279  -5.968  -4.056  0.00  0.00    +0.001 C 
ATOM      5  C   UNL     1       5.660  -5.315  -3.964  0.00  0.00    +0.003 C 
ATOM      6  C   UNL     1       6.479  -6.003  -2.870  0.00  0.00    +0.035 C 
ATOM      7  C   UNL     1       5.756  -5.856  -1.528  0.00  0.00    +0.072 C 
ATOM      8  C   UNL     1       5.584  -4.371  -1.200  0.00  0.00    +0.054 C 
ATOM      9  C   UNL     1       4.878  -4.217   0.138  0.00  0.00    +0.111 C 
ATOM     10  N   UNL     1       3.618  -4.974   0.105  0.00  0.00    -0.290 N 
ATOM     11  C   UNL     1       2.450  -4.377   0.415  0.00  0.00    +0.240 C 
ATOM     12  O   UNL     1       1.432  -5.040   0.500  0.00  0.00    -0.271 OA
ENDROOT
BRANCH   1  16
ATOM     13  C   UNL     1      -0.334  -7.884  -0.642  0.00  0.00    +0.162 A 
ATOM     14  C   UNL     1       0.066  -6.780  -1.378  0.00  0.00    +0.050 A 
ATOM     15  C   UNL     1       1.355  -6.297  -1.254  0.00  0.00    +0.009 A 
ATOM     16  C   UNL     1       2.252  -6.919  -0.406  0.00  0.00    -0.023 A 
ATOM     17  C   UNL     1       1.859  -8.021   0.332  0.00  0.00    +0.055 A 
ATOM     18  C   UNL     1       0.567  -8.507   0.217  0.00  0.00    +0.162 A 
BRANCH  13  20
ATOM     19  C   UNL     1      -2.473  -7.668  -1.658  0.00  0.00    +0.277 C 
ATOM     20  O   UNL     1      -1.603  -8.358  -0.758  0.00  0.00    -0.491 OA
ENDBRANCH  13  20
BRANCH  18  21
ATOM     21  O   UNL     1       0.179  -9.590   0.942  0.00  0.00    -0.491 OA
ATOM     22  C   UNL     1       1.157 -10.178   1.803  0.00  0.00    +0.277 C 
ENDBRANCH  18  21
ENDBRANCH   1  16
BRANCH  11  23
ATOM     23  C   UNL     1       2.405  -2.934   0.649  0.00  0.00    +0.068 C 
ATOM     24  C   UNL     1       1.220  -2.321   0.853  0.00  0.00    +0.013 C 
BRANCH  24  25
ATOM     25  C   UNL     1       1.175  -0.870   1.089  0.00  0.00    -0.018 A 
ATOM     26  C   UNL     1      -0.052  -0.232   1.301  0.00  0.00    +0.057 A 
ATOM     27  C   UNL     1      -0.091   1.131   1.523  0.00  0.00    +0.166 A 
ATOM     28  C   UNL     1       1.090   1.870   1.535  0.00  0.00    +0.204 A 
ATOM     29  C   UNL     1       2.313   1.238   1.324  0.00  0.00    +0.166 A 
ATOM     30  C   UNL     1       2.359  -0.124   1.102  0.00  0.00    +0.057 A 
BRANCH  29  31
ATOM     31  O   UNL     1       3.463   1.964   1.337  0.00  0.00    -0.491 OA
ATOM     32  C   UNL     1       4.682   1.252   1.114  0.00  0.00    +0.277 C 
ENDBRANCH  29  31
BRANCH  28  33
ATOM     33  O   UNL     1       1.048   3.211   1.753  0.00  0.00    -0.488 OA
ATOM     34  C   UNL     1       1.140   3.651   3.110  0.00  0.00    +0.277 C 
ENDBRANCH  28  33
BRANCH  27  35
ATOM     35  O   UNL     1      -1.283   1.753   1.723  0.00  0.00    -0.491 OA
ATOM     36  C   UNL     1      -2.455   0.936   1.692  0.00  0.00    +0.277 C 
ENDBRANCH  27  35
ENDBRANCH  24  25
ENDBRANCH  11  23
BRANCH   7  37
ATOM     37  O   UNL     1       6.522  -6.488  -0.500  0.00  0.00    -0.388 OA
ATOM     38  H   UNL     1       7.407  -6.117  -0.385  0.00  0.00    +0.210 HD
ENDBRANCH   7  37
TORSDOF 9
