REMARK  Name = ZINC66961262
REMARK  8 active torsions:
REMARK  status: ('A' for Active; 'I' for Inactive)
REMARK    1  A    between atoms: C_1  and  C_2
REMARK    2  A    between atoms: C_2  and  C_3
REMARK    3  A    between atoms: C_2  and  C_4
REMARK    4  A    between atoms: C_4  and  C_6
REMARK    5  A    between atoms: C_4  and  N_23
REMARK    6  A    between atoms: C_11  and  C_14
REMARK    7  A    between atoms: C_16  and  C_20
REMARK    8  A    between atoms: C_24  and  C_26
REMARK                            x       y       z     vdW  Elec       q    Type
REMARK                         _______ _______ _______ _____ _____    ______ ____
ROOT
ATOM      1  C   UNL     1      -2.074  -0.231  -1.335  0.00  0.00    +0.239 C 
ATOM      2  O   UNL     1      -2.493  -1.081  -2.091  0.00  0.00    -0.273 OA
ATOM      3  N   UNL     1      -2.204   1.073  -1.649  0.00  0.00    -0.263 N 
ATOM      4  C   UNL     1      -2.739   1.442  -2.877  0.00  0.00    +0.165 A 
ATOM      5  N   UNL     1      -2.933   2.652  -3.350  0.00  0.00    -0.225 NA
ATOM      6  C   UNL     1      -3.459   2.842  -4.553  0.00  0.00    +0.082 A 
ATOM      7  C   UNL     1      -3.783   1.721  -5.264  0.00  0.00    +0.077 A 
ATOM      8  S   UNL     1      -3.287   0.446  -4.117  0.00  0.00    -0.060 S 
ATOM      9  H   UNL     1      -1.924   1.754  -1.018  0.00  0.00    +0.157 HD
ENDROOT
BRANCH   6  10
ATOM     10  C   UNL     1      -3.684   4.205  -5.101  0.00  0.00    +0.019 A 
ATOM     11  C   UNL     1      -3.293   5.417  -4.502  0.00  0.00    +0.042 A 
ATOM     12  C   UNL     1      -3.692   6.426  -5.335  0.00  0.00    +0.102 A 
ATOM     13  N   UNL     1      -4.314   5.857  -6.423  0.00  0.00    -0.356 N 
ATOM     14  H   UNL     1      -4.695   6.342  -7.172  0.00  0.00    +0.165 HD
ATOM     15  C   UNL     1      -4.302   4.509  -6.279  0.00  0.00    +0.093 A 
BRANCH  12  16
ATOM     16  C   UNL     1      -3.492   7.861  -5.107  0.00  0.00    +0.258 C 
ATOM     17  O   UNL     1      -2.925   8.245  -4.101  0.00  0.00    -0.269 OA
ATOM     18  N   UNL     1      -3.936   8.755  -6.013  0.00  0.00    -0.324 N 
ATOM     19  H   UNL     1      -4.388   8.449  -6.815  0.00  0.00    +0.145 HD
ATOM     20  H   UNL     1      -3.804   9.704  -5.863  0.00  0.00    +0.145 HD
ENDBRANCH  12  16
ENDBRANCH   6  10
BRANCH   1  21
ATOM     21  C   UNL     1      -1.408  -0.632  -0.044  0.00  0.00    +0.162 C 
BRANCH  21  22
ATOM     22  N   UNL     1      -1.769  -2.014   0.283  0.00  0.00    -0.304 N 
ATOM     23  C   UNL     1      -1.739  -2.434   1.563  0.00  0.00    +0.211 C 
ATOM     24  O   UNL     1      -1.413  -1.668   2.445  0.00  0.00    -0.276 OA
ATOM     25  C   UNL     1      -2.110  -3.856   1.899  0.00  0.00    +0.109 C 
ATOM     26  H   UNL     1      -2.029  -2.627  -0.423  0.00  0.00    +0.149 HD
ENDBRANCH  21  22
BRANCH  21  28
ATOM     27  C   UNL     1       0.782  -0.835   1.141  0.00  0.00    +0.009 C 
ATOM     28  C   UNL     1       0.110  -0.524  -0.198  0.00  0.00    +0.012 C 
ATOM     29  C   UNL     1       0.588  -1.524  -1.252  0.00  0.00    +0.009 C 
ENDBRANCH  21  28
ENDBRANCH   1  21
TORSDOF 5
