REMARK  Name = ZINC03298568
REMARK  5 active torsions:
REMARK  status: ('A' for Active; 'I' for Inactive)
REMARK    1  A    between atoms: C_9  and  S_10
REMARK    2  A    between atoms: S_10  and  C_11
REMARK    3  A    between atoms: C_11  and  C_12
REMARK    4  A    between atoms: C_15  and  C_27
REMARK    5  A    between atoms: C_18  and  C_20
REMARK                            x       y       z     vdW  Elec       q    Type
REMARK                         _______ _______ _______ _____ _____    ______ ____
ROOT
ATOM      1  C   UNL     1       7.425  -1.997  -0.083  0.00  0.00    +0.243 C 
ATOM      2  O   UNL     1       7.919  -0.890  -0.082  0.00  0.00    -0.273 OA
ATOM      3  N   UNL     1       8.215  -3.089  -0.096  0.00  0.00    -0.207 N 
ATOM      4  C   UNL     1       9.687  -3.115  -0.105  0.00  0.00    +0.187 C 
ATOM      5  C   UNL     1      10.045  -4.585  -0.118  0.00  0.00    +0.030 C 
ATOM      6  C   UNL     1       8.906  -5.271  -0.117  0.00  0.00    +0.050 C 
ATOM      7  N   UNL     1       7.803  -4.428  -0.098  0.00  0.00    -0.261 N 
ATOM      8  H   UNL     1       6.880  -4.724  -0.090  0.00  0.00    +0.170 HD
ENDROOT
BRANCH   6   9
ATOM      9  C   UNL     1       8.824  -6.750  -0.128  0.00  0.00    -0.003 A 
ATOM     10  C   UNL     1       9.990  -7.516  -0.135  0.00  0.00    +0.011 A 
ATOM     11  C   UNL     1       9.908  -8.893  -0.145  0.00  0.00    +0.020 A 
ATOM     12  C   UNL     1       8.671  -9.515  -0.147  0.00  0.00    +0.041 A 
ATOM     13  C   UNL     1       7.511  -8.760  -0.140  0.00  0.00    +0.020 A 
ATOM     14  C   UNL     1       7.581  -7.382  -0.125  0.00  0.00    +0.011 A 
ATOM     15 CL   UNL     1       8.575 -11.248  -0.160  0.00  0.00    -0.084 Cl
ENDBRANCH   6   9
BRANCH   4  16
ATOM     16  C   UNL     1      10.217  -2.433  -1.340  0.00  0.00    +0.131 A 
ATOM     17  C   UNL     1      11.292  -1.626  -1.393  0.00  0.00    +0.047 A 
ATOM     18  C   UNL     1      11.426  -1.210  -2.737  0.00  0.00    +0.041 A 
ATOM     19  C   UNL     1      10.425  -1.786  -3.425  0.00  0.00    +0.195 A 
ATOM     20  O   UNL     1       9.699  -2.531  -2.575  0.00  0.00    -0.466 OA
ENDBRANCH   4  16
BRANCH   1  21
ATOM     21  C   UNL     1       5.926  -2.153  -0.068  0.00  0.00    +0.174 C 
BRANCH  21  22
ATOM     22  S   UNL     1       5.147  -0.515  -0.052  0.00  0.00    -0.076 S 
BRANCH  22  31
ATOM     23  C   UNL     1      -0.016   1.355   0.009  0.00  0.00    +0.005 A 
ATOM     24  C   UNL     1       1.194   2.072   0.002  0.00  0.00    +0.018 A 
ATOM     25  C   UNL     1       2.374   1.421  -0.013  0.00  0.00    +0.095 A 
ATOM     26  N   UNL     1       2.411   0.054  -0.021  0.00  0.00    -0.278 N 
ATOM     27  C   UNL     1       1.241  -0.676  -0.013  0.00  0.00    +0.162 A 
ATOM     28  C   UNL     1       0.002  -0.004   0.002  0.00  0.00    +0.049 A 
ATOM     29  N   UNL     1       1.584  -1.951  -0.024  0.00  0.00    -0.129 NA
ATOM     30  N   UNL     1       2.866  -2.055  -0.037  0.00  0.00    -0.122 NA
ATOM     31  C   UNL     1       3.420  -0.863  -0.036  0.00  0.00    +0.196 A 
ENDBRANCH  22  31
ENDBRANCH  21  22
ENDBRANCH   1  21
TORSDOF 5
