REMARK  Name = ZINC19376358
REMARK  5 active torsions:
REMARK  status: ('A' for Active; 'I' for Inactive)
REMARK    1  A    between atoms: N_15  and  C_18
REMARK    2  A    between atoms: C_18  and  C_19
REMARK    3  A    between atoms: C_19  and  C_21
REMARK    4  A    between atoms: C_19  and  O_31
REMARK    5  A    between atoms: C_33  and  O_35
REMARK                            x       y       z     vdW  Elec       q    Type
REMARK                         _______ _______ _______ _____ _____    ______ ____
ROOT
ATOM      1  C   UNL     1       8.715   1.060  -7.628  0.00  0.00    +0.001 A 
ATOM      2  C   UNL     1       8.130   1.372  -6.402  0.00  0.00    +0.001 A 
ATOM      3  C   UNL     1       8.171   0.495  -5.362  0.00  0.00    +0.012 A 
ATOM      4  C   UNL     1       8.812  -0.744  -5.523  0.00  0.00    +0.024 A 
ATOM      5  C   UNL     1       9.405  -1.062  -6.768  0.00  0.00    -0.014 A 
ATOM      6  C   UNL     1       9.345  -0.132  -7.819  0.00  0.00    +0.008 A 
ATOM      7  C   UNL     1      10.042  -2.304  -6.927  0.00  0.00    +0.009 A 
ATOM      8  C   UNL     1      10.075  -3.181  -5.888  0.00  0.00    +0.010 A 
ATOM      9  C   UNL     1       9.490  -2.875  -4.656  0.00  0.00    +0.023 A 
ATOM     10  C   UNL     1       8.874  -1.675  -4.461  0.00  0.00    +0.135 A 
ATOM     11  O   UNL     1       8.320  -1.331  -3.270  0.00  0.00    -0.485 OA
ATOM     12  C   UNL     1       8.062  -2.364  -2.322  0.00  0.00    +0.110 C 
ATOM     13  C   UNL     1       6.882  -3.217  -2.788  0.00  0.00    +0.029 C 
ATOM     14  C   UNL     1       5.621  -2.351  -2.841  0.00  0.00    -0.075 C 
ATOM     15  N   UNL     1       5.353  -1.791  -1.510  0.00  0.00    +0.382 N 
ATOM     16  C   UNL     1       6.454  -0.925  -1.067  0.00  0.00    -0.075 C 
ATOM     17  C   UNL     1       7.739  -1.748  -0.959  0.00  0.00    +0.029 C 
ATOM     18  C   UNL     1       9.314  -3.241  -2.202  0.00  0.00    +0.084 C 
ATOM     19  C   UNL     1       9.566  -3.907  -3.557  0.00  0.00    +0.152 C 
ATOM     20  H   UNL     1       5.280  -2.630  -0.802  0.00  0.00    -0.082 HD
ENDROOT
BRANCH  19  21
ATOM     21  O   UNL     1      10.863  -4.507  -3.557  0.00  0.00    -0.387 OA
ATOM     22  H   UNL     1      11.108  -5.287  -2.821  0.00  0.00    +0.210 HD
ENDBRANCH  19  21
BRANCH  15  23
ATOM     23  C   UNL     1       4.074  -1.069  -1.490  0.00  0.00    -0.042 C 
BRANCH  23  24
ATOM     24  C   UNL     1       3.709  -0.717  -0.047  0.00  0.00    +0.128 C 
BRANCH  24  25
ATOM     25  C   UNL     1       2.397   0.024  -0.026  0.00  0.00    -0.017 A 
ATOM     26  C   UNL     1       1.207  -0.680  -0.016  0.00  0.00    +0.010 A 
ATOM     27  C   UNL     1       0.002  -0.004   0.002  0.00  0.00    +0.050 A 
ATOM     28  C   UNL     1      -0.017   1.383   0.010  0.00  0.00    +0.162 A 
ATOM     29  C   UNL     1       1.179   2.090   0.002  0.00  0.00    +0.162 A 
ATOM     30  C   UNL     1       2.386   1.406  -0.017  0.00  0.00    +0.055 A 
ATOM     31  O   UNL     1       1.184   3.451   0.018  0.00  0.00    -0.485 OA
ATOM     32  C   UNL     1      -0.040   4.103  -0.340  0.00  0.00    +0.270 C 
ATOM     33  C   UNL     1      -1.189   3.413   0.408  0.00  0.00    +0.270 C 
ATOM     34  O   UNL     1      -1.212   2.035   0.019  0.00  0.00    -0.485 OA
ENDBRANCH  24  25
BRANCH  24  35
ATOM     35  O   UNL     1       3.591  -1.917   0.720  0.00  0.00    -0.389 OA
ATOM     36  H   UNL     1       3.332  -1.864   1.788  0.00  0.00    +0.210 HD
ENDBRANCH  24  35
ENDBRANCH  23  24
ENDBRANCH  15  23
TORSDOF 5
