REMARK  Name = ZINC08920171
REMARK  13 active torsions:
REMARK  status: ('A' for Active; 'I' for Inactive)
REMARK    1  A    between atoms: C_1  and  C_2
REMARK    2  A    between atoms: C_2  and  C_3
REMARK    3  A    between atoms: C_3  and  C_4
REMARK    4  A    between atoms: C_4  and  N_5
REMARK    5  A    between atoms: N_5  and  C_6
REMARK    6  A    between atoms: N_5  and  S_8
REMARK    7  A    between atoms: C_6  and  C_7
REMARK    8  A    between atoms: S_8  and  C_11
REMARK    9  A    between atoms: C_14  and  C_17
REMARK   10  A    between atoms: N_19  and  C_20
REMARK   11  A    between atoms: C_21  and  C_29
REMARK   12  A    between atoms: C_28  and  N_65
REMARK   13  A    between atoms: N_31  and  C_32
REMARK                            x       y       z     vdW  Elec       q    Type
REMARK                         _______ _______ _______ _____ _____    ______ ____
ROOT
ATOM      1  C   UNL     1      -3.119   3.066   4.885  0.00  0.00    +0.249 C 
ATOM      2  O   UNL     1      -3.928   2.303   5.378  0.00  0.00    -0.270 OA
ATOM      3  N   UNL     1      -2.918   4.281   5.433  0.00  0.00    -0.275 N 
ATOM      4  H   UNL     1      -2.273   4.889   5.040  0.00  0.00    +0.156 HD
ENDROOT
BRANCH   3   5
ATOM      5  C   UNL     1      -3.634   4.661   6.556  0.00  0.00    +0.085 A 
ATOM      6  C   UNL     1      -3.568   5.859   7.257  0.00  0.00    +0.068 A 
ATOM      7  C   UNL     1      -4.434   6.006   8.411  0.00  0.00    -0.027 A 
ATOM      8  C   UNL     1      -5.222   4.941   8.683  0.00  0.00    -0.021 A 
ATOM      9  S   UNL     1      -4.834   3.761   7.424  0.00  0.00    -0.079 S 
ATOM     10  C   UNL     1      -6.202   4.825   9.808  0.00  0.00    -0.036 C 
ATOM     11  C   UNL     1      -5.798   7.196  10.099  0.00  0.00    -0.074 C 
ATOM     12  C   UNL     1      -4.497   7.249   9.292  0.00  0.00    +0.018 C 
ATOM     13  C   UNL     1      -6.948   5.947  11.826  0.00  0.00    -0.096 C 
ATOM     14  N   UNL     1      -5.894   5.894  10.789  0.00  0.00    +0.381 N 
ATOM     15  H   UNL     1      -4.995   5.686  11.239  0.00  0.00    -0.082 HD
BRANCH   6  16
ATOM     16  C   UNL     1      -2.659   6.932   6.845  0.00  0.00    +0.246 C 
ATOM     17  O   UNL     1      -3.035   7.780   6.057  0.00  0.00    -0.270 OA
ATOM     18  N   UNL     1      -1.405   6.981   7.339  0.00  0.00    -0.314 N 
ATOM     19  C   UNL     1      -0.497   8.053   6.927  0.00  0.00    +0.128 C 
ATOM     20  H   UNL     1      -1.105   6.305   7.967  0.00  0.00    +0.149 HD
ENDBRANCH   6  16
ENDBRANCH   3   5
BRANCH   1  24
ATOM     21  C   UNL     1      -0.927   1.900   1.439  0.00  0.00    +0.106 A 
ATOM     22  C   UNL     1      -0.715   3.146   2.002  0.00  0.00    +0.029 A 
ATOM     23  C   UNL     1      -1.427   3.533   3.118  0.00  0.00    +0.015 A 
ATOM     24  C   UNL     1      -2.356   2.660   3.687  0.00  0.00    +0.037 A 
ATOM     25  C   UNL     1      -2.561   1.402   3.117  0.00  0.00    +0.015 A 
ATOM     26  C   UNL     1      -1.846   1.030   1.998  0.00  0.00    +0.029 A 
BRANCH  21  27
ATOM     27  S   UNL     1      -0.017   1.417   0.010  0.00  0.00    +0.061 S 
ATOM     28  O   UNL     1       0.002  -0.004   0.002  0.00  0.00    -0.153 OA
ATOM     29  O   UNL     1       1.172   2.195   0.003  0.00  0.00    -0.153 OA
BRANCH  27  30
ATOM     30  N   UNL     1      -0.897   1.885  -1.312  0.00  0.00    -0.177 NA
BRANCH  30  31
ATOM     31  C   UNL     1      -0.691   3.213  -1.897  0.00  0.00    +0.106 C 
ATOM     32  C   UNL     1       0.306   3.112  -3.053  0.00  0.00    +0.022 C 
ENDBRANCH  30  31
BRANCH  30  33
ATOM     33  C   UNL     1      -1.883   0.973  -1.897  0.00  0.00    +0.109 C 
BRANCH  33  34
ATOM     34  C   UNL     1      -3.267   1.280  -1.323  0.00  0.00    +0.017 C 
BRANCH  34  36
ATOM     35  C   UNL     1      -5.680   0.634  -1.359  0.00  0.00    +0.004 C 
ATOM     36  C   UNL     1      -4.296   0.327  -1.934  0.00  0.00    -0.002 C 
ENDBRANCH  34  36
ENDBRANCH  33  34
ENDBRANCH  30  33
ENDBRANCH  27  30
ENDBRANCH  21  27
ENDBRANCH   1  24
TORSDOF 9
