REMARK  Name = ZINC19518410
REMARK  2 active torsions:
REMARK  status: ('A' for Active; 'I' for Inactive)
REMARK    1  A    between atoms: C_3  and  N_9
REMARK    2  A    between atoms: C_6  and  C_7
REMARK                            x       y       z     vdW  Elec       q    Type
REMARK                         _______ _______ _______ _____ _____    ______ ____
ROOT
ATOM      1  N   UNL     1       3.582   2.135  -0.022  0.00  0.00    -0.210 N 
ATOM      2  C   UNL     1       3.638   3.492  -0.009  0.00  0.00    +0.230 C 
ATOM      3  O   UNL     1       2.725   4.257   0.218  0.00  0.00    -0.274 OA
ATOM      4  C   UNL     1       5.056   3.856  -0.332  0.00  0.00    +0.092 C 
ATOM      5  C   UNL     1       5.651   5.081   0.328  0.00  0.00    +0.040 C 
ATOM      6  C   UNL     1       7.148   5.013   0.115  0.00  0.00    -0.030 C 
ATOM      7  C   UNL     1       7.794   3.934  -0.209  0.00  0.00    -0.030 C 
ATOM      8  C   UNL     1       7.150   2.576  -0.398  0.00  0.00    +0.040 C 
ATOM      9  C   UNL     1       5.798   2.620   0.266  0.00  0.00    +0.092 C 
ATOM     10  C   UNL     1       4.804   1.542  -0.037  0.00  0.00    +0.230 C 
ATOM     11  O   UNL     1       5.043   0.374  -0.254  0.00  0.00    -0.274 OA
ENDROOT
BRANCH   1  14
ATOM     12  C   UNL     1      -0.017   1.393   0.010  0.00  0.00    +0.021 A 
ATOM     13  C   UNL     1       1.167   2.096   0.002  0.00  0.00    +0.025 A 
ATOM     14  C   UNL     1       2.381   1.418  -0.013  0.00  0.00    +0.044 A 
ATOM     15  C   UNL     1       2.404   0.027  -0.022  0.00  0.00    +0.025 A 
ATOM     16  C   UNL     1       1.224  -0.683  -0.014  0.00  0.00    +0.021 A 
ATOM     17  C   UNL     1       0.002  -0.004   0.002  0.00  0.00    +0.052 A 
BRANCH  17  18
ATOM     18  C   UNL     1      -1.227  -0.739   0.010  0.00  0.00    +0.099 C 
ATOM     19  N   UNL     1      -2.202  -1.321   0.016  0.00  0.00    -0.191 NA
ENDBRANCH  17  18
ENDBRANCH   1  14
TORSDOF 2
