REMARK  Name = ZINC21231275
REMARK  5 active torsions:
REMARK  status: ('A' for Active; 'I' for Inactive)
REMARK    1  A    between atoms: C_1  and  C_2
REMARK    2  A    between atoms: C_2  and  O_3
REMARK    3  A    between atoms: O_3  and  C_4
REMARK    4  A    between atoms: C_7  and  C_11
REMARK    5  A    between atoms: C_16  and  C_21
REMARK                            x       y       z     vdW  Elec       q    Type
REMARK                         _______ _______ _______ _____ _____    ______ ____
ROOT
ATOM      1  C   UNL     1       1.855  -2.737   1.171  0.00  0.00    +0.136 C 
ATOM      2  C   UNL     1       3.336  -2.601   1.437  0.00  0.00    +0.036 C 
ATOM      3  C   UNL     1       4.155  -1.693   0.884  0.00  0.00    +0.017 C 
ATOM      4  C   UNL     1       5.627  -1.651   1.265  0.00  0.00    +0.059 C 
ATOM      5  C   UNL     1       6.123  -3.062   1.578  0.00  0.00    +0.032 C 
ATOM      6  C   UNL     1       5.287  -3.603   2.743  0.00  0.00    +0.088 C 
ATOM      7  C   UNL     1       3.839  -3.550   2.357  0.00  0.00    +0.163 C 
ATOM      8  O   UNL     1       3.071  -4.351   2.853  0.00  0.00    -0.292 OA
ATOM      9  N   UNL     1       3.781  -0.757  -0.025  0.00  0.00    -0.316 N 
ATOM     10  C   UNL     1       2.658   0.054   0.088  0.00  0.00    +0.052 A 
ATOM     11  C   UNL     1       2.747   1.431   0.190  0.00  0.00    +0.025 A 
ATOM     12  C   UNL     1       1.586   2.186   0.224  0.00  0.00    +0.002 A 
ATOM     13  C   UNL     1       0.350   1.567   0.165  0.00  0.00    +0.002 A 
ATOM     14  C   UNL     1       0.260   0.188   0.090  0.00  0.00    +0.025 A 
ATOM     15  C   UNL     1       1.419  -0.571   0.059  0.00  0.00    +0.049 A 
ATOM     16  N   UNL     1       1.376  -1.963   0.045  0.00  0.00    -0.331 N 
ATOM     17  H   UNL     1       4.385  -0.599  -0.931  0.00  0.00    +0.152 HD
ATOM     18  H   UNL     1       0.970  -2.474  -0.840  0.00  0.00    +0.147 HD
ENDROOT
BRANCH   1  22
ATOM     19  C   UNL     1      -0.260  -1.489   4.670  0.00  0.00    +0.139 A 
ATOM     20  C   UNL     1       0.494  -0.574   3.950  0.00  0.00    +0.047 A 
ATOM     21  C   UNL     1       1.181  -0.981   2.823  0.00  0.00    +0.009 A 
ATOM     22  C   UNL     1       1.109  -2.297   2.405  0.00  0.00    -0.021 A 
ATOM     23  C   UNL     1       0.358  -3.212   3.120  0.00  0.00    +0.029 A 
ATOM     24  C   UNL     1      -0.327  -2.811   4.252  0.00  0.00    +0.083 A 
ATOM     25 CL   UNL     1      -1.268  -3.960   5.150  0.00  0.00    -0.080 Cl
BRANCH  19  26
ATOM     26  O   UNL     1      -0.932  -1.092   5.782  0.00  0.00    -0.491 OA
BRANCH  26  28
ATOM     27  C   UNL     1      -1.637   0.539   7.420  0.00  0.00    +0.048 C 
ATOM     28  C   UNL     1      -0.818   0.283   6.153  0.00  0.00    +0.226 C 
ENDBRANCH  26  28
ENDBRANCH  19  26
ENDBRANCH   1  22
BRANCH   5  29
ATOM     29  C   UNL     1       7.578  -3.016   1.969  0.00  0.00    -0.044 A 
ATOM     30  C   UNL     1       7.976  -2.272   3.064  0.00  0.00    +0.004 A 
ATOM     31  C   UNL     1       9.310  -2.234   3.425  0.00  0.00    +0.000 A 
ATOM     32  C   UNL     1      10.246  -2.932   2.686  0.00  0.00    +0.000 A 
ATOM     33  C   UNL     1       9.849  -3.671   1.588  0.00  0.00    +0.000 A 
ATOM     34  C   UNL     1       8.515  -3.714   1.229  0.00  0.00    +0.004 A 
ENDBRANCH   5  29
TORSDOF 4
