REMARK  Name = ZINC08283400
REMARK  10 active torsions:
REMARK  status: ('A' for Active; 'I' for Inactive)
REMARK    1  A    between atoms: C_1  and  C_2
REMARK    2  A    between atoms: C_5  and  C_8
REMARK    3  A    between atoms: C_11  and  S_14
REMARK    4  A    between atoms: N_12  and  N_13
REMARK    5  A    between atoms: S_14  and  C_15
REMARK    6  A    between atoms: C_15  and  C_17
REMARK    7  A    between atoms: C_15  and  C_18
REMARK    8  A    between atoms: N_20  and  C_21
REMARK    9  A    between atoms: C_26  and  C_31
REMARK   10  A    between atoms: C_28  and  C_30
REMARK                            x       y       z     vdW  Elec       q    Type
REMARK                         _______ _______ _______ _____ _____    ______ ____
ROOT
ATOM      1  C   UNL     1      -2.153   6.493   9.048  0.00  0.00    +0.182 A 
ATOM      2  N   UNL     1      -3.127   5.983   8.331  0.00  0.00    -0.127 NA
ATOM      3  N   UNL     1      -2.650   5.433   7.272  0.00  0.00    -0.121 NA
ATOM      4  C   UNL     1      -1.341   5.558   7.248  0.00  0.00    +0.209 A 
ATOM      5  N   UNL     1      -0.979   6.231   8.379  0.00  0.00    -0.224 N 
ENDROOT
BRANCH   1  10
ATOM      6  C   UNL     1      -2.688   9.278  14.056  0.00  0.00    +0.044 C 
ATOM      7  C   UNL     1      -2.548   8.549  12.744  0.00  0.00    -0.050 A 
ATOM      8  C   UNL     1      -3.605   7.802  12.255  0.00  0.00    +0.004 A 
ATOM      9  C   UNL     1      -3.483   7.132  11.055  0.00  0.00    +0.012 A 
ATOM     10  C   UNL     1      -2.290   7.209  10.334  0.00  0.00    +0.021 A 
ATOM     11  C   UNL     1      -1.226   7.960  10.836  0.00  0.00    +0.012 A 
ATOM     12  C   UNL     1      -1.363   8.630  12.034  0.00  0.00    +0.004 A 
ENDBRANCH   1  10
BRANCH   5  13
ATOM     13  N   UNL     1       0.285   6.576   8.765  0.00  0.00    -0.295 N 
ATOM     14  H   UNL     1       0.538   7.484   8.407  0.00  0.00    +0.163 HD
ATOM     15  H   UNL     1       0.378   6.544   9.770  0.00  0.00    +0.163 HD
ENDBRANCH   5  13
BRANCH   4  16
ATOM     16  S   UNL     1      -0.257   4.961   5.994  0.00  0.00    -0.072 S 
BRANCH  16  17
ATOM     17  C   UNL     1      -1.459   4.199   4.876  0.00  0.00    +0.137 C 
ATOM     18  C   UNL     1      -2.131   3.017   5.577  0.00  0.00    +0.029 C 
BRANCH  17  19
ATOM     19  C   UNL     1      -0.754   3.713   3.636  0.00  0.00    +0.226 C 
ATOM     20  O   UNL     1       0.427   3.441   3.678  0.00  0.00    -0.275 OA
ATOM     21  N   UNL     1      -1.435   3.582   2.481  0.00  0.00    -0.311 N 
ATOM     22  H   UNL     1      -2.380   3.800   2.447  0.00  0.00    +0.149 HD
BRANCH  21  23
ATOM     23  C   UNL     1      -0.750   3.109   1.275  0.00  0.00    +0.076 C 
ATOM     24  C   UNL     1      -0.729   1.579   1.267  0.00  0.00    +0.022 C 
ATOM     25  C   UNL     1      -0.013   1.086   0.008  0.00  0.00    +0.002 C 
ATOM     26  C   UNL     1      -0.753   1.593  -1.232  0.00  0.00    +0.003 C 
ATOM     27  C   UNL     1      -0.773   3.123  -1.223  0.00  0.00    -0.009 C 
ATOM     28  C   UNL     1      -1.490   3.616   0.036  0.00  0.00    +0.009 C 
ATOM     29  C   UNL     1      -1.510   5.146   0.044  0.00  0.00    +0.009 C 
ATOM     30  C   UNL     1       0.662   3.652  -1.234  0.00  0.00    +0.008 C 
ENDBRANCH  21  23
ENDBRANCH  17  19
ENDBRANCH  16  17
ENDBRANCH   4  16
TORSDOF 6
