REMARK  Name = ZINC15955654
REMARK  15 active torsions:
REMARK  status: ('A' for Active; 'I' for Inactive)
REMARK    1  A    between atoms: CD1_1  and  CG1_2
REMARK    2  A    between atoms: CG1_2  and  CB_3
REMARK    3  A    between atoms: CB_3  and  CG2_5
REMARK    4  A    between atoms: CB_3  and  CA_6
REMARK    5  A    between atoms: CA_6  and  C_8
REMARK    6  A    between atoms: CA_6  and  N_10
REMARK    7  A    between atoms: C_11  and  C_13
REMARK    8  A    between atoms: C_13  and  N_14
REMARK    9  A    between atoms: C_15  and  C_17
REMARK   10  A    between atoms: C_17  and  C_18
REMARK   11  A    between atoms: C_18  and  C_19
REMARK   12  A    between atoms: C_20  and  C_36
REMARK   13  A    between atoms: C_24  and  C_35
REMARK   14  A    between atoms: C_25  and  C_34
REMARK   15  A    between atoms: C_28  and  C_33
REMARK                            x       y       z     vdW  Elec       q    Type
REMARK                         _______ _______ _______ _____ _____    ______ ____
ROOT
ATOM      1  C   UNK A   0       7.306   1.703  -0.059  0.00  0.00    +0.052 C 
ENDROOT
BRANCH   1   2
ATOM      2  C   UNK A   0       8.438   2.698  -0.064  0.00  0.00    +0.041 A 
ATOM      3  C   UNK A   0       8.942   3.149  -1.241  0.00  0.00    -0.030 A 
ATOM      4  C   UNK A   0      10.039   4.120  -1.198  0.00  0.00    +0.022 A 
ATOM      5  C   UNK A   0      10.593   4.623  -2.375  0.00  0.00    +0.023 A 
ATOM      6  C   UNK A   0      11.636   5.536  -2.300  0.00  0.00    +0.024 A 
ATOM      7  C   UNK A   0      12.439   6.256  -3.298  0.00  0.00    -0.002 A 
ATOM      8  C   UNK A   0      13.306   7.007  -2.608  0.00  0.00    +0.106 A 
ATOM      9  O   UNK A   0      13.127   6.831  -1.286  0.00  0.00    -0.459 OA
ATOM     10  C   UNK A   0      12.131   5.954  -1.047  0.00  0.00    +0.142 A 
ATOM     11  C   UNK A   0      11.574   5.449   0.119  0.00  0.00    +0.035 A 
ATOM     12  C   UNK A   0      10.535   4.538   0.055  0.00  0.00    +0.146 A 
ATOM     13  O   UNK A   0       9.989   4.043   1.189  0.00  0.00    -0.422 OA
ATOM     14  C   UNK A   0       8.981   3.158   1.154  0.00  0.00    +0.341 A 
ATOM     15  O   UNK A   0       8.523   2.741   2.203  0.00  0.00    -0.245 OA
ATOM     16  C   UNK A   0      12.103   5.894   1.458  0.00  0.00    +0.051 C 
ATOM     17  C   UNK A   0      14.336   7.918  -3.224  0.00  0.00    +0.086 C 
ATOM     18  C   UNK A   0      12.313   6.165  -4.797  0.00  0.00    +0.048 C 
ATOM     19  C   UNK A   0       8.385   2.668  -2.556  0.00  0.00    +0.045 C 
ENDBRANCH   1   2
BRANCH   1  20
ATOM     20  C   UNK A   0       5.971   2.450  -0.042  0.00  0.00    +0.100 C 
BRANCH  20  22
ATOM     21  N   UNK A   0       3.562   1.887  -0.022  0.00  0.00    -0.307 N 
ATOM     22  C   UNK A   0       4.839   1.455  -0.036  0.00  0.00    +0.214 C 
ATOM     23  O   UNK A   0       5.077   0.266  -0.045  0.00  0.00    -0.276 OA
ATOM     24  H   UNK A   0       3.372   2.838  -0.015  0.00  0.00    +0.149 HD
BRANCH  21  25
ATOM     25  C   UNK A   0       2.462   0.920  -0.017  0.00  0.00    +0.200 C 
BRANCH  25  27
ATOM     26  N   ILE A   1      -0.011   0.966   0.007  0.00  0.00    -0.301 N 
ATOM     27  C   UNK A   0       1.147   1.655   0.000  0.00  0.00    +0.231 C 
ATOM     28  O   UNK A   0       1.130   2.868   0.007  0.00  0.00    -0.274 OA
ATOM     29  H   ILE A   1       0.002  -0.004   0.002  0.00  0.00    +0.150 HD
BRANCH  26  30
ATOM     30  CA  ILE A   1      -1.290   1.681   0.017  0.00  0.00    +0.189 C 
BRANCH  30  31
ATOM     31  C   ILE A   1      -1.661   2.027   1.436  0.00  0.00    +0.376 C 
ATOM     32  O   ILE A   1      -0.932   1.708   2.346  0.00  0.00    -0.244 OA
ATOM     33  OXT ILE A   1      -2.801   2.688   1.690  0.00  0.00    -0.244 OA
ENDBRANCH  30  31
BRANCH  30  34
ATOM     34  CB  ILE A   1      -2.376   0.792  -0.592  0.00  0.00    +0.017 C 
ATOM     35  CG2 ILE A   1      -2.591  -0.433   0.298  0.00  0.00    +0.010 C 
BRANCH  34  37
ATOM     36  CD1 ILE A   1      -4.733   0.737  -1.418  0.00  0.00    +0.004 C 
ATOM     37  CG1 ILE A   1      -3.682   1.582  -0.696  0.00  0.00    +0.002 C 
ENDBRANCH  34  37
ENDBRANCH  30  34
ENDBRANCH  26  30
ENDBRANCH  25  27
ENDBRANCH  21  25
ENDBRANCH  20  22
ENDBRANCH   1  20
TORSDOF 9
