REMARK  Name = ZINC11313604
REMARK  6 active torsions:
REMARK  status: ('A' for Active; 'I' for Inactive)
REMARK    1  A    between atoms: C_13  and  N_17
REMARK    2  A    between atoms: C_18  and  C_20
REMARK    3  A    between atoms: C_20  and  S_21
REMARK    4  A    between atoms: S_21  and  C_22
REMARK    5  A    between atoms: C_25  and  C_28
REMARK    6  A    between atoms: N_26  and  N_27
REMARK                            x       y       z     vdW  Elec       q    Type
REMARK                         _______ _______ _______ _____ _____    ______ ____
ROOT
ATOM      1  N   UNL     1       6.166  -2.105  -0.070  0.00  0.00    -0.284 N 
ATOM      2  C   UNL     1       7.341  -2.760   0.018  0.00  0.00    +0.228 C 
ATOM      3  O   UNL     1       7.361  -3.973   0.011  0.00  0.00    -0.275 OA
ATOM      4  H   UNL     1       6.154  -1.138  -0.145  0.00  0.00    +0.155 HD
ENDROOT
BRANCH   1  17
ATOM      5  C   UNL     1       0.370   0.657  -3.095  0.00  0.00    +0.001 A 
ATOM      6  C   UNL     1       1.554   1.371  -3.119  0.00  0.00    +0.001 A 
ATOM      7  C   UNL     1       2.697   0.853  -2.536  0.00  0.00    +0.012 A 
ATOM      8  C   UNL     1       2.658  -0.395  -1.921  0.00  0.00    +0.033 A 
ATOM      9  C   UNL     1       1.454  -1.121  -1.895  0.00  0.00    +0.033 A 
ATOM     10  C   UNL     1       0.313  -0.585  -2.487  0.00  0.00    +0.012 A 
ATOM     11  C   UNL     1       1.403  -2.446  -1.244  0.00  0.00    +0.195 C 
ATOM     12  O   UNL     1       0.363  -3.074  -1.222  0.00  0.00    -0.287 OA
ATOM     13  C   UNL     1       2.620  -3.006  -0.619  0.00  0.00    +0.035 A 
ATOM     14  C   UNL     1       2.582  -4.253  -0.004  0.00  0.00    +0.012 A 
ATOM     15  C   UNL     1       3.725  -4.774   0.581  0.00  0.00    +0.003 A 
ATOM     16  C   UNL     1       4.909  -4.067   0.560  0.00  0.00    +0.024 A 
ATOM     17  C   UNL     1       4.971  -2.816  -0.051  0.00  0.00    +0.045 A 
ATOM     18  C   UNL     1       3.824  -2.277  -0.645  0.00  0.00    +0.054 A 
ATOM     19  C   UNL     1       3.874  -0.956  -1.296  0.00  0.00    +0.196 C 
ATOM     20  O   UNL     1       4.914  -0.328  -1.317  0.00  0.00    -0.287 OA
ENDBRANCH   1  17
BRANCH   2  21
ATOM     21  C   UNL     1       8.629  -1.986   0.124  0.00  0.00    +0.173 C 
BRANCH  21  22
ATOM     22  S   UNL     1      10.023  -3.142   0.225  0.00  0.00    -0.075 S 
BRANCH  22  23
ATOM     23  C   UNL     1      11.437  -2.097   0.342  0.00  0.00    +0.209 A 
ATOM     24  N   UNL     1      11.435  -0.782   0.357  0.00  0.00    -0.121 NA
ATOM     25  N   UNL     1      12.638  -0.341   0.452  0.00  0.00    -0.127 NA
ATOM     26  C   UNL     1      13.482  -1.346   0.504  0.00  0.00    +0.182 A 
ATOM     27  N   UNL     1      12.737  -2.501   0.441  0.00  0.00    -0.224 N 
BRANCH  26  28
ATOM     28  C   UNL     1      14.953  -1.253   0.615  0.00  0.00    +0.022 A 
ATOM     29  C   UNL     1      15.748  -2.368   0.342  0.00  0.00    +0.012 A 
ATOM     30  C   UNL     1      17.120  -2.276   0.448  0.00  0.00    +0.002 A 
ATOM     31  C   UNL     1      17.710  -1.081   0.823  0.00  0.00    +0.020 A 
ATOM     32  C   UNL     1      16.928   0.028   1.095  0.00  0.00    +0.042 A 
ATOM     33  C   UNL     1      15.553  -0.050   0.987  0.00  0.00    +0.031 A 
ATOM     34 CL   UNL     1      17.677   1.522   1.565  0.00  0.00    -0.084 Cl
ENDBRANCH  26  28
BRANCH  27  35
ATOM     35  N   UNL     1      13.203  -3.785   0.468  0.00  0.00    -0.295 N 
ATOM     36  H   UNL     1      13.399  -4.118  -0.463  0.00  0.00    +0.163 HD
ATOM     37  H   UNL     1      14.017  -3.862   1.060  0.00  0.00    +0.163 HD
ENDBRANCH  27  35
ENDBRANCH  22  23
ENDBRANCH  21  22
ENDBRANCH   2  21
TORSDOF 6
