REMARK  Name = ZINC63860265
REMARK  12 active torsions:
REMARK  status: ('A' for Active; 'I' for Inactive)
REMARK    1  A    between atoms: C_1  and  C_2
REMARK    2  A    between atoms: C_2  and  C_3
REMARK    3  A    between atoms: C_8  and  N_9
REMARK    4  A    between atoms: C_10  and  C_12
REMARK    5  A    between atoms: C_12  and  S_13
REMARK    6  A    between atoms: S_13  and  C_16
REMARK    7  A    between atoms: C_16  and  C_17
REMARK    8  A    between atoms: C_19  and  C_22
REMARK    9  A    between atoms: C_22  and  C_23
REMARK   10  A    between atoms: C_23  and  C_24
REMARK   11  A    between atoms: C_24  and  C_25
REMARK   12  A    between atoms: C_24  and  C_26
REMARK                            x       y       z     vdW  Elec       q    Type
REMARK                         _______ _______ _______ _____ _____    ______ ____
ROOT
ATOM      1  S   UNL     1      -2.568  -0.672  -6.236  0.00  0.00    -0.014 S 
ATOM      2  O   UNL     1      -2.819  -2.071  -6.218  0.00  0.00    -0.173 OA
ATOM      3  O   UNL     1      -3.667   0.228  -6.198  0.00  0.00    -0.173 OA
ENDROOT
BRANCH   1   4
ATOM      4  C   UNL     1      -1.451  -0.272  -4.864  0.00  0.00    +0.262 C 
BRANCH   4   6
ATOM      5  N   UNL     1      -1.505  -0.315  -2.391  0.00  0.00    -0.284 N 
ATOM      6  C   UNL     1      -2.147  -0.541  -3.555  0.00  0.00    +0.238 C 
ATOM      7  O   UNL     1      -3.285  -0.961  -3.548  0.00  0.00    -0.274 OA
ATOM      8  H   UNL     1      -0.620   0.082  -2.395  0.00  0.00    +0.155 HD
BRANCH   5  14
ATOM      9  C   UNL     1      -1.349  -1.119  -0.119  0.00  0.00    -0.026 A 
ATOM     10  C   UNL     1      -1.954  -1.445   1.079  0.00  0.00    +0.005 A 
ATOM     11  C   UNL     1      -3.322  -1.313   1.222  0.00  0.00    +0.000 A 
ATOM     12  C   UNL     1      -4.090  -0.854   0.168  0.00  0.00    +0.002 A 
ATOM     13  C   UNL     1      -3.491  -0.525  -1.033  0.00  0.00    +0.023 A 
ATOM     14  C   UNL     1      -2.116  -0.652  -1.178  0.00  0.00    +0.037 A 
BRANCH   9  16
ATOM     15  C   UNL     1       0.819   0.078   0.019  0.00  0.00    +0.009 C 
ATOM     16  C   UNL     1       0.143  -1.263  -0.275  0.00  0.00    +0.033 C 
ENDBRANCH   9  16
ENDBRANCH   5  14
ENDBRANCH   4   6
ENDBRANCH   1   4
BRANCH   1  17
ATOM     17  C   UNL     1      -1.563  -0.288  -7.696  0.00  0.00    +0.264 C 
BRANCH  17  18
ATOM     18  C   UNL     1      -2.360  -0.571  -8.944  0.00  0.00    +0.248 A 
ATOM     19  N   UNL     1      -3.126   0.279  -9.570  0.00  0.00    -0.195 NA
ATOM     20  C   UNL     1      -3.682  -0.305 -10.637  0.00  0.00    +0.172 A 
ATOM     21  N   UNL     1      -3.275  -1.540 -10.703  0.00  0.00    -0.061 NA
ATOM     22  O   UNL     1      -2.399  -1.736  -9.602  0.00  0.00    -0.336 OA
BRANCH  20  23
ATOM     23  C   UNL     1      -4.627   0.358 -11.606  0.00  0.00    +0.080 C 
BRANCH  23  24
ATOM     24  C   UNL     1      -3.827   0.996 -12.743  0.00  0.00    +0.011 C 
BRANCH  24  25
ATOM     25  C   UNL     1      -4.787   1.669 -13.727  0.00  0.00    -0.017 C 
ATOM     26  C   UNL     1      -3.983   2.412 -14.796  0.00  0.00    +0.007 C 
ATOM     27  C   UNL     1      -5.662   0.607 -14.394  0.00  0.00    +0.007 C 
ENDBRANCH  24  25
ENDBRANCH  23  24
ENDBRANCH  20  23
ENDBRANCH  17  18
ENDBRANCH   1  17
TORSDOF 9
