REMARK  Name = ZINC12010237
REMARK  6 active torsions:
REMARK  status: ('A' for Active; 'I' for Inactive)
REMARK    1  A    between atoms: C_1  and  C_2
REMARK    2  A    between atoms: C_2  and  O_3
REMARK    3  A    between atoms: O_3  and  C_4
REMARK    4  A    between atoms: C_7  and  C_10
REMARK    5  A    between atoms: N_12  and  C_13
REMARK    6  A    between atoms: C_15  and  C_30
REMARK                            x       y       z     vdW  Elec       q    Type
REMARK                         _______ _______ _______ _____ _____    ______ ____
ROOT
ATOM      1  C   UNL     1       1.300  -0.402  -0.013  0.00  0.00    +0.133 A 
ATOM      2  C   UNL     1       0.002  -0.004   0.002  0.00  0.00    +0.077 A 
ATOM      3  C   UNL     1      -0.017   1.407   0.010  0.00  0.00    +0.130 A 
ATOM      4  N   UNL     1       1.229   1.835   0.000  0.00  0.00    -0.159 NA
ATOM      5  N   UNL     1       2.078   0.721  -0.014  0.00  0.00    -0.184 N 
ATOM      6  C   UNL     1       3.458   0.753  -0.027  0.00  0.00    +0.234 A 
ATOM      7  N   UNL     1       4.101   1.951  -0.027  0.00  0.00    -0.291 N 
ATOM      8  H   UNL     1       3.593   2.777  -0.014  0.00  0.00    +0.172 HD
ATOM      9  C   UNL     1       5.448   1.982  -0.044  0.00  0.00    +0.256 A 
ATOM     10  O   UNL     1       6.043   3.047  -0.042  0.00  0.00    -0.267 OA
ATOM     11  C   UNL     1       6.163   0.763  -0.065  0.00  0.00    +0.038 A 
ATOM     12  C   UNL     1       5.469  -0.403  -0.055  0.00  0.00    +0.053 A 
ATOM     13  N   UNL     1       4.130  -0.375  -0.035  0.00  0.00    -0.217 NA
ATOM     14  C   UNL     1       6.143  -1.749  -0.053  0.00  0.00    +0.056 C 
ATOM     15  C   UNL     1       7.595  -1.624  -0.512  0.00  0.00    +0.006 C 
ATOM     16  C   UNL     1       8.268  -0.518   0.310  0.00  0.00    +0.005 C 
ATOM     17  C   UNL     1       7.665   0.823  -0.104  0.00  0.00    +0.042 C 
ENDROOT
BRANCH   3  18
ATOM     18  C   UNL     1      -1.226   2.257   0.020  0.00  0.00    +0.155 A 
ATOM     19  C   UNL     1      -1.245   3.616   0.033  0.00  0.00    +0.051 A 
ATOM     20  C   UNL     1      -2.600   4.003   0.037  0.00  0.00    +0.042 A 
ATOM     21  C   UNL     1      -3.333   2.873   0.035  0.00  0.00    +0.196 A 
ATOM     22  O   UNL     1      -2.500   1.820   0.025  0.00  0.00    -0.461 OA
ENDBRANCH   3  18
BRANCH   1  25
ATOM     23  C   UNL     1       0.874  -2.736  -0.021  0.00  0.00    +0.249 C 
ATOM     24  O   UNL     1      -0.321  -2.507  -0.009  0.00  0.00    -0.270 OA
ATOM     25  N   UNL     1       1.756  -1.717  -0.024  0.00  0.00    -0.266 N 
ATOM     26  H   UNL     1       2.708  -1.900  -0.034  0.00  0.00    +0.157 HD
BRANCH  23  30
ATOM     27  C   UNL     1       2.264  -6.748  -0.058  0.00  0.00    +0.121 A 
ATOM     28  C   UNL     1       0.899  -6.488  -0.043  0.00  0.00    +0.046 A 
ATOM     29  C   UNL     1       0.444  -5.188  -0.031  0.00  0.00    +0.016 A 
ATOM     30  C   UNL     1       1.357  -4.130  -0.034  0.00  0.00    +0.037 A 
ATOM     31  C   UNL     1       2.729  -4.396  -0.053  0.00  0.00    +0.016 A 
ATOM     32  C   UNL     1       3.176  -5.699  -0.060  0.00  0.00    +0.046 A 
BRANCH  27  33
ATOM     33  O   UNL     1       2.709  -8.030  -0.070  0.00  0.00    -0.492 OA
BRANCH  33  35
ATOM     34  C   UNL     1       4.432  -9.725  -0.097  0.00  0.00    +0.048 C 
ATOM     35  C   UNL     1       4.125  -8.226  -0.085  0.00  0.00    +0.225 C 
ENDBRANCH  33  35
ENDBRANCH  27  33
ENDBRANCH  23  30
ENDBRANCH   1  25
TORSDOF 5
