REMARK  Name = ZINC40826664
REMARK  10 active torsions:
REMARK  status: ('A' for Active; 'I' for Inactive)
REMARK    1  A    between atoms: C_1  and  C_2
REMARK    2  A    between atoms: C_2  and  C_3
REMARK    3  A    between atoms: C_3  and  N_4
REMARK    4  A    between atoms: C_5  and  C_7
REMARK    5  A    between atoms: C_8  and  C_32
REMARK    6  A    between atoms: N_16  and  N_17
REMARK    7  A    between atoms: C_18  and  C_20
REMARK    8  A    between atoms: C_20  and  C_21
REMARK    9  A    between atoms: C_28  and  C_31
REMARK   10  A    between atoms: C_29  and  C_30
REMARK                            x       y       z     vdW  Elec       q    Type
REMARK                         _______ _______ _______ _____ _____    ______ ____
ROOT
ATOM      1  C   UNL     1       1.341  -4.090  -2.293  0.00  0.00    +0.193 A 
ATOM      2  C   UNL     1       1.902  -4.875  -3.261  0.00  0.00    +0.009 A 
ATOM      3  C   UNL     1       1.688  -6.201  -2.862  0.00  0.00    +0.042 A 
ATOM      4  C   UNL     1       1.004  -6.168  -1.670  0.00  0.00    +0.115 A 
ATOM      5  O   UNL     1       0.812  -4.892  -1.341  0.00  0.00    -0.454 OA
ATOM      6  C   UNL     1       0.586  -7.412  -0.929  0.00  0.00    +0.075 C 
ATOM      7  C   UNL     1       0.562  -8.597  -1.899  0.00  0.00    +0.014 C 
ATOM      8  C   UNL     1       1.897  -8.715  -2.641  0.00  0.00    +0.058 C 
ATOM      9  C   UNL     1       2.073  -7.476  -3.506  0.00  0.00    +0.070 C 
ATOM     10  N   UNL     1       2.526  -7.534  -4.721  0.00  0.00    -0.184 NA
ATOM     11  C   UNL     1       2.609  -4.409  -4.507  0.00  0.00    +0.048 C 
ENDROOT
BRANCH   1  13
ATOM     12  N   UNL     1       0.738  -1.962  -1.265  0.00  0.00    -0.309 N 
ATOM     13  C   UNL     1       1.321  -2.623  -2.285  0.00  0.00    +0.280 C 
ATOM     14  O   UNL     1       1.831  -2.002  -3.199  0.00  0.00    -0.267 OA
ATOM     15  H   UNL     1       0.332  -2.457  -0.536  0.00  0.00    +0.149 HD
BRANCH  12  16
ATOM     16  C   UNL     1       0.718  -0.497  -1.257  0.00  0.00    +0.104 C 
BRANCH  16  18
ATOM     17  C   UNL     1      -0.019   1.526   0.010  0.00  0.00    +0.005 C 
ATOM     18  C   UNL     1       0.002  -0.004   0.002  0.00  0.00    +0.015 C 
ENDBRANCH  16  18
ENDBRANCH  12  16
ENDBRANCH   1  13
BRANCH  10  19
ATOM     19  N   UNL     1       2.875  -8.770  -5.280  0.00  0.00    -0.206 N 
ATOM     20  C   UNL     1       3.346  -8.829  -6.542  0.00  0.00    +0.237 C 
ATOM     21  O   UNL     1       3.467  -7.813  -7.193  0.00  0.00    -0.274 OA
ATOM     22  H   UNL     1       2.778  -9.582  -4.760  0.00  0.00    +0.177 HD
BRANCH  20  23
ATOM     23  C   UNL     1       3.721 -10.159  -7.144  0.00  0.00    +0.136 C 
BRANCH  23  24
ATOM     24  C   UNL     1       4.215  -9.951  -8.552  0.00  0.00    +0.007 A 
ATOM     25  C   UNL     1       3.496 -10.042  -9.679  0.00  0.00    +0.200 A 
ATOM     26  O   UNL     1       4.273  -9.791 -10.747  0.00  0.00    -0.462 OA
ATOM     27  C   UNL     1       5.539  -9.524 -10.368  0.00  0.00    +0.138 A 
ATOM     28  C   UNL     1       5.580  -9.602  -8.965  0.00  0.00    +0.024 A 
ATOM     29  C   UNL     1       6.773  -9.366  -8.285  0.00  0.00    +0.012 A 
ATOM     30  C   UNL     1       7.911  -9.052  -8.996  0.00  0.00    +0.004 A 
ATOM     31  C   UNL     1       7.871  -8.971 -10.380  0.00  0.00    -0.044 A 
ATOM     32  C   UNL     1       6.699  -9.210 -11.065  0.00  0.00    -0.005 A 
ATOM     33  C   UNL     1       6.671  -9.116 -12.569  0.00  0.00    +0.048 C 
ATOM     34  C   UNL     1       9.123  -8.625 -11.143  0.00  0.00    +0.044 C 
ENDBRANCH  23  24
ENDBRANCH  20  23
ENDBRANCH  10  19
TORSDOF 6
