REMARK  Name = ZINC22936170
REMARK  12 active torsions:
REMARK  status: ('A' for Active; 'I' for Inactive)
REMARK    1  A    between atoms: C_1  and  C_2
REMARK    2  A    between atoms: C_2  and  N_3
REMARK    3  A    between atoms: C_7  and  C_9
REMARK    4  A    between atoms: C_9  and  N_10
REMARK    5  A    between atoms: N_10  and  C_11
REMARK    6  A    between atoms: C_11  and  C_12
REMARK    7  A    between atoms: C_14  and  O_28
REMARK    8  A    between atoms: C_15  and  O_19
REMARK    9  A    between atoms: O_19  and  C_20
REMARK   10  A    between atoms: C_20  and  C_21
REMARK   11  A    between atoms: O_28  and  C_29
REMARK   12  A    between atoms: C_29  and  C_30
REMARK                            x       y       z     vdW  Elec       q    Type
REMARK                         _______ _______ _______ _____ _____    ______ ____
ROOT
ATOM      1  C   UNL     1      -3.398  -1.475   3.958  0.00  0.00    -0.060 A 
ATOM      2  C   UNL     1      -3.512  -0.243   4.574  0.00  0.00    +0.051 A 
ATOM      3  C   UNL     1      -4.747   0.379   4.658  0.00  0.00    +0.163 A 
ATOM      4  C   UNL     1      -5.872  -0.239   4.121  0.00  0.00    +0.176 A 
ATOM      5  C   UNL     1      -5.752  -1.474   3.503  0.00  0.00    +0.063 A 
ATOM      6  C   UNL     1      -4.514  -2.087   3.419  0.00  0.00    +0.021 A 
ATOM      7 BR   UNL     1      -7.277  -2.319   2.771  0.00  0.00    -0.046 Br
ENDROOT
BRANCH   1   8
ATOM      8  C   UNL     1      -2.054  -2.150   3.867  0.00  0.00    -0.047 C 
BRANCH   8   9
ATOM      9  N   UNL     1      -1.380  -1.736   2.629  0.00  0.00    +0.381 N 
ATOM     10  H   UNL     1      -1.255  -0.734   2.633  0.00  0.00    -0.086 HD
ATOM     11  H   UNL     1      -1.944  -2.001   1.835  0.00  0.00    -0.086 HD
BRANCH   9  12
ATOM     12  C   UNL     1      -0.070  -2.393   2.541  0.00  0.00    -0.098 C 
BRANCH  12  17
ATOM     13  N   UNL     1       0.713  -0.491   1.192  0.00  0.00    +0.380 N 
ATOM     14  C   UNL     1       2.136  -0.100   1.116  0.00  0.00    -0.079 C 
ATOM     15  C   UNL     1       2.907  -1.290   1.740  0.00  0.00    -0.020 C 
ATOM     16  C   UNL     1       2.078  -2.500   1.235  0.00  0.00    -0.019 C 
ATOM     17  C   UNL     1       0.632  -1.962   1.251  0.00  0.00    -0.086 C 
ATOM     18  H   UNL     1       0.298  -0.094   2.022  0.00  0.00    -0.082 HD
BRANCH  13  20
ATOM     19  C   UNL     1      -0.019   1.526   0.010  0.00  0.00    -0.017 C 
ATOM     20  C   UNL     1       0.002  -0.004   0.002  0.00  0.00    -0.082 C 
ENDBRANCH  13  20
ENDBRANCH  12  17
ENDBRANCH   9  12
ENDBRANCH   8   9
ENDBRANCH   1   8
BRANCH   4  21
ATOM     21  O   UNL     1      -7.087   0.367   4.201  0.00  0.00    -0.483 OA
BRANCH  21  22
ATOM     22  C   UNL     1      -7.452   1.234   3.126  0.00  0.00    +0.264 C 
BRANCH  22  23
ATOM     23  C   UNL     1      -8.819   1.810   3.387  0.00  0.00    -0.010 A 
ATOM     24  C   UNL     1      -9.946   1.148   2.936  0.00  0.00    +0.008 A 
ATOM     25  C   UNL     1     -11.201   1.676   3.175  0.00  0.00    +0.020 A 
ATOM     26  C   UNL     1     -11.329   2.868   3.866  0.00  0.00    +0.041 A 
ATOM     27  C   UNL     1     -10.201   3.530   4.317  0.00  0.00    +0.020 A 
ATOM     28  C   UNL     1      -8.947   2.998   4.082  0.00  0.00    +0.008 A 
ATOM     29 CL   UNL     1     -12.905   3.532   4.166  0.00  0.00    -0.084 Cl
ENDBRANCH  22  23
ENDBRANCH  21  22
ENDBRANCH   4  21
BRANCH   3  30
ATOM     30  O   UNL     1      -4.860   1.591   5.265  0.00  0.00    -0.489 OA
BRANCH  30  31
ATOM     31  C   UNL     1      -3.664   2.165   5.795  0.00  0.00    +0.226 C 
ATOM     32  C   UNL     1      -3.987   3.517   6.434  0.00  0.00    +0.048 C 
ENDBRANCH  30  31
ENDBRANCH   3  30
TORSDOF 10
