REMARK  Name = ZINC39671649
REMARK  9 active torsions:
REMARK  status: ('A' for Active; 'I' for Inactive)
REMARK    1  A    between atoms: C_1  and  C_2
REMARK    2  A    between atoms: C_4  and  C_38
REMARK    3  A    between atoms: N_5  and  C_7
REMARK    4  A    between atoms: C_7  and  C_8
REMARK    5  A    between atoms: C_8  and  C_9
REMARK    6  A    between atoms: C_9  and  N_10
REMARK    7  A    between atoms: C_11  and  C_13
REMARK    8  A    between atoms: C_24  and  C_26
REMARK    9  A    between atoms: C_32  and  C_34
REMARK                            x       y       z     vdW  Elec       q    Type
REMARK                         _______ _______ _______ _____ _____    ______ ____
ROOT
ATOM      1  C   UNL     1       4.606  -6.758   4.021  0.00  0.00    +0.100 C 
ATOM      2  C   UNL     1       5.356  -5.585   4.691  0.00  0.00    +0.121 C 
ATOM      3  N   UNL     1       5.252  -5.856   6.144  0.00  0.00    -0.299 N 
ATOM      4  C   UNL     1       5.422  -7.324   6.259  0.00  0.00    +0.115 C 
ATOM      5  C   UNL     1       4.654  -7.898   5.052  0.00  0.00    -0.004 C 
ATOM      6  C   UNL     1       3.241  -8.295   5.467  0.00  0.00    -0.010 C 
ATOM      7  C   UNL     1       3.313  -9.468   6.449  0.00  0.00    -0.082 C 
ATOM      8  N   UNL     1       3.994 -10.601   5.811  0.00  0.00    +0.379 N 
ATOM      9  C   UNL     1       5.382 -10.240   5.498  0.00  0.00    -0.082 C 
ATOM     10  C   UNL     1       5.397  -9.100   4.476  0.00  0.00    -0.010 C 
ATOM     11  C   UNL     1       5.049  -4.968   7.138  0.00  0.00    +0.236 C 
ATOM     12  O   UNL     1       4.988  -5.348   8.288  0.00  0.00    -0.274 OA
ATOM     13  H   UNL     1       3.986 -11.392   6.437  0.00  0.00    -0.086 HD
ATOM     14  H   UNL     1       3.511 -10.846   4.959  0.00  0.00    -0.086 HD
ENDROOT
BRANCH  11  15
ATOM     15  C   UNL     1       4.899  -3.502   6.819  0.00  0.00    +0.162 C 
ATOM     16  C   UNL     1       6.288  -2.866   6.604  0.00  0.00    +0.033 C 
ATOM     17  C   UNL     1       6.138  -1.470   7.264  0.00  0.00    +0.021 C 
ATOM     18  C   UNL     1       5.211  -1.792   8.463  0.00  0.00    +0.109 C 
ATOM     19  N   UNL     1       4.268  -2.807   7.950  0.00  0.00    -0.283 N 
ATOM     20  C   UNL     1       3.035  -3.055   8.436  0.00  0.00    +0.320 C 
ATOM     21  O   UNL     1       2.347  -3.918   7.932  0.00  0.00    -0.266 OA
BRANCH  20  22
ATOM     22  C   UNL     1       2.513  -2.262   9.606  0.00  0.00    +0.470 C 
ATOM     23  F   UNL     1       1.222  -2.699   9.926  0.00  0.00    -0.162 F 
ATOM     24  F   UNL     1       3.354  -2.447  10.708  0.00  0.00    -0.162 F 
ATOM     25  F   UNL     1       2.476  -0.905   9.270  0.00  0.00    -0.162 F 
ENDBRANCH  20  22
ENDBRANCH  11  15
BRANCH   1  27
ATOM     26  N   UNL     1       2.520  -6.942   2.705  0.00  0.00    -0.315 N 
ATOM     27  C   UNL     1       3.179  -6.371   3.733  0.00  0.00    +0.218 C 
ATOM     28  O   UNL     1       2.622  -5.546   4.426  0.00  0.00    -0.275 OA
ATOM     29  H   UNL     1       2.965  -7.602   2.150  0.00  0.00    +0.149 HD
BRANCH  26  30
ATOM     30  C   UNL     1       1.132  -6.566   2.424  0.00  0.00    +0.106 C 
BRANCH  30  31
ATOM     31  C   UNL     1       0.624  -7.354   1.216  0.00  0.00    +0.042 C 
BRANCH  31  32
ATOM     32  C   UNL     1      -0.825  -6.962   0.923  0.00  0.00    +0.145 C 
BRANCH  32  37
ATOM     33  C   UNL     1      -1.883  -8.230  -3.817  0.00  0.00    +0.067 C 
ATOM     34  C   UNL     1      -1.765  -8.251  -2.315  0.00  0.00    +0.060 A 
ATOM     35  C   UNL     1      -2.215  -9.272  -1.471  0.00  0.00    +0.047 A 
ATOM     36  C   UNL     1      -1.924  -8.919  -0.198  0.00  0.00    +0.036 A 
ATOM     37  N   UNL     1      -1.312  -7.717  -0.234  0.00  0.00    -0.268 N 
ATOM     38  N   UNL     1      -1.219  -7.321  -1.575  0.00  0.00    -0.176 NA
ATOM     39  C   UNL     1      -2.230  -9.723   1.039  0.00  0.00    +0.065 C 
ENDBRANCH  32  37
ENDBRANCH  31  32
ENDBRANCH  30  31
ENDBRANCH  26  30
ENDBRANCH   1  27
TORSDOF 7
