REMARK  Name = ZINC36724128
REMARK  3 active torsions:
REMARK  status: ('A' for Active; 'I' for Inactive)
REMARK    1  A    between atoms: C_3  and  S_8
REMARK    2  A    between atoms: C_6  and  O_7
REMARK    3  A    between atoms: S_8  and  N_11
REMARK                            x       y       z     vdW  Elec       q    Type
REMARK                         _______ _______ _______ _____ _____    ______ ____
ROOT
ATOM      1  S   UNL     1       3.890   2.317  -0.023  0.00  0.00    +0.073 S 
ATOM      2  O   UNL     1       4.872   1.459  -0.588  0.00  0.00    -0.150 OA
ATOM      3  O   UNL     1       3.595   3.597  -0.565  0.00  0.00    -0.150 OA
ENDROOT
BRANCH   1   4
ATOM      4  N   UNL     1       4.326   2.560   1.556  0.00  0.00    -0.199 N 
ATOM      5  C   UNL     1       4.652   1.475   2.362  0.00  0.00    +0.138 A 
ATOM      6  C   UNL     1       5.012   1.686   3.689  0.00  0.00    +0.046 A 
ATOM      7  C   UNL     1       5.335   0.598   4.480  0.00  0.00    +0.020 A 
ATOM      8  C   UNL     1       5.286  -0.670   3.914  0.00  0.00    +0.036 A 
ATOM      9  C   UNL     1       4.920  -0.806   2.590  0.00  0.00    +0.128 A 
ATOM     10  N   UNL     1       4.613   0.250   1.861  0.00  0.00    -0.238 NA
ATOM     11 BR   UNL     1       5.717  -2.194   4.948  0.00  0.00    -0.049 Br
ATOM     12  H   UNL     1       4.354   3.459   1.918  0.00  0.00    +0.175 HD
ENDBRANCH   1   4
BRANCH   1  15
ATOM     13  C   UNL     1      -0.017   1.383   0.010  0.00  0.00    +0.047 A 
ATOM     14  C   UNL     1       1.171   2.089   0.002  0.00  0.00    +0.032 A 
ATOM     15  C   UNL     1       2.377   1.414  -0.013  0.00  0.00    +0.109 A 
ATOM     16  C   UNL     1       2.399   0.031  -0.021  0.00  0.00    +0.032 A 
ATOM     17  C   UNL     1       1.214  -0.679  -0.013  0.00  0.00    +0.047 A 
ATOM     18  C   UNL     1       0.002  -0.004   0.002  0.00  0.00    +0.117 A 
BRANCH  18  19
ATOM     19  O   UNL     1      -1.165  -0.701   0.010  0.00  0.00    -0.507 OA
ATOM     20  H   UNL     1      -1.511  -0.897  -0.871  0.00  0.00    +0.292 HD
ENDBRANCH  18  19
ENDBRANCH   1  15
TORSDOF 3
