REMARK  Name = ZINC15448472
REMARK  8 active torsions:
REMARK  status: ('A' for Active; 'I' for Inactive)
REMARK    1  A    between atoms: C_3  and  C_6
REMARK    2  A    between atoms: C_6  and  N_52
REMARK    3  A    between atoms: C_7  and  C_8
REMARK    4  A    between atoms: C_7  and  N_52
REMARK    5  A    between atoms: C_13  and  C_14
REMARK    6  A    between atoms: C_13  and  N_52
REMARK    7  A    between atoms: N_16  and  C_17
REMARK    8  A    between atoms: C_18  and  C_27
REMARK                            x       y       z     vdW  Elec       q    Type
REMARK                         _______ _______ _______ _____ _____    ______ ____
ROOT
ATOM      1  C   UNL     1       1.299   1.969   0.708  0.00  0.00    +0.201 C 
ATOM      2  O   UNL     1       2.395   1.451   0.666  0.00  0.00    -0.278 OA
ATOM      3  N   UNL     1       0.208   1.218   0.960  0.00  0.00    -0.281 N 
ATOM      4  H   UNL     1      -0.668   1.632   0.989  0.00  0.00    +0.155 HD
ENDROOT
BRANCH   3   5
ATOM      5  C   UNL     1       0.339  -0.147   1.170  0.00  0.00    +0.090 A 
ATOM      6  C   UNL     1      -0.652  -1.075   1.445  0.00  0.00    +0.084 A 
ATOM      7  C   UNL     1      -0.252  -2.464   1.619  0.00  0.00    -0.018 A 
ATOM      8  C   UNL     1       1.075  -2.692   1.507  0.00  0.00    -0.004 A 
ATOM      9  S   UNL     1       1.782  -1.105   1.161  0.00  0.00    -0.077 S 
ATOM     10  C   UNL     1       1.795  -3.996   1.657  0.00  0.00    +0.043 C 
ATOM     11  C   UNL     1       1.086  -5.066   0.817  0.00  0.00    +0.005 C 
ATOM     12  C   UNL     1       0.015  -5.726   1.680  0.00  0.00    +0.001 C 
ATOM     13  C   UNL     1      -0.570  -4.710   2.660  0.00  0.00    +0.005 C 
ATOM     14  C   UNL     1      -1.254  -3.575   1.906  0.00  0.00    +0.037 C 
BRANCH   6  15
ATOM     15  C   UNL     1      -2.025  -0.681   1.550  0.00  0.00    +0.102 C 
ATOM     16  N   UNL     1      -3.114  -0.369   1.633  0.00  0.00    -0.191 NA
ENDBRANCH   6  15
ENDBRANCH   3   5
BRANCH   1  17
ATOM     17  C   UNL     1       1.157   3.452   0.480  0.00  0.00    +0.020 C 
BRANCH  17  18
ATOM     18  N   UNL     1       2.498   4.029   0.250  0.00  0.00    +0.395 N 
ATOM     19  H   UNL     1       3.123   3.736   1.011  0.00  0.00    -0.080 HD
BRANCH  18  20
ATOM     20  C   UNL     1       3.045   3.542  -1.034  0.00  0.00    -0.002 C 
BRANCH  20  23
ATOM     21  C   UNL     1       1.071   4.803  -3.879  0.00  0.00    +0.041 A 
ATOM     22  C   UNL     1       2.146   4.920  -2.969  0.00  0.00    +0.042 A 
ATOM     23  C   UNL     1       2.094   3.845  -2.163  0.00  0.00    +0.089 A 
ATOM     24  O   UNL     1       1.052   3.083  -2.538  0.00  0.00    -0.470 OA
ATOM     25  C   UNL     1       0.425   3.663  -3.574  0.00  0.00    +0.195 A 
ENDBRANCH  20  23
ENDBRANCH  18  20
BRANCH  18  26
ATOM     26  C   UNL     1       2.417   5.505   0.236  0.00  0.00    -0.002 C 
BRANCH  26  27
ATOM     27  C   UNL     1       3.810   6.067   0.360  0.00  0.00    +0.089 A 
ATOM     28  C   UNL     1       4.589   6.471  -0.660  0.00  0.00    +0.042 A 
ATOM     29  C   UNL     1       5.803   6.924  -0.093  0.00  0.00    +0.041 A 
ATOM     30  C   UNL     1       5.693   6.770   1.238  0.00  0.00    +0.195 A 
ATOM     31  O   UNL     1       4.481   6.257   1.508  0.00  0.00    -0.470 OA
ENDBRANCH  26  27
ENDBRANCH  18  26
ENDBRANCH  17  18
ENDBRANCH   1  17
TORSDOF 8
