REMARK  Name = ZINC57345754
REMARK  2 active torsions:
REMARK  status: ('A' for Active; 'I' for Inactive)
REMARK    1  A    between atoms: C_4  and  C_7
REMARK    2  A    between atoms: C_7  and  N_8
REMARK                            x       y       z     vdW  Elec       q    Type
REMARK                         _______ _______ _______ _____ _____    ______ ____
ROOT
ATOM      1  N   UNL     1       2.995  -1.920  -2.477  0.00  0.00    -0.313 N 
ATOM      2  C   UNL     1       3.613  -2.597  -3.514  0.00  0.00    +0.217 A 
ATOM      3  N   UNL     1       3.714  -3.915  -3.456  0.00  0.00    -0.219 NA
ATOM      4  C   UNL     1       4.298  -4.601  -4.433  0.00  0.00    +0.051 A 
ATOM      5  C   UNL     1       4.801  -3.919  -5.519  0.00  0.00    +0.011 A 
ATOM      6  C   UNL     1       4.683  -2.533  -5.547  0.00  0.00    +0.138 A 
ATOM      7  N   UNL     1       4.086  -1.911  -4.544  0.00  0.00    -0.203 NA
ATOM      8 CL   UNL     1       5.308  -1.628  -6.891  0.00  0.00    -0.062 Cl
ATOM      9  C   UNL     1       5.466  -4.610  -6.677  0.00  0.00    +0.040 C 
ATOM     10  C   UNL     1       5.882  -6.028  -6.286  0.00  0.00    +0.005 C 
ATOM     11  C   UNL     1       4.673  -6.735  -5.662  0.00  0.00    +0.006 C 
ATOM     12  C   UNL     1       4.387  -6.098  -4.303  0.00  0.00    +0.056 C 
ATOM     13  H   UNL     1       2.645  -2.411  -1.717  0.00  0.00    +0.149 HD
ENDROOT
BRANCH   1  14
ATOM     14  C   UNL     1       2.870  -0.461  -2.526  0.00  0.00    +0.108 C 
BRANCH  14  18
ATOM     15  C   UNL     1      -0.019   1.526   0.010  0.00  0.00    +0.000 C 
ATOM     16  C   UNL     1       1.417   2.055  -0.000  0.00  0.00    +0.000 C 
ATOM     17  C   UNL     1       2.133   1.562  -1.259  0.00  0.00    +0.005 C 
ATOM     18  C   UNL     1       2.154   0.032  -1.268  0.00  0.00    +0.006 C 
ATOM     19  C   UNL     1       0.718  -0.497  -1.257  0.00  0.00    +0.005 C 
ATOM     20  C   UNL     1       0.002  -0.004   0.002  0.00  0.00    +0.000 C 
ENDBRANCH  14  18
ENDBRANCH   1  14
TORSDOF 2
