REMARK  Name = ZINC39449930
REMARK  4 active torsions:
REMARK  status: ('A' for Active; 'I' for Inactive)
REMARK    1  A    between atoms: C_1  and  S_2
REMARK    2  A    between atoms: S_2  and  C_3
REMARK    3  A    between atoms: N_19  and  S_20
REMARK    4  A    between atoms: S_20  and  C_21
REMARK                            x       y       z     vdW  Elec       q    Type
REMARK                         _______ _______ _______ _____ _____    ______ ____
ROOT
ATOM      1  C   UNL     1       0.873  -0.423  -1.533  0.00  0.00    +0.136 C 
ATOM      2  C   UNL     1       1.892  -1.536  -1.262  0.00  0.00    +0.114 C 
ATOM      3  C   UNL     1       1.161  -2.815  -0.947  0.00  0.00    +0.185 C 
ATOM      4  O   UNL     1       1.672  -3.633  -0.209  0.00  0.00    -0.290 OA
ATOM      5  C   UNL     1      -0.113  -3.072  -1.502  0.00  0.00    +0.122 A 
ATOM      6  C   UNL     1      -0.722  -2.118  -2.296  0.00  0.00    +0.083 A 
ATOM      7  C   UNL     1      -2.043  -2.389  -2.879  0.00  0.00    +0.099 A 
ATOM      8  C   UNL     1      -2.655  -3.628  -2.595  0.00  0.00    +0.070 A 
ATOM      9  C   UNL     1      -3.910  -3.909  -3.136  0.00  0.00    +0.055 A 
ATOM     10  C   UNL     1      -4.503  -2.944  -3.937  0.00  0.00    +0.142 A 
ATOM     11  C   UNL     1      -3.839  -1.746  -4.173  0.00  0.00    +0.149 A 
ATOM     12  N   UNL     1      -2.656  -1.501  -3.652  0.00  0.00    -0.250 NA
ATOM     13  F   UNL     1      -5.717  -3.168  -4.485  0.00  0.00    -0.204 F 
ATOM     14  C   UNL     1      -1.950  -4.590  -1.735  0.00  0.00    +0.271 A 
ATOM     15  O   UNL     1      -2.462  -5.663  -1.476  0.00  0.00    -0.266 OA
ATOM     16  N   UNL     1      -0.739  -4.283  -1.235  0.00  0.00    -0.245 N 
ATOM     17  N   UNL     1      -0.089  -0.912  -2.532  0.00  0.00    -0.328 N 
ATOM     18  H   UNL     1      -0.274  -0.401  -3.336  0.00  0.00    +0.147 HD
ENDROOT
BRANCH   1  20
ATOM     19  C   UNL     1      -0.022   1.810   0.012  0.00  0.00    +0.086 C 
ATOM     20  S   UNL     1       0.002  -0.004   0.002  0.00  0.00    -0.142 S 
ENDBRANCH   1  20
BRANCH  16  21
ATOM     21  S   UNL     1       0.030  -5.386  -0.268  0.00  0.00    -0.044 S 
ATOM     22  C   UNL     1      -0.531  -4.969   1.406  0.00  0.00    +0.110 C 
ENDBRANCH  16  21
TORSDOF 2
