REMARK  Name = ZINC09088725
REMARK  5 active torsions:
REMARK  status: ('A' for Active; 'I' for Inactive)
REMARK    1  A    between atoms: C_6  and  C_7
REMARK    2  A    between atoms: C_9  and  C_13
REMARK    3  A    between atoms: N_15  and  N_16
REMARK    4  A    between atoms: C_17  and  C_18
REMARK    5  A    between atoms: C_23  and  O_24
REMARK                            x       y       z     vdW  Elec       q    Type
REMARK                         _______ _______ _______ _____ _____    ______ ____
ROOT
ATOM      1  C   UNL     1      -3.456  -3.684   0.024  0.00  0.00    +0.283 C 
ATOM      2  O   UNL     1      -2.787  -4.699   0.018  0.00  0.00    -0.267 OA
ATOM      3  N   UNL     1      -4.801  -3.764   0.033  0.00  0.00    -0.202 N 
ATOM      4  H   UNL     1      -5.336  -2.954   0.038  0.00  0.00    +0.178 HD
ENDROOT
BRANCH   1   7
ATOM      5  C   UNL     1      -1.268  -0.764   0.011  0.00  0.00    +0.067 A 
ATOM      6  C   UNL     1      -1.404  -2.124   0.010  0.00  0.00    +0.062 A 
ATOM      7  C   UNL     1      -2.795  -2.363   0.020  0.00  0.00    +0.149 A 
ATOM      8  N   UNL     1      -3.395  -1.189   0.026  0.00  0.00    -0.169 NA
ATOM      9  N   UNL     1      -2.528  -0.242   0.026  0.00  0.00    -0.276 N 
ATOM     10  H   UNL     1      -2.737   0.705   0.034  0.00  0.00    +0.189 HD
BRANCH   5  16
ATOM     11  C   UNL     1      -0.017   1.391   0.010  0.00  0.00    +0.011 A 
ATOM     12  C   UNL     1       1.170   2.095   0.002  0.00  0.00    +0.022 A 
ATOM     13  C   UNL     1       2.378   1.420  -0.013  0.00  0.00    +0.059 A 
ATOM     14  C   UNL     1       2.404   0.034  -0.021  0.00  0.00    +0.060 A 
ATOM     15  C   UNL     1       1.222  -0.680  -0.014  0.00  0.00    +0.031 A 
ATOM     16  C   UNL     1       0.002  -0.004   0.002  0.00  0.00    +0.001 A 
ATOM     17 CL   UNL     1       3.923  -0.805  -0.040  0.00  0.00    -0.082 Cl
ATOM     18 CL   UNL     1       3.867   2.312  -0.023  0.00  0.00    -0.082 Cl
ENDBRANCH   5  16
ENDBRANCH   1   7
BRANCH   3  19
ATOM     19  N   UNL     1      -5.429  -5.017   0.037  0.00  0.00    -0.187 NA
ATOM     20  C   UNL     1      -6.724  -5.094   0.046  0.00  0.00    +0.142 C 
BRANCH  20  21
ATOM     21  C   UNL     1      -7.384  -6.412   0.050  0.00  0.00    +0.037 A 
ATOM     22  C   UNL     1      -8.778  -6.500   0.054  0.00  0.00    +0.028 A 
ATOM     23  C   UNL     1      -9.389  -7.737   0.057  0.00  0.00    +0.019 A 
ATOM     24  C   UNL     1      -8.626  -8.893   0.055  0.00  0.00    +0.019 A 
ATOM     25  C   UNL     1      -7.245  -8.818   0.051  0.00  0.00    +0.047 A 
ATOM     26  C   UNL     1      -6.616  -7.584   0.043  0.00  0.00    +0.126 A 
ATOM     27 BR   UNL     1     -11.277  -7.855   0.063  0.00  0.00    -0.050 Br
BRANCH  26  28
ATOM     28  O   UNL     1      -5.260  -7.511   0.033  0.00  0.00    -0.506 OA
ATOM     29  H   UNL     1      -4.861  -7.491   0.914  0.00  0.00    +0.292 HD
ENDBRANCH  26  28
ENDBRANCH  20  21
ENDBRANCH   3  19
TORSDOF 5
