REMARK  Name = ZINC03103728
REMARK  6 active torsions:
REMARK  status: ('A' for Active; 'I' for Inactive)
REMARK    1  A    between atoms: C_4  and  C_8
REMARK    2  A    between atoms: C_11  and  C_13
REMARK    3  A    between atoms: N_14  and  N_15
REMARK    4  A    between atoms: N_15  and  C_16
REMARK    5  A    between atoms: C_16  and  N_18
REMARK    6  A    between atoms: N_18  and  C_19
REMARK                            x       y       z     vdW  Elec       q    Type
REMARK                         _______ _______ _______ _____ _____    ______ ____
ROOT
ATOM      1  C   UNL     1      -1.547   4.394   0.041  0.00  0.00    +0.176 C 
ATOM      2  N   UNL     1      -1.000   5.575   0.042  0.00  0.00    -0.185 NA
ENDROOT
BRANCH   1   6
ATOM      3  C   UNL     1       1.073   1.901   0.002  0.00  0.00    +0.137 A 
ATOM      4  C   UNL     1      -0.013   1.076   0.008  0.00  0.00    +0.050 A 
ATOM      5  C   UNL     1      -1.151   1.893   0.017  0.00  0.00    +0.051 A 
ATOM      6  C   UNL     1      -0.705   3.196   0.026  0.00  0.00    +0.148 A 
ATOM      7  O   UNL     1       0.644   3.177   0.013  0.00  0.00    -0.454 OA
BRANCH   3  11
ATOM      8  C   UNL     1       5.133   0.654  -0.043  0.00  0.00    +0.021 A 
ATOM      9  C   UNL     1       4.693   1.598  -0.953  0.00  0.00    +0.022 A 
ATOM     10  C   UNL     1       3.375   2.008  -0.945  0.00  0.00    +0.052 A 
ATOM     11  C   UNL     1       2.483   1.467  -0.013  0.00  0.00    +0.037 A 
ATOM     12  C   UNL     1       2.936   0.518   0.906  0.00  0.00    +0.033 A 
ATOM     13  C   UNL     1       4.256   0.114   0.883  0.00  0.00    +0.042 A 
ATOM     14 CL   UNL     1       4.819  -1.070   2.021  0.00  0.00    -0.084 Cl
ATOM     15 CL   UNL     1       2.825   3.193  -2.088  0.00  0.00    -0.083 Cl
ENDBRANCH   3  11
ENDBRANCH   1   6
BRANCH   2  16
ATOM     16  N   UNL     1      -1.807   6.720   0.056  0.00  0.00    -0.218 N 
ATOM     17  H   UNL     1      -2.773   6.633   0.064  0.00  0.00    +0.176 HD
BRANCH  16  18
ATOM     18  C   UNL     1      -1.240   7.943   0.058  0.00  0.00    +0.151 C 
ATOM     19  S   UNL     1      -2.226   9.343   0.074  0.00  0.00    -0.017 S 
BRANCH  18  20
ATOM     20  N   UNL     1       0.102   8.064   0.046  0.00  0.00    -0.304 N 
ATOM     21  H   UNL     1       0.660   7.271   0.036  0.00  0.00    +0.150 HD
BRANCH  20  22
ATOM     22  C   UNL     1       0.718   9.393   0.048  0.00  0.00    +0.215 C 
ATOM     23  C   UNL     1       1.988   9.409   0.932  0.00  0.00    +0.047 C 
ATOM     24  C   UNL     1       3.028  10.373   0.339  0.00  0.00    +0.026 C 
ATOM     25  C   UNL     1       3.151  10.077  -1.183  0.00  0.00    +0.168 C 
ATOM     26  S   UNL     1       1.381   9.807  -1.617  0.00  0.00    -0.012 S 
ATOM     27  O   UNL     1       1.279   8.663  -2.453  0.00  0.00    -0.173 OA
ATOM     28  O   UNL     1       0.817  11.039  -2.046  0.00  0.00    -0.173 OA
ENDBRANCH  20  22
ENDBRANCH  18  20
ENDBRANCH  16  18
ENDBRANCH   2  16
TORSDOF 6
