REMARK  Name = ZINC40016597
REMARK  12 active torsions:
REMARK  status: ('A' for Active; 'I' for Inactive)
REMARK    1  A    between atoms: C_1  and  C_2
REMARK    2  A    between atoms: C_2  and  O_3
REMARK    3  A    between atoms: O_3  and  C_4
REMARK    4  A    between atoms: C_7  and  C_12
REMARK    5  A    between atoms: C_9  and  O_10
REMARK    6  A    between atoms: O_10  and  C_11
REMARK    7  A    between atoms: C_14  and  C_36
REMARK    8  A    between atoms: C_15  and  C_35
REMARK    9  A    between atoms: C_22  and  C_23
REMARK   10  A    between atoms: C_30  and  C_33
REMARK   11  A    between atoms: C_36  and  O_38
REMARK   12  A    between atoms: O_38  and  C_39
REMARK                            x       y       z     vdW  Elec       q    Type
REMARK                         _______ _______ _______ _____ _____    ______ ____
ROOT
ATOM      1  C   UNL     1      -1.306  -5.968  -0.094  0.00  0.00    +0.162 C 
ATOM      2  C   UNL     1      -1.069  -6.532  -1.476  0.00  0.00    +0.085 C 
ATOM      3  C   UNL     1      -0.249  -7.619  -1.595  0.00  0.00    +0.053 C 
ATOM      4  N   UNL     1       0.318  -8.158  -0.523  0.00  0.00    -0.228 NA
ATOM      5  C   UNL     1       0.160  -7.726   0.702  0.00  0.00    +0.178 A 
ATOM      6  N   UNL     1      -0.622  -6.646   1.043  0.00  0.00    -0.275 N 
ATOM      7  C   UNL     1      -0.706  -6.297   2.333  0.00  0.00    +0.268 A 
ATOM      8  O   UNL     1      -1.386  -5.350   2.683  0.00  0.00    -0.266 OA
ATOM      9  C   UNL     1       0.046  -7.092   3.314  0.00  0.00    +0.081 A 
ATOM     10  C   UNL     1       0.128  -6.948   4.662  0.00  0.00    +0.028 C 
ATOM     11  S   UNL     1       0.821  -8.300   2.254  0.00  0.00    -0.046 S 
ATOM     12  C   UNL     1       0.013  -8.211  -2.956  0.00  0.00    +0.066 C 
ENDROOT
BRANCH  10  13
ATOM     13  C   UNL     1       1.063  -7.776   5.433  0.00  0.00    -0.023 A 
ATOM     14  C   UNL     1       0.875  -7.959   6.809  0.00  0.00    +0.011 A 
ATOM     15  C   UNL     1       1.749  -8.738   7.528  0.00  0.00    +0.046 A 
ATOM     16  C   UNL     1       2.832  -9.353   6.897  0.00  0.00    +0.124 A 
ATOM     17  C   UNL     1       3.020  -9.162   5.531  0.00  0.00    -0.002 A 
ATOM     18  C   UNL     1       2.148  -8.395   4.799  0.00  0.00    +0.015 A 
ATOM     19  C   UNL     1       4.274  -9.923   5.145  0.00  0.00    +0.083 C 
ATOM     20  C   UNL     1       4.921 -10.193   6.524  0.00  0.00    +0.175 C 
ATOM     21  O   UNL     1       3.795 -10.162   7.416  0.00  0.00    -0.488 OA
ATOM     22  C   UNL     1       5.598 -11.565   6.545  0.00  0.00    +0.052 C 
ENDBRANCH  10  13
BRANCH   1  26
ATOM     23  C   UNL     1      -0.071  -1.874  -0.115  0.00  0.00    +0.162 A 
ATOM     24  C   UNL     1       0.860  -2.881   0.085  0.00  0.00    +0.050 A 
ATOM     25  C   UNL     1       0.458  -4.203   0.091  0.00  0.00    +0.010 A 
ATOM     26  C   UNL     1      -0.873  -4.525  -0.101  0.00  0.00    -0.016 A 
ATOM     27  C   UNL     1      -1.807  -3.526  -0.301  0.00  0.00    +0.055 A 
ATOM     28  C   UNL     1      -1.412  -2.198  -0.303  0.00  0.00    +0.162 A 
BRANCH  28  29
ATOM     29  O   UNL     1      -2.330  -1.213  -0.493  0.00  0.00    -0.491 OA
ATOM     30  C   UNL     1      -3.688  -1.620  -0.680  0.00  0.00    +0.277 C 
ENDBRANCH  28  29
BRANCH  23  31
ATOM     31  O   UNL     1       0.323  -0.572  -0.121  0.00  0.00    -0.489 OA
BRANCH  31  33
ATOM     32  C   UNL     1       1.964   1.194   0.040  0.00  0.00    +0.048 C 
ATOM     33  C   UNL     1       1.714  -0.315   0.079  0.00  0.00    +0.226 C 
ENDBRANCH  31  33
ENDBRANCH  23  31
ENDBRANCH   1  26
BRANCH   2  34
ATOM     34  C   UNL     1      -1.674  -5.956  -2.605  0.00  0.00    +0.339 C 
ATOM     35  O   UNL     1      -1.367  -6.336  -3.721  0.00  0.00    -0.245 OA
BRANCH  34  36
ATOM     36  O   UNL     1      -2.596  -4.981  -2.453  0.00  0.00    -0.465 OA
ATOM     37  C   UNL     1      -3.170  -4.440  -3.645  0.00  0.00    +0.280 C 
ENDBRANCH  34  36
ENDBRANCH   2  34
TORSDOF 7
