REMARK  Name = ZINC03770435
REMARK  10 active torsions:
REMARK  status: ('A' for Active; 'I' for Inactive)
REMARK    1  A    between atoms: C_1  and  C_2
REMARK    2  A    between atoms: C_5  and  N_8
REMARK    3  A    between atoms: C_9  and  C_11
REMARK    4  A    between atoms: C_16  and  C_19
REMARK    5  A    between atoms: C_19  and  C_20
REMARK    6  A    between atoms: C_20  and  O_22
REMARK    7  A    between atoms: O_22  and  C_23
REMARK    8  A    between atoms: C_24  and  N_37
REMARK    9  A    between atoms: C_25  and  C_35
REMARK   10  A    between atoms: C_26  and  C_28
REMARK                            x       y       z     vdW  Elec       q    Type
REMARK                         _______ _______ _______ _____ _____    ______ ____
ROOT
ATOM      1  C   UNL     1      -2.389  -2.776  -0.196  0.00  0.00    +0.055 C 
ATOM      2  C   UNL     1      -2.390  -4.131  -0.299  0.00  0.00    +0.086 C 
ATOM      3  N   UNL     1      -3.532  -4.904  -0.400  0.00  0.00    -0.220 N 
ATOM      4  C   UNL     1      -3.410  -6.245  -0.497  0.00  0.00    +0.239 C 
ATOM      5  O   UNL     1      -4.384  -6.960  -0.587  0.00  0.00    -0.274 OA
ATOM      6  C   UNL     1      -2.012  -6.819  -0.490  0.00  0.00    +0.150 C 
ATOM      7  S   UNL     1      -1.027  -5.280  -0.337  0.00  0.00    -0.096 S 
ATOM      8  C   UNL     1      -4.782  -4.267  -0.397  0.00  0.00    +0.110 C 
ATOM      9  C   UNL     1      -4.947  -2.931  -0.301  0.00  0.00    +0.077 C 
ATOM     10  C   UNL     1      -3.719  -2.051  -0.183  0.00  0.00    +0.103 C 
ENDROOT
BRANCH  10  11
ATOM     11  C   UNL     1      -3.817  -1.267   1.101  0.00  0.00    +0.001 A 
ATOM     12  C   UNL     1      -3.761  -1.922   2.317  0.00  0.00    +0.007 A 
ATOM     13  C   UNL     1      -3.850  -1.203   3.494  0.00  0.00    +0.000 A 
ATOM     14  C   UNL     1      -3.995   0.171   3.456  0.00  0.00    +0.003 A 
ATOM     15  C   UNL     1      -4.050   0.828   2.242  0.00  0.00    +0.038 A 
ATOM     16  C   UNL     1      -3.957   0.109   1.062  0.00  0.00    +0.127 A 
ATOM     17  F   UNL     1      -4.006   0.751  -0.126  0.00  0.00    -0.205 F 
ENDBRANCH  10  11
BRANCH   1  19
ATOM     18  N   UNL     1      -1.198  -0.721   0.004  0.00  0.00    -0.282 N 
ATOM     19  C   UNL     1      -1.182  -2.065  -0.097  0.00  0.00    +0.248 C 
ATOM     20  O   UNL     1      -0.119  -2.662  -0.104  0.00  0.00    -0.270 OA
ATOM     21  H   UNL     1      -2.043  -0.250   0.072  0.00  0.00    +0.155 HD
BRANCH  18  26
ATOM     22  C   UNL     1       3.676   2.181   0.039  0.00  0.00    +0.044 C 
ATOM     23  C   UNL     1       2.381   1.410   0.030  0.00  0.00    -0.050 A 
ATOM     24  C   UNL     1       1.262   1.948  -0.579  0.00  0.00    +0.005 A 
ATOM     25  C   UNL     1       0.074   1.244  -0.590  0.00  0.00    +0.023 A 
ATOM     26  C   UNL     1       0.003  -0.005   0.013  0.00  0.00    +0.034 A 
ATOM     27  C   UNL     1       1.129  -0.543   0.624  0.00  0.00    +0.023 A 
ATOM     28  C   UNL     1       2.314   0.167   0.631  0.00  0.00    +0.005 A 
ENDBRANCH  18  26
ENDBRANCH   1  19
BRANCH   8  29
ATOM     29  N   UNL     1      -5.906  -5.051  -0.498  0.00  0.00    -0.345 N 
ATOM     30  H   UNL     1      -5.923  -5.929  -0.086  0.00  0.00    +0.144 HD
ATOM     31  H   UNL     1      -6.682  -4.726  -0.980  0.00  0.00    +0.144 HD
ENDBRANCH   8  29
BRANCH   9  32
ATOM     32  C   UNL     1      -6.258  -2.356  -0.304  0.00  0.00    +0.099 C 
ATOM     33  N   UNL     1      -7.299  -1.900  -0.307  0.00  0.00    -0.191 NA
ENDBRANCH   9  32
BRANCH   6  34
ATOM     34  C   UNL     1      -1.705  -7.546  -1.800  0.00  0.00    +0.144 C 
BRANCH  34  35
ATOM     35  C   UNL     1      -0.283  -8.046  -1.776  0.00  0.00    +0.308 C 
ATOM     36  O   UNL     1       0.413  -7.841  -0.810  0.00  0.00    -0.251 OA
BRANCH  35  37
ATOM     37  O   UNL     1       0.210  -8.718  -2.828  0.00  0.00    -0.468 OA
ATOM     38  C   UNL     1       1.588  -9.168  -2.736  0.00  0.00    +0.280 C 
ENDBRANCH  35  37
ENDBRANCH  34  35
ENDBRANCH   6  34
TORSDOF 8
