REMARK  Name = ZINC03380846
REMARK  9 active torsions:
REMARK  status: ('A' for Active; 'I' for Inactive)
REMARK    1  A    between atoms: C_1  and  C_2
REMARK    2  A    between atoms: C_2  and  C_3
REMARK    3  A    between atoms: C_3  and  C_4
REMARK    4  A    between atoms: C_4  and  C_5
REMARK    5  A    between atoms: C_5  and  N_6
REMARK    6  A    between atoms: C_16  and  S_17
REMARK    7  A    between atoms: S_17  and  C_18
REMARK    8  A    between atoms: C_18  and  C_20
REMARK    9  A    between atoms: C_18  and  C_21
REMARK                            x       y       z     vdW  Elec       q    Type
REMARK                         _______ _______ _______ _____ _____    ______ ____
ROOT
ATOM      1  N   UNL     1      -3.180  -1.629   1.462  0.00  0.00    -0.287 N 
ATOM      2  C   UNL     1      -2.988  -2.964   1.568  0.00  0.00    +0.262 A 
ATOM      3  O   UNL     1      -3.929  -3.735   1.608  0.00  0.00    -0.267 OA
ATOM      4  C   UNL     1      -1.602  -3.448   1.633  0.00  0.00    +0.066 A 
ATOM      5  C   UNL     1      -1.301  -4.805   1.743  0.00  0.00    +0.030 A 
ATOM      6  C   UNL     1       0.017  -5.203   1.800  0.00  0.00    +0.019 A 
ATOM      7  C   UNL     1       1.041  -4.265   1.750  0.00  0.00    +0.017 A 
ATOM      8  C   UNL     1       0.768  -2.931   1.642  0.00  0.00    +0.029 A 
ATOM      9  C   UNL     1      -0.559  -2.496   1.582  0.00  0.00    +0.079 A 
ATOM     10  N   UNL     1      -0.870  -1.183   1.470  0.00  0.00    -0.223 NA
ATOM     11  C   UNL     1      -2.114  -0.776   1.419  0.00  0.00    +0.173 A 
ATOM     12 BR   UNL     1       0.436  -7.041   1.949  0.00  0.00    -0.050 Br
ENDROOT
BRANCH   1  13
ATOM     13  C   UNL     1      -4.542  -1.093   1.394  0.00  0.00    +0.127 C 
BRANCH  13  14
ATOM     14  C   UNL     1      -4.987  -1.017  -0.068  0.00  0.00    +0.022 C 
BRANCH  14  15
ATOM     15  C   UNL     1      -6.410  -0.458  -0.139  0.00  0.00    +0.001 C 
BRANCH  15  17
ATOM     16  C   UNL     1      -8.277   0.178  -1.673  0.00  0.00    +0.004 C 
ATOM     17  C   UNL     1      -6.855  -0.381  -1.601  0.00  0.00    -0.003 C 
ENDBRANCH  15  17
ENDBRANCH  14  15
ENDBRANCH  13  14
ENDBRANCH   1  13
BRANCH  11  18
ATOM     18  S   UNL     1      -2.427   0.953   1.280  0.00  0.00    -0.075 S 
BRANCH  18  19
ATOM     19  C   UNL     1      -0.729   1.579   1.267  0.00  0.00    +0.137 C 
ATOM     20  C   UNL     1      -0.013   1.086   0.008  0.00  0.00    +0.029 C 
BRANCH  19  21
ATOM     21  C   UNL     1      -0.749   3.086   1.275  0.00  0.00    +0.233 C 
ATOM     22  O   UNL     1      -1.747   3.681   0.929  0.00  0.00    -0.274 OA
ATOM     23  N   UNL     1       0.342   3.773   1.668  0.00  0.00    -0.239 N 
ATOM     24  C   UNL     1       0.324   5.120   1.675  0.00  0.00    +0.303 C 
ATOM     25  O   UNL     1      -0.677   5.716   1.328  0.00  0.00    -0.253 OA
ATOM     26  N   UNL     1       1.415   5.807   2.067  0.00  0.00    -0.313 N 
ATOM     27  H   UNL     1       1.248   3.233   1.982  0.00  0.00    +0.159 HD
ATOM     28  H   UNL     1       1.400   6.907   2.074  0.00  0.00    +0.146 HD
ATOM     29  H   UNL     1       2.321   5.267   2.382  0.00  0.00    +0.146 HD
ENDBRANCH  19  21
ENDBRANCH  18  19
ENDBRANCH  11  18
TORSDOF 7
