REMARK  Name = ZINC62038657
REMARK  10 active torsions:
REMARK  status: ('A' for Active; 'I' for Inactive)
REMARK    1  A    between atoms: C_1  and  C_2
REMARK    2  A    between atoms: C_2  and  C_4
REMARK    3  A    between atoms: C_2  and  S_15
REMARK    4  A    between atoms: N_6  and  C_7
REMARK    5  A    between atoms: C_12  and  O_13
REMARK    6  A    between atoms: S_15  and  C_16
REMARK    7  A    between atoms: C_26  and  C_30
REMARK    8  A    between atoms: C_30  and  C_31
REMARK    9  A    between atoms: C_30  and  C_32
REMARK   10  A    between atoms: C_30  and  C_33
REMARK                            x       y       z     vdW  Elec       q    Type
REMARK                         _______ _______ _______ _____ _____    ______ ____
ROOT
ATOM      1  C   UNL     1       2.517  -0.069  -1.279  0.00  0.00    +0.109 A 
ATOM      2  C   UNL     1       3.497  -0.349  -2.272  0.00  0.00    +0.043 A 
ATOM      3  C   UNL     1       3.342  -1.074  -3.535  0.00  0.00    -0.025 A 
ATOM      4  C   UNL     1       4.442  -1.202  -4.305  0.00  0.00    -0.004 A 
ATOM      5  S   UNL     1       5.732  -0.377  -3.412  0.00  0.00    -0.073 S 
ATOM      6  C   UNL     1       4.791   0.139  -1.999  0.00  0.00    +0.113 A 
ATOM      7  N   UNL     1       5.057   0.806  -0.893  0.00  0.00    -0.228 NA
ATOM      8  C   UNL     1       4.106   1.034  -0.007  0.00  0.00    +0.223 A 
ATOM      9  N   UNL     1       2.869   0.613  -0.200  0.00  0.00    -0.229 NA
ATOM     10  C   UNL     1       4.546  -1.893  -5.630  0.00  0.00    +0.046 C 
ATOM     11  C   UNL     1       3.297  -2.766  -5.821  0.00  0.00    -0.000 C 
ATOM     12  C   UNL     1       2.059  -1.931  -5.482  0.00  0.00    +0.009 C 
ATOM     13  C   UNL     1       2.007  -1.666  -3.977  0.00  0.00    +0.037 C 
ENDROOT
BRANCH  11  14
ATOM     14  C   UNL     1       3.219  -3.241  -7.273  0.00  0.00    -0.035 C 
ATOM     15  C   UNL     1       4.467  -4.059  -7.610  0.00  0.00    +0.011 C 
ATOM     16  C   UNL     1       1.974  -4.110  -7.459  0.00  0.00    +0.011 C 
ATOM     17  C   UNL     1       3.138  -2.028  -8.202  0.00  0.00    +0.011 C 
ENDBRANCH  11  14
BRANCH   1  18
ATOM     18  S   UNL     1       0.855  -0.616  -1.486  0.00  0.00    -0.093 S 
BRANCH  18  20
ATOM     19  C   UNL     1       0.000   1.507   0.011  0.00  0.00    +0.029 C 
ATOM     20  C   UNL     1       0.008  -0.023   0.004  0.00  0.00    +0.136 C 
BRANCH  20  21
ATOM     21  C   UNL     1      -1.410  -0.533   0.014  0.00  0.00    +0.230 C 
ATOM     22  O   UNL     1      -1.927  -0.905  -1.018  0.00  0.00    -0.274 OA
ATOM     23  N   UNL     1      -2.103  -0.575   1.169  0.00  0.00    -0.282 N 
ATOM     24  H   UNL     1      -1.670  -0.339   2.003  0.00  0.00    +0.155 HD
BRANCH  23  25
ATOM     25  C   UNL     1      -3.450  -0.960   1.163  0.00  0.00    +0.077 A 
ATOM     26  C   UNL     1      -3.894  -1.923   0.269  0.00  0.00    +0.047 A 
ATOM     27  C   UNL     1      -5.224  -2.302   0.266  0.00  0.00    +0.043 A 
ATOM     28  C   UNL     1      -6.114  -1.723   1.153  0.00  0.00    +0.023 A 
ATOM     29  C   UNL     1      -5.678  -0.762   2.047  0.00  0.00    +0.049 A 
ATOM     30  C   UNL     1      -4.346  -0.382   2.060  0.00  0.00    +0.138 A 
ATOM     31 CL   UNL     1      -5.779  -3.508  -0.854  0.00  0.00    -0.083 Cl
BRANCH  30  32
ATOM     32  O   UNL     1      -3.914   0.559   2.942  0.00  0.00    -0.505 OA
ATOM     33  H   UNL     1      -3.968   1.465   2.609  0.00  0.00    +0.292 HD
ENDBRANCH  30  32
ENDBRANCH  23  25
ENDBRANCH  20  21
ENDBRANCH  18  20
ENDBRANCH   1  18
TORSDOF 6
