REMARK  Name = ZINC09348035
REMARK  6 active torsions:
REMARK  status: ('A' for Active; 'I' for Inactive)
REMARK    1  A    between atoms: C_1  and  C_2
REMARK    2  A    between atoms: C_3  and  C_33
REMARK    3  A    between atoms: C_4  and  C_27
REMARK    4  A    between atoms: C_9  and  C_16
REMARK    5  A    between atoms: C_25  and  O_26
REMARK    6  A    between atoms: C_33  and  C_35
REMARK                            x       y       z     vdW  Elec       q    Type
REMARK                         _______ _______ _______ _____ _____    ______ ____
ROOT
ATOM      1  C   UNL     1      -0.018   1.503   0.010  0.00  0.00    +0.086 C 
ATOM      2  C   UNL     1       0.002  -0.004   0.002  0.00  0.00    +0.112 C 
ATOM      3  C   UNL     1      -1.165  -0.672   0.004  0.00  0.00    +0.044 C 
ATOM      4  C   UNL     1      -1.198  -2.175  -0.004  0.00  0.00    +0.094 C 
ATOM      5  C   UNL     1       0.141  -2.719  -0.418  0.00  0.00    +0.071 A 
ATOM      6  C   UNL     1       0.265  -4.057  -0.831  0.00  0.00    +0.167 A 
ATOM      7  N   UNL     1      -0.589  -5.060  -0.960  0.00  0.00    -0.206 NA
ATOM      8  C   UNL     1       0.056  -6.144  -1.399  0.00  0.00    +0.186 A 
ATOM      9  N   UNL     1       1.335  -5.857  -1.560  0.00  0.00    -0.143 NA
ATOM     10  N   UNL     1       1.504  -4.515  -1.202  0.00  0.00    -0.201 N 
ATOM     11  C   UNL     1       2.568  -3.677  -1.163  0.00  0.00    +0.229 A 
ATOM     12  N   UNL     1       2.440  -2.438  -0.776  0.00  0.00    -0.201 NA
ATOM     13  C   UNL     1       1.256  -1.930  -0.401  0.00  0.00    +0.229 A 
ATOM     14  O   UNL     1       1.182  -0.637  -0.013  0.00  0.00    -0.442 OA
ENDROOT
BRANCH   8  15
ATOM     15  C   UNL     1      -0.566  -7.463  -1.663  0.00  0.00    +0.063 A 
ATOM     16  C   UNL     1       0.214  -8.512  -2.111  0.00  0.00    +0.023 A 
ATOM     17  C   UNL     1      -0.380  -9.759  -2.359  0.00  0.00    -0.017 A 
ATOM     18  C   UNL     1       0.384 -10.849  -2.815  0.00  0.00    +0.008 A 
ATOM     19  C   UNL     1      -0.222 -12.046  -3.046  0.00  0.00    +0.001 A 
ATOM     20  C   UNL     1      -1.590 -12.210  -2.838  0.00  0.00    +0.001 A 
ATOM     21  C   UNL     1      -2.361 -11.178  -2.397  0.00  0.00    +0.008 A 
ATOM     22  C   UNL     1      -1.772  -9.927  -2.146  0.00  0.00    -0.014 A 
ATOM     23  C   UNL     1      -2.542  -8.843  -1.690  0.00  0.00    +0.054 A 
ATOM     24  C   UNL     1      -1.947  -7.640  -1.449  0.00  0.00    +0.128 A 
BRANCH  24  25
ATOM     25  O   UNL     1      -2.696  -6.598  -1.003  0.00  0.00    -0.506 OA
ATOM     26  H   UNL     1      -3.073  -6.054  -1.708  0.00  0.00    +0.292 HD
ENDBRANCH  24  25
ENDBRANCH   8  15
BRANCH   4  27
ATOM     27  C   UNL     1      -1.532  -2.676   1.377  0.00  0.00    -0.035 A 
ATOM     28  C   UNL     1      -0.712  -2.359   2.444  0.00  0.00    +0.004 A 
ATOM     29  C   UNL     1      -1.018  -2.818   3.712  0.00  0.00    +0.000 A 
ATOM     30  C   UNL     1      -2.145  -3.593   3.912  0.00  0.00    +0.000 A 
ATOM     31  C   UNL     1      -2.966  -3.909   2.846  0.00  0.00    +0.000 A 
ATOM     32  C   UNL     1      -2.662  -3.446   1.579  0.00  0.00    +0.004 A 
ENDBRANCH   4  27
BRANCH   3  33
ATOM     33  C   UNL     1      -2.374   0.047   0.015  0.00  0.00    +0.160 C 
ATOM     34  O   UNL     1      -2.358   1.261   0.022  0.00  0.00    -0.293 OA
ATOM     35  C   UNL     1      -3.688  -0.690   0.017  0.00  0.00    +0.091 C 
ENDBRANCH   3  33
TORSDOF 4
