REMARK  Name = ZINC00320789
REMARK  8 active torsions:
REMARK  status: ('A' for Active; 'I' for Inactive)
REMARK    1  A    between atoms: C_1  and  C_2
REMARK    2  A    between atoms: C_2  and  C_3
REMARK    3  A    between atoms: C_2  and  C_4
REMARK    4  A    between atoms: C_4  and  C_5
REMARK    5  A    between atoms: C_8  and  C_12
REMARK    6  A    between atoms: C_15  and  C_17
REMARK    7  A    between atoms: C_18  and  C_19
REMARK    8  A    between atoms: C_18  and  C_20
REMARK                            x       y       z     vdW  Elec       q    Type
REMARK                         _______ _______ _______ _____ _____    ______ ____
ROOT
ATOM      1  C   UNL     1       2.213   1.799   0.629  0.00  0.00    +0.135 C 
ATOM      2  N   UNL     1       0.999   2.317  -0.030  0.00  0.00    -0.272 N 
ATOM      3  C   UNL     1       1.212   3.304  -1.085  0.00  0.00    +0.200 C 
ATOM      4  C   UNL     1       2.557   3.041  -1.824  0.00  0.00    +0.105 C 
ATOM      5  S   UNL     1       3.576   2.544  -0.363  0.00  0.00    -0.136 S 
ATOM      6  C   UNL     1      -0.235   1.906   0.325  0.00  0.00    +0.241 C 
ATOM      7  O   UNL     1      -1.214   2.404  -0.197  0.00  0.00    -0.271 OA
ENDROOT
BRANCH   6   8
ATOM      8  C   UNL     1      -0.397   0.861   1.347  0.00  0.00    +0.066 C 
ATOM      9  C   UNL     1      -1.611   0.546   1.789  0.00  0.00    -0.071 C 
ATOM     10  C   UNL     1      -2.801   1.375   1.378  0.00  0.00    +0.039 C 
ATOM     11  C   UNL     1      -1.797  -0.639   2.701  0.00  0.00    +0.039 C 
ENDBRANCH   6   8
BRANCH   3  12
ATOM     12  C   UNL     1       0.080   3.224  -2.075  0.00  0.00    +0.377 C 
ATOM     13  O   UNL     1      -0.503   2.178  -2.244  0.00  0.00    -0.244 OA
ATOM     14  O   UNL     1      -0.282   4.313  -2.770  0.00  0.00    -0.244 OA
ENDBRANCH   3  12
BRANCH   1  15
ATOM     15  C   UNL     1       2.281   2.270   2.083  0.00  0.00    +0.036 C 
BRANCH  15  17
ATOM     16  C   UNL     1       3.640   2.205   4.179  0.00  0.00    +0.007 C 
ATOM     17  C   UNL     1       3.483   1.622   2.774  0.00  0.00    -0.015 C 
ATOM     18  C   UNL     1       3.262   0.111   2.870  0.00  0.00    +0.007 C 
ENDBRANCH  15  17
ENDBRANCH   1  15
TORSDOF 4
