REMARK  Name = ZINC06409297
REMARK  7 active torsions:
REMARK  status: ('A' for Active; 'I' for Inactive)
REMARK    1  A    between atoms: C_1  and  C_2
REMARK    2  A    between atoms: C_9  and  C_14
REMARK    3  A    between atoms: C_14  and  C_16
REMARK    4  A    between atoms: C_14  and  N_60
REMARK    5  A    between atoms: N_20  and  C_21
REMARK    6  A    between atoms: C_21  and  C_22
REMARK    7  A    between atoms: C_32  and  C_35
REMARK                            x       y       z     vdW  Elec       q    Type
REMARK                         _______ _______ _______ _____ _____    ______ ____
ROOT
ATOM      1  C   UNL     1       0.036  -4.981  -3.675  0.00  0.00    +0.039 C 
ENDROOT
BRANCH   1  10
ATOM      2  C   UNL     1      -0.729   1.680  -0.408  0.00  0.00    +0.044 C 
ATOM      3  C   UNL     1      -0.570   0.184  -0.321  0.00  0.00    -0.050 A 
ATOM      4  C   UNL     1      -0.522  -0.432   0.923  0.00  0.00    +0.005 A 
ATOM      5  C   UNL     1      -0.376  -1.798   1.026  0.00  0.00    +0.026 A 
ATOM      6  C   UNL     1      -0.276  -2.571  -0.126  0.00  0.00    +0.049 A 
ATOM      7  C   UNL     1      -0.325  -1.943  -1.385  0.00  0.00    -0.001 A 
ATOM      8  C   UNL     1      -0.479  -0.555  -1.466  0.00  0.00    +0.013 A 
ATOM      9  C   UNL     1      -0.219  -2.765  -2.592  0.00  0.00    +0.017 A 
ATOM     10  C   UNL     1      -0.077  -4.106  -2.453  0.00  0.00    +0.011 A 
ATOM     11  C   UNL     1      -0.033  -4.686  -1.167  0.00  0.00    +0.251 A 
ATOM     12  O   UNL     1       0.096  -5.894  -1.063  0.00  0.00    -0.268 OA
ATOM     13  N   UNL     1      -0.129  -3.940  -0.052  0.00  0.00    -0.322 N 
ATOM     14  H   UNL     1      -0.096  -4.370   0.816  0.00  0.00    +0.169 HD
ENDBRANCH   1  10
BRANCH   1  21
ATOM     15  C   UNL     1       2.453  -4.962  -3.535  0.00  0.00    -0.077 C 
ATOM     16  C   UNL     1       3.682  -5.840  -3.289  0.00  0.00    -0.018 C 
ATOM     17  C   UNL     1       3.798  -6.873  -4.413  0.00  0.00    -0.001 C 
ATOM     18  C   UNL     1       2.513  -7.704  -4.468  0.00  0.00    -0.031 C 
ATOM     19  C   UNL     1       1.318  -6.772  -4.680  0.00  0.00    -0.074 C 
ATOM     20  C   UNL     1       2.596  -8.699  -5.627  0.00  0.00    +0.005 C 
ATOM     21  N   UNL     1       1.247  -5.818  -3.552  0.00  0.00    +0.389 N 
ATOM     22  H   UNL     1       1.201  -6.345  -2.673  0.00  0.00    -0.080 HD
ENDBRANCH   1  21
BRANCH   1  23
ATOM     23  C   UNL     1      -1.172  -5.877  -3.764  0.00  0.00    +0.143 A 
ATOM     24  N   UNL     1      -1.402  -6.954  -3.053  0.00  0.00    -0.115 NA
ATOM     25  N   UNL     1      -2.537  -7.440  -3.422  0.00  0.00    -0.023 NA
ATOM     26  N   UNL     1      -3.037  -6.701  -4.351  0.00  0.00    -0.044 NA
ATOM     27  N   UNL     1      -2.227  -5.724  -4.586  0.00  0.00    -0.226 N 
BRANCH  27  28
ATOM     28  C   UNL     1      -2.419  -4.652  -5.566  0.00  0.00    +0.182 C 
BRANCH  28  29
ATOM     29  C   UNL     1      -1.830  -5.069  -6.888  0.00  0.00    -0.026 A 
ATOM     30  C   UNL     1      -0.510  -4.777  -7.180  0.00  0.00    +0.008 A 
ATOM     31  C   UNL     1       0.032  -5.163  -8.390  0.00  0.00    +0.038 A 
ATOM     32  C   UNL     1      -0.749  -5.834  -9.316  0.00  0.00    +0.123 A 
ATOM     33  C   UNL     1      -2.072  -6.121  -9.026  0.00  0.00    +0.038 A 
ATOM     34  C   UNL     1      -2.611  -5.738  -7.812  0.00  0.00    +0.008 A 
ATOM     35  F   UNL     1      -0.221  -6.208 -10.502  0.00  0.00    -0.205 F 
ENDBRANCH  28  29
ENDBRANCH  27  28
ENDBRANCH   1  23
TORSDOF 5
