REMARK  Name = ZINC17909323
REMARK  11 active torsions:
REMARK  status: ('A' for Active; 'I' for Inactive)
REMARK    1  A    between atoms: C_1  and  N_59
REMARK    2  A    between atoms: C_2  and  N_59
REMARK    3  A    between atoms: C_3  and  C_5
REMARK    4  A    between atoms: C_3  and  C_27
REMARK    5  A    between atoms: C_3  and  N_59
REMARK    6  A    between atoms: C_5  and  N_6
REMARK    7  A    between atoms: C_7  and  C_9
REMARK    8  A    between atoms: C_12  and  N_15
REMARK    9  A    between atoms: N_15  and  S_16
REMARK   10  A    between atoms: S_16  and  C_19
REMARK   11  A    between atoms: C_20  and  C_21
REMARK                            x       y       z     vdW  Elec       q    Type
REMARK                         _______ _______ _______ _____ _____    ______ ____
ROOT
ATOM      1  C   UNL     1      -2.883  -2.784  -0.049  0.00  0.00    +0.037 A 
ATOM      2  C   UNL     1      -2.625  -3.468   1.143  0.00  0.00    +0.015 A 
ATOM      3  C   UNL     1      -3.232  -4.679   1.385  0.00  0.00    +0.025 A 
ATOM      4  C   UNL     1      -4.095  -5.228   0.439  0.00  0.00    +0.048 A 
ATOM      5  C   UNL     1      -4.349  -4.552  -0.751  0.00  0.00    +0.025 A 
ATOM      6  C   UNL     1      -3.749  -3.338  -0.996  0.00  0.00    +0.015 A 
ENDROOT
BRANCH   1   8
ATOM      7  N   UNL     1      -1.404  -0.950   0.606  0.00  0.00    -0.313 N 
ATOM      8  C   UNL     1      -2.238  -1.483  -0.308  0.00  0.00    +0.244 C 
ATOM      9  O   UNL     1      -2.460  -0.891  -1.347  0.00  0.00    -0.270 OA
ATOM     10  H   UNL     1      -1.227  -1.422   1.435  0.00  0.00    +0.149 HD
BRANCH   7  11
ATOM     11  C   UNL     1      -0.763   0.342   0.348  0.00  0.00    +0.094 C 
BRANCH  11  12
ATOM     12  C   UNL     1       0.267   0.628   1.442  0.00  0.00    -0.020 C 
BRANCH  12  13
ATOM     13  C   UNL     1       0.842   2.007   1.243  0.00  0.00    -0.041 A 
ATOM     14  C   UNL     1       2.107   2.157   0.706  0.00  0.00    +0.003 A 
ATOM     15  C   UNL     1       2.635   3.422   0.524  0.00  0.00    +0.000 A 
ATOM     16  C   UNL     1       1.898   4.537   0.876  0.00  0.00    +0.001 A 
ATOM     17  C   UNL     1       0.633   4.388   1.412  0.00  0.00    +0.020 A 
ATOM     18  C   UNL     1       0.102   3.123   1.591  0.00  0.00    +0.043 A 
ATOM     19 CL   UNL     1      -1.490   2.935   2.257  0.00  0.00    -0.083 Cl
ENDBRANCH  12  13
BRANCH  12  22
ATOM     20  C   UNL     1       0.981  -1.589   2.101  0.00  0.00    -0.096 C 
ATOM     21  C   UNL     1       1.693  -0.669  -0.022  0.00  0.00    -0.096 C 
ATOM     22  N   UNL     1       1.368  -0.355   1.385  0.00  0.00    +0.382 N 
ATOM     23  H   UNL     1       2.198   0.046   1.837  0.00  0.00    -0.082 HD
ENDBRANCH  12  22
ENDBRANCH  11  12
ENDBRANCH   7  11
ENDBRANCH   1   8
BRANCH   4  24
ATOM     24  N   UNL     1      -4.703  -6.454   0.684  0.00  0.00    -0.217 N 
ATOM     25  H   UNL     1      -5.654  -6.563   0.531  0.00  0.00    +0.174 HD
BRANCH  24  26
ATOM     26  S   UNL     1      -3.802  -7.729   1.238  0.00  0.00    +0.066 S 
ATOM     27  O   UNL     1      -3.054  -7.248   2.346  0.00  0.00    -0.151 OA
ATOM     28  O   UNL     1      -4.686  -8.837   1.338  0.00  0.00    -0.151 OA
BRANCH  26  29
ATOM     29  C   UNL     1      -2.635  -8.128  -0.021  0.00  0.00    +0.157 C 
ATOM     30  C   UNL     1      -1.338  -7.982   0.207  0.00  0.00    +0.028 C 
BRANCH  30  31
ATOM     31  C   UNL     1      -0.359  -8.316  -0.849  0.00  0.00    -0.024 A 
ATOM     32  C   UNL     1      -0.798  -8.791  -2.086  0.00  0.00    +0.008 A 
ATOM     33  C   UNL     1       0.121  -9.096  -3.069  0.00  0.00    +0.001 A 
ATOM     34  C   UNL     1       1.474  -8.944  -2.827  0.00  0.00    +0.000 A 
ATOM     35  C   UNL     1       1.916  -8.478  -1.601  0.00  0.00    +0.001 A 
ATOM     36  C   UNL     1       1.007  -8.164  -0.612  0.00  0.00    +0.008 A 
ENDBRANCH  30  31
ENDBRANCH  26  29
ENDBRANCH  24  26
ENDBRANCH   4  24
TORSDOF 9
