REMARK  Name = ZINC08996638
REMARK  8 active torsions:
REMARK  status: ('A' for Active; 'I' for Inactive)
REMARK    1  A    between atoms: C_1  and  C_2
REMARK    2  A    between atoms: C_2  and  O_3
REMARK    3  A    between atoms: O_3  and  C_4
REMARK    4  A    between atoms: C_7  and  C_11
REMARK    5  A    between atoms: C_8  and  O_10
REMARK    6  A    between atoms: C_12  and  O_18
REMARK    7  A    between atoms: C_13  and  C_17
REMARK    8  A    between atoms: O_18  and  C_19
REMARK                            x       y       z     vdW  Elec       q    Type
REMARK                         _______ _______ _______ _____ _____    ______ ____
ROOT
ATOM      1  C   UNL     1      -1.987  -6.072  -0.013  0.00  0.00    +0.112 A 
ATOM      2  C   UNL     1      -2.547  -6.828  -1.022  0.00  0.00    +0.176 A 
ATOM      3  C   UNL     1      -2.509  -8.167  -0.619  0.00  0.00    +0.102 A 
ATOM      4  N   UNL     1      -1.958  -8.232   0.566  0.00  0.00    -0.175 NA
ATOM      5  N   UNL     1      -1.613  -6.938   0.976  0.00  0.00    -0.273 N 
ATOM      6  H   UNL     1      -1.187  -6.699   1.814  0.00  0.00    +0.189 HD
ATOM      7  C   UNL     1      -3.017  -9.340  -1.417  0.00  0.00    +0.071 C 
ENDROOT
BRANCH   1  11
ATOM      8  C   UNL     1      -1.498  -1.848   0.006  0.00  0.00    +0.124 A 
ATOM      9  C   UNL     1      -0.384  -2.677  -0.003  0.00  0.00    +0.046 A 
ATOM     10  C   UNL     1      -0.538  -4.047  -0.009  0.00  0.00    +0.017 A 
ATOM     11  C   UNL     1      -1.818  -4.604  -0.006  0.00  0.00    +0.045 A 
ATOM     12  C   UNL     1      -2.940  -3.767   0.004  0.00  0.00    +0.130 A 
ATOM     13  C   UNL     1      -2.774  -2.393   0.016  0.00  0.00    +0.091 A 
BRANCH  12  14
ATOM     14  O   UNL     1      -4.189  -4.302   0.007  0.00  0.00    -0.506 OA
ATOM     15  H   UNL     1      -4.546  -4.462   0.891  0.00  0.00    +0.292 HD
ENDBRANCH  12  14
BRANCH   8  16
ATOM     16  O   UNL     1      -1.339  -0.499   0.012  0.00  0.00    -0.492 OA
BRANCH  16  18
ATOM     17  C   UNL     1      -0.019   1.526   0.010  0.00  0.00    +0.048 C 
ATOM     18  C   UNL     1       0.002  -0.004   0.002  0.00  0.00    +0.225 C 
ENDBRANCH  16  18
ENDBRANCH   8  16
ENDBRANCH   1  11
BRANCH   2  19
ATOM     19  O   UNL     1      -3.048  -6.357  -2.197  0.00  0.00    -0.451 OA
BRANCH  19  20
ATOM     20  C   UNL     1      -2.202  -6.257  -3.256  0.00  0.00    +0.143 A 
ATOM     21  C   UNL     1      -0.874  -6.636  -3.124  0.00  0.00    +0.047 A 
ATOM     22  C   UNL     1      -0.017  -6.534  -4.202  0.00  0.00    +0.004 A 
ATOM     23  C   UNL     1      -0.480  -6.055  -5.413  0.00  0.00    +0.001 A 
ATOM     24  C   UNL     1      -1.803  -5.676  -5.549  0.00  0.00    +0.019 A 
ATOM     25  C   UNL     1      -2.667  -5.781  -4.475  0.00  0.00    +0.060 A 
ATOM     26 BR   UNL     1      -4.478  -5.271  -4.664  0.00  0.00    -0.046 Br
ENDBRANCH  19  20
ENDBRANCH   2  19
TORSDOF 6
