REMARK  Name = ZINC36053243
REMARK  13 active torsions:
REMARK  status: ('A' for Active; 'I' for Inactive)
REMARK    1  A    between atoms: C_1  and  C_2
REMARK    2  A    between atoms: C_3  and  C_32
REMARK    3  A    between atoms: C_4  and  C_23
REMARK    4  A    between atoms: C_7  and  C_12
REMARK    5  A    between atoms: C_13  and  N_15
REMARK    6  A    between atoms: N_15  and  C_16
REMARK    7  A    between atoms: C_16  and  C_17
REMARK    8  A    between atoms: C_26  and  C_29
REMARK    9  A    between atoms: C_29  and  C_30
REMARK   10  A    between atoms: C_29  and  C_31
REMARK   11  A    between atoms: C_32  and  O_34
REMARK   12  A    between atoms: O_34  and  C_35
REMARK   13  A    between atoms: C_35  and  C_36
REMARK                            x       y       z     vdW  Elec       q    Type
REMARK                         _______ _______ _______ _____ _____    ______ ____
ROOT
ATOM      1  C   UNL     1       0.333   1.169   0.883  0.00  0.00    +0.066 C 
ATOM      2  C   UNL     1       0.262  -0.288   0.504  0.00  0.00    +0.053 C 
ATOM      3  C   UNL     1      -0.964  -0.922   0.443  0.00  0.00    +0.082 C 
ATOM      4  C   UNL     1      -0.984  -2.384   0.057  0.00  0.00    +0.150 C 
ATOM      5  N   UNL     1       0.327  -3.026  -0.228  0.00  0.00    -0.267 N 
ATOM      6  C   UNL     1       0.547  -4.339  -0.596  0.00  0.00    +0.048 C 
ATOM      7  C   UNL     1       1.825  -4.724  -0.810  0.00  0.00    +0.072 C 
ATOM      8  S   UNL     1       2.722  -3.219  -0.490  0.00  0.00    -0.060 S 
ATOM      9  C   UNL     1       1.426  -2.222  -0.111  0.00  0.00    +0.166 C 
ATOM     10  N   UNL     1       1.373  -0.950   0.225  0.00  0.00    -0.230 NA
ENDROOT
BRANCH   4  11
ATOM     11  C   UNL     1      -1.641  -3.151   1.176  0.00  0.00    -0.022 A 
ATOM     12  C   UNL     1      -0.959  -3.369   2.358  0.00  0.00    +0.006 A 
ATOM     13  C   UNL     1      -1.562  -4.072   3.385  0.00  0.00    +0.004 A 
ATOM     14  C   UNL     1      -2.847  -4.556   3.229  0.00  0.00    -0.045 A 
ATOM     15  C   UNL     1      -3.529  -4.338   2.047  0.00  0.00    +0.004 A 
ATOM     16  C   UNL     1      -2.928  -3.631   1.022  0.00  0.00    +0.006 A 
BRANCH  14  17
ATOM     17  C   UNL     1      -3.504  -5.324   4.347  0.00  0.00    +0.013 C 
ATOM     18  C   UNL     1      -4.777  -4.597   4.785  0.00  0.00    +0.012 C 
ATOM     19  C   UNL     1      -3.861  -6.729   3.860  0.00  0.00    +0.012 C 
ENDBRANCH  14  17
ENDBRANCH   4  11
BRANCH   6  20
ATOM     20  C   UNL     1      -0.568  -5.284  -0.748  0.00  0.00    +0.091 C 
ATOM     21  C   UNL     1      -0.320  -6.587  -0.980  0.00  0.00    +0.239 C 
ATOM     22  O   UNL     1       0.954  -7.050  -0.950  0.00  0.00    -0.271 OA
BRANCH  21  23
ATOM     23  N   UNL     1      -1.366  -7.454  -1.248  0.00  0.00    -0.306 N 
ATOM     24  H   UNL     1      -2.282  -7.140  -1.197  0.00  0.00    +0.149 HD
BRANCH  23  25
ATOM     25  C   UNL     1      -1.088  -8.846  -1.611  0.00  0.00    +0.160 C 
BRANCH  25  26
ATOM     26  C   UNL     1      -2.378  -9.538  -1.970  0.00  0.00    +0.058 A 
ATOM     27  C   UNL     1      -2.765  -9.620  -3.294  0.00  0.00    +0.025 A 
ATOM     28  C   UNL     1      -3.953 -10.258  -3.613  0.00  0.00    +0.003 A 
ATOM     29  C   UNL     1      -4.711 -10.794  -2.583  0.00  0.00    +0.020 A 
ATOM     30  C   UNL     1      -4.261 -10.674  -1.282  0.00  0.00    +0.111 A 
ATOM     31  N   UNL     1      -3.122 -10.064  -1.016  0.00  0.00    -0.258 NA
ENDBRANCH  25  26
ENDBRANCH  23  25
ENDBRANCH  21  23
ENDBRANCH   6  20
BRANCH   3  32
ATOM     32  C   UNL     1      -2.150  -0.234   0.730  0.00  0.00    +0.339 C 
ATOM     33  O   UNL     1      -2.111   0.944   1.040  0.00  0.00    -0.245 OA
BRANCH  32  34
ATOM     34  O   UNL     1      -3.337  -0.876   0.664  0.00  0.00    -0.457 OA
BRANCH  34  35
ATOM     35  C   UNL     1      -4.505  -0.113   0.970  0.00  0.00    +0.259 C 
BRANCH  35  36
ATOM     36  C   UNL     1      -5.725  -0.989   0.845  0.00  0.00    +0.006 C 
ATOM     37  C   UNL     1      -6.653  -0.956   1.768  0.00  0.00    +0.007 C 
ENDBRANCH  35  36
ENDBRANCH  34  35
ENDBRANCH  32  34
ENDBRANCH   3  32
TORSDOF 10
