REMARK  Name = ZINC01322236
REMARK  16 active torsions:
REMARK  status: ('A' for Active; 'I' for Inactive)
REMARK    1  A    between atoms: C_1  and  C_2
REMARK    2  A    between atoms: C_2  and  N_60
REMARK    3  A    between atoms: C_3  and  C_4
REMARK    4  A    between atoms: C_3  and  N_60
REMARK    5  A    between atoms: C_5  and  C_6
REMARK    6  A    between atoms: C_5  and  N_60
REMARK    7  A    between atoms: C_7  and  O_30
REMARK    8  A    between atoms: C_12  and  C_16
REMARK    9  A    between atoms: C_13  and  C_15
REMARK   10  A    between atoms: C_16  and  C_18
REMARK   11  A    between atoms: C_21  and  O_28
REMARK   12  A    between atoms: C_22  and  O_26
REMARK   13  A    between atoms: C_23  and  O_24
REMARK   14  A    between atoms: O_24  and  C_25
REMARK   15  A    between atoms: O_26  and  C_27
REMARK   16  A    between atoms: O_28  and  C_29
REMARK                            x       y       z     vdW  Elec       q    Type
REMARK                         _______ _______ _______ _____ _____    ______ ____
ROOT
ATOM      1  C   UNL     1       3.913   1.831   3.852  0.00  0.00    -0.011 A 
ATOM      2  C   UNL     1       4.904   1.736   4.813  0.00  0.00    +0.119 A 
ATOM      3  C   UNL     1       5.413   2.887   5.405  0.00  0.00    +0.049 A 
ATOM      4  C   UNL     1       4.939   4.130   5.045  0.00  0.00    +0.050 A 
ATOM      5  C   UNL     1       3.944   4.243   4.082  0.00  0.00    +0.136 A 
ATOM      6  C   UNL     1       3.427   3.083   3.489  0.00  0.00    +0.036 A 
ATOM      7  C   UNL     1       2.409   3.552   2.527  0.00  0.00    +0.071 A 
ATOM      8  C   UNL     1       2.401   4.910   2.632  0.00  0.00    +0.114 A 
ATOM      9  O   UNL     1       3.301   5.300   3.542  0.00  0.00    -0.459 OA
ATOM     10  C   UNL     1       1.512   5.835   1.841  0.00  0.00    +0.087 C 
ENDROOT
BRANCH   7  11
ATOM     11  C   UNL     1       1.574   2.725   1.644  0.00  0.00    +0.201 C 
ATOM     12  O   UNL     1       0.452   2.406   1.991  0.00  0.00    -0.286 OA
BRANCH  11  13
ATOM     13  C   UNL     1       2.095   2.283   0.338  0.00  0.00    +0.068 A 
ATOM     14  C   UNL     1       3.361   2.698  -0.090  0.00  0.00    +0.019 A 
ATOM     15  C   UNL     1       3.843   2.288  -1.312  0.00  0.00    +0.050 A 
ATOM     16  C   UNL     1       3.079   1.457  -2.124  0.00  0.00    +0.165 A 
ATOM     17  C   UNL     1       1.822   1.033  -1.708  0.00  0.00    +0.204 A 
ATOM     18  C   UNL     1       1.326   1.440  -0.477  0.00  0.00    +0.176 A 
BRANCH  18  19
ATOM     19  O   UNL     1       0.099   1.028  -0.068  0.00  0.00    -0.491 OA
ATOM     20  C   UNL     1       0.039  -0.190   0.678  0.00  0.00    +0.277 C 
ENDBRANCH  18  19
BRANCH  17  21
ATOM     21  O   UNL     1       1.079   0.220  -2.507  0.00  0.00    -0.488 OA
ATOM     22  C   UNL     1       0.199   0.854  -3.438  0.00  0.00    +0.277 C 
ENDBRANCH  17  21
BRANCH  16  23
ATOM     23  O   UNL     1       3.563   1.058  -3.329  0.00  0.00    -0.491 OA
ATOM     24  C   UNL     1       4.862   1.530  -3.695  0.00  0.00    +0.277 C 
ENDBRANCH  16  23
ENDBRANCH  11  13
ENDBRANCH   7  11
BRANCH   2  25
ATOM     25  O   UNL     1       5.380   0.516   5.179  0.00  0.00    -0.507 OA
ATOM     26  H   UNL     1       4.951   0.146   5.963  0.00  0.00    +0.292 HD
ENDBRANCH   2  25
BRANCH   1  27
ATOM     27  C   UNL     1       3.358   0.587   3.209  0.00  0.00    -0.039 C 
BRANCH  27  28
ATOM     28  N   UNL     1       2.406  -0.048   4.144  0.00  0.00    +0.382 N 
ATOM     29  H   UNL     1       2.844  -0.118   5.070  0.00  0.00    -0.081 HD
BRANCH  28  31
ATOM     30  C   UNL     1       0.393   0.319   5.484  0.00  0.00    -0.017 C 
ATOM     31  C   UNL     1       1.181   0.773   4.254  0.00  0.00    -0.082 C 
ENDBRANCH  28  31
BRANCH  28  32
ATOM     32  C   UNL     1       2.063  -1.406   3.672  0.00  0.00    -0.082 C 
ATOM     33  C   UNL     1       3.220  -2.349   4.008  0.00  0.00    -0.017 C 
ENDBRANCH  28  32
ENDBRANCH  27  28
ENDBRANCH   1  27
TORSDOF 10
