REMARK  Name = ZINC09713061
REMARK  10 active torsions:
REMARK  status: ('A' for Active; 'I' for Inactive)
REMARK    1  A    between atoms: C_1  and  O_2
REMARK    2  A    between atoms: O_2  and  C_3
REMARK    3  A    between atoms: C_6  and  C_9
REMARK    4  A    between atoms: C_9  and  C_10
REMARK    5  A    between atoms: C_9  and  N_18
REMARK    6  A    between atoms: C_13  and  O_16
REMARK    7  A    between atoms: O_16  and  C_17
REMARK    8  A    between atoms: C_19  and  C_21
REMARK    9  A    between atoms: C_21  and  N_59
REMARK   10  A    between atoms: C_25  and  C_27
REMARK                            x       y       z     vdW  Elec       q    Type
REMARK                         _______ _______ _______ _____ _____    ______ ____
ROOT
ATOM      1  C   UNL     1       2.490   1.045  -0.017  0.00  0.00    +0.133 C 
ENDROOT
BRANCH   1   5
ATOM      2  C   UNL     1      -1.237   3.137   0.031  0.00  0.00    +0.120 A 
ATOM      3  C   UNL     1      -1.218   1.750   0.017  0.00  0.00    +0.046 A 
ATOM      4  C   UNL     1      -0.013   1.076   0.008  0.00  0.00    +0.009 A 
ATOM      5  C   UNL     1       1.176   1.783   0.000  0.00  0.00    -0.023 A 
ATOM      6  C   UNL     1       1.160   3.165   0.008  0.00  0.00    +0.009 A 
ATOM      7  C   UNL     1      -0.043   3.844   0.023  0.00  0.00    +0.046 A 
BRANCH   2   9
ATOM      8  C   UNL     1      -3.611   3.009   0.052  0.00  0.00    +0.277 C 
ATOM      9  O   UNL     1      -2.422   3.802   0.045  0.00  0.00    -0.495 OA
ENDBRANCH   2   9
ENDBRANCH   1   5
BRANCH   1  10
ATOM     10  C   UNL     1       3.062   1.006   1.377  0.00  0.00    -0.023 A 
ATOM     11  C   UNL     1       3.732   2.107   1.879  0.00  0.00    +0.009 A 
ATOM     12  C   UNL     1       4.252   2.076   3.158  0.00  0.00    +0.046 A 
ATOM     13  C   UNL     1       4.113   0.935   3.935  0.00  0.00    +0.120 A 
ATOM     14  C   UNL     1       3.446  -0.170   3.427  0.00  0.00    +0.046 A 
ATOM     15  C   UNL     1       2.922  -0.132   2.149  0.00  0.00    +0.009 A 
BRANCH  13  16
ATOM     16  O   UNL     1       4.630   0.900   5.191  0.00  0.00    -0.495 OA
ATOM     17  C   UNL     1       5.304   2.074   5.649  0.00  0.00    +0.277 C 
ENDBRANCH  13  16
ENDBRANCH   1  10
BRANCH   1  18
ATOM     18  N   UNL     1       3.425   1.734  -0.910  0.00  0.00    -0.306 N 
ATOM     19  C   UNL     1       4.436   1.051  -1.483  0.00  0.00    +0.197 C 
ATOM     20  O   UNL     1       4.571  -0.133  -1.260  0.00  0.00    -0.278 OA
ATOM     21  H   UNL     1       3.316   2.681  -1.088  0.00  0.00    +0.150 HD
BRANCH  19  22
ATOM     22  C   UNL     1       5.397   1.760  -2.402  0.00  0.00    +0.019 C 
BRANCH  22  27
ATOM     23  C   UNL     1       7.387   0.476  -1.833  0.00  0.00    -0.077 C 
ATOM     24  C   UNL     1       8.616  -0.058  -2.599  0.00  0.00    -0.020 C 
ATOM     25  C   UNL     1       8.504   0.551  -4.012  0.00  0.00    -0.012 C 
ATOM     26  C   UNL     1       7.216   1.401  -3.981  0.00  0.00    -0.030 C 
ATOM     27  N   UNL     1       6.436   0.800  -2.894  0.00  0.00    +0.390 N 
ATOM     28  H   UNL     1       5.974  -0.056  -3.224  0.00  0.00    -0.080 HD
BRANCH  26  29
ATOM     29  C   UNL     1       6.489   1.306  -5.297  0.00  0.00    -0.024 A 
ATOM     30  C   UNL     1       6.403   2.222  -6.293  0.00  0.00    +0.009 A 
ATOM     31  C   UNL     1       5.675   1.913  -7.427  0.00  0.00    +0.008 A 
ATOM     32  C   UNL     1       5.059   0.708  -7.504  0.00  0.00    +0.045 A 
ATOM     33  S   UNL     1       5.509  -0.038  -5.946  0.00  0.00    -0.103 S 
ENDBRANCH  26  29
ENDBRANCH  22  27
ENDBRANCH  19  22
ENDBRANCH   1  18
TORSDOF 8
