REMARK  Name = ZINC03349973
REMARK  7 active torsions:
REMARK  status: ('A' for Active; 'I' for Inactive)
REMARK    1  A    between atoms: C_1  and  C_2
REMARK    2  A    between atoms: C_5  and  C_8
REMARK    3  A    between atoms: C_11  and  S_14
REMARK    4  A    between atoms: N_12  and  N_13
REMARK    5  A    between atoms: S_14  and  C_15
REMARK    6  A    between atoms: C_15  and  C_16
REMARK    7  A    between atoms: N_18  and  C_19
REMARK                            x       y       z     vdW  Elec       q    Type
REMARK                         _______ _______ _______ _____ _____    ______ ____
ROOT
ATOM      1  S   UNL     1      -1.771   6.229  -0.524  0.00  0.00    -0.075 S 
ENDROOT
BRANCH   1   5
ATOM      2  C   UNL     1      -1.741  10.136  -0.539  0.00  0.00    +0.182 A 
ATOM      3  N   UNL     1      -0.476   9.839  -0.353  0.00  0.00    -0.127 NA
ATOM      4  N   UNL     1      -0.326   8.563  -0.319  0.00  0.00    -0.121 NA
ATOM      5  C   UNL     1      -1.484   7.967  -0.491  0.00  0.00    +0.209 A 
ATOM      6  N   UNL     1      -2.426   8.946  -0.634  0.00  0.00    -0.224 N 
BRANCH   2  11
ATOM      7  C   UNL     1      -3.998  15.418  -0.894  0.00  0.00    +0.044 C 
ATOM      8  C   UNL     1      -3.407  14.034  -0.801  0.00  0.00    -0.050 A 
ATOM      9  C   UNL     1      -4.230  12.949  -0.561  0.00  0.00    +0.004 A 
ATOM     10  C   UNL     1      -3.695  11.680  -0.474  0.00  0.00    +0.012 A 
ATOM     11  C   UNL     1      -2.321  11.493  -0.630  0.00  0.00    +0.021 A 
ATOM     12  C   UNL     1      -1.496  12.593  -0.867  0.00  0.00    +0.012 A 
ATOM     13  C   UNL     1      -2.044  13.856  -0.956  0.00  0.00    +0.004 A 
ENDBRANCH   2  11
BRANCH   6  14
ATOM     14  N   UNL     1      -3.767   8.779  -0.829  0.00  0.00    -0.295 N 
ATOM     15  H   UNL     1      -4.269   8.834   0.045  0.00  0.00    +0.163 HD
ATOM     16  H   UNL     1      -4.123   9.451  -1.493  0.00  0.00    +0.163 HD
ENDBRANCH   6  14
ENDBRANCH   1   5
BRANCH   1  17
ATOM     17  C   UNL     1      -0.082   5.627  -0.274  0.00  0.00    +0.173 C 
BRANCH  17  18
ATOM     18  C   UNL     1      -0.082   4.120  -0.267  0.00  0.00    +0.227 C 
ATOM     19  O   UNL     1      -1.121   3.513  -0.415  0.00  0.00    -0.275 OA
ATOM     20  N   UNL     1       1.073   3.447  -0.094  0.00  0.00    -0.285 N 
ATOM     21  H   UNL     1       1.891   3.931   0.100  0.00  0.00    +0.155 HD
BRANCH  20  22
ATOM     22  C   UNL     1       1.092   2.050  -0.196  0.00  0.00    +0.037 A 
ATOM     23  C   UNL     1       0.149   1.399  -0.980  0.00  0.00    +0.027 A 
ATOM     24  C   UNL     1       0.166   0.021  -1.081  0.00  0.00    +0.051 A 
ATOM     25  C   UNL     1       1.124  -0.715  -0.402  0.00  0.00    +0.173 A 
ATOM     26  C   UNL     1       2.071  -0.064   0.385  0.00  0.00    +0.174 A 
ATOM     27  C   UNL     1       2.053   1.317   0.486  0.00  0.00    +0.073 A 
ATOM     28  O   UNL     1       2.894  -1.000   0.942  0.00  0.00    -0.395 OA
ATOM     29  C   UNL     1       2.696  -2.196   0.165  0.00  0.00    +0.589 C 
ATOM     30  O   UNL     1       1.354  -2.059  -0.338  0.00  0.00    -0.395 OA
ATOM     31  F   UNL     1       3.614  -2.255  -0.890  0.00  0.00    -0.125 F 
ATOM     32  F   UNL     1       2.808  -3.332   0.975  0.00  0.00    -0.125 F 
ENDBRANCH  20  22
ENDBRANCH  17  18
ENDBRANCH   1  17
TORSDOF 6
