REMARK  Name = ZINC67401150
REMARK  6 active torsions:
REMARK  status: ('A' for Active; 'I' for Inactive)
REMARK    1  A    between atoms: C_3  and  N_25
REMARK    2  A    between atoms: C_4  and  C_8
REMARK    3  A    between atoms: C_8  and  N_9
REMARK    4  A    between atoms: C_12  and  C_15
REMARK    5  A    between atoms: C_15  and  C_17
REMARK    6  A    between atoms: C_15  and  O_24
REMARK                            x       y       z     vdW  Elec       q    Type
REMARK                         _______ _______ _______ _____ _____    ______ ____
ROOT
ATOM      1  N   UNL     1       4.025  -1.268   1.263  0.00  0.00    +0.383 N 
ATOM      2  C   UNL     1       4.213  -0.112   2.147  0.00  0.00    -0.078 C 
ATOM      3  C   UNL     1       4.542  -0.595   3.561  0.00  0.00    -0.012 C 
ATOM      4  C   UNL     1       5.827  -1.425   3.525  0.00  0.00    +0.019 C 
ATOM      5  C   UNL     1       5.646  -2.587   2.543  0.00  0.00    -0.012 C 
ATOM      6  C   UNL     1       5.276  -2.030   1.167  0.00  0.00    -0.078 C 
ATOM      7  H   UNL     1       3.299  -1.861   1.637  0.00  0.00    -0.081 HD
ENDROOT
BRANCH   1   8
ATOM      8  C   UNL     1       3.633  -0.802  -0.074  0.00  0.00    -0.038 C 
BRANCH   8  12
ATOM      9  C   UNL     1      -0.214   1.047   0.134  0.00  0.00    +0.005 A 
ATOM     10  C   UNL     1      -0.110  -0.331   0.073  0.00  0.00    +0.033 A 
ATOM     11  C   UNL     1       1.134  -0.929   0.005  0.00  0.00    +0.130 A 
ATOM     12  C   UNL     1       2.276  -0.150  -0.001  0.00  0.00    +0.001 A 
ATOM     13  C   UNL     1       2.174   1.229   0.060  0.00  0.00    +0.127 A 
ATOM     14  C   UNL     1       0.926   1.827   0.128  0.00  0.00    +0.039 A 
ATOM     15  F   UNL     1       3.289   1.991   0.054  0.00  0.00    -0.205 F 
BRANCH  11  16
ATOM     16  N   UNL     1       1.244  -2.403  -0.059  0.00  0.00    +0.057 N 
ATOM     17  O   UNL     1       0.250  -3.087   0.019  0.00  0.00    -0.126 OA
ATOM     18  O   UNL     1       2.327  -2.924  -0.191  0.00  0.00    -0.126 OA
ENDBRANCH  11  16
ENDBRANCH   8  12
ENDBRANCH   1   8
BRANCH   4  19
ATOM     19  C   UNL     1       6.119  -1.978   4.922  0.00  0.00    +0.147 C 
BRANCH  19  20
ATOM     20  C   UNL     1       7.447  -2.691   4.913  0.00  0.00    -0.019 A 
ATOM     21  C   UNL     1       7.535  -3.978   4.417  0.00  0.00    +0.007 A 
ATOM     22  C   UNL     1       8.753  -4.633   4.408  0.00  0.00    +0.020 A 
ATOM     23  C   UNL     1       9.882  -4.000   4.896  0.00  0.00    +0.041 A 
ATOM     24  C   UNL     1       9.793  -2.712   5.392  0.00  0.00    +0.020 A 
ATOM     25  C   UNL     1       8.576  -2.056   5.395  0.00  0.00    +0.007 A 
ATOM     26 CL   UNL     1      11.411  -4.823   4.886  0.00  0.00    -0.084 Cl
ENDBRANCH  19  20
BRANCH  19  27
ATOM     27  O   UNL     1       5.089  -2.893   5.297  0.00  0.00    -0.387 OA
ATOM     28  H   UNL     1       5.001  -3.652   4.703  0.00  0.00    +0.210 HD
ENDBRANCH  19  27
ENDBRANCH   4  19
TORSDOF 6
