REMARK  Name = ZINC39684240
REMARK  8 active torsions:
REMARK  status: ('A' for Active; 'I' for Inactive)
REMARK    1  A    between atoms: C_1  and  C_2
REMARK    2  A    between atoms: C_7  and  C_11
REMARK    3  A    between atoms: C_11  and  C_12
REMARK    4  A    between atoms: C_12  and  N_13
REMARK    5  A    between atoms: C_14  and  C_16
REMARK    6  A    between atoms: C_27  and  C_29
REMARK    7  A    between atoms: C_30  and  C_41
REMARK    8  A    between atoms: C_33  and  C_35
REMARK                            x       y       z     vdW  Elec       q    Type
REMARK                         _______ _______ _______ _____ _____    ______ ____
ROOT
ATOM      1  C   UNL     1      -5.735   2.783  -6.713  0.00  0.00    +0.100 C 
ATOM      2  C   UNL     1      -6.204   3.445  -8.028  0.00  0.00    +0.121 C 
ATOM      3  N   UNL     1      -6.499   2.310  -8.934  0.00  0.00    -0.296 N 
ATOM      4  C   UNL     1      -7.140   1.298  -8.061  0.00  0.00    +0.115 C 
ATOM      5  C   UNL     1      -6.355   1.375  -6.737  0.00  0.00    -0.004 C 
ATOM      6  C   UNL     1      -7.298   1.193  -5.552  0.00  0.00    -0.010 C 
ATOM      7  C   UNL     1      -7.856  -0.233  -5.564  0.00  0.00    -0.082 C 
ATOM      8  N   UNL     1      -6.750  -1.194  -5.487  0.00  0.00    +0.379 N 
ATOM      9  C   UNL     1      -5.899  -1.075  -6.677  0.00  0.00    -0.082 C 
ATOM     10  C   UNL     1      -5.258   0.315  -6.712  0.00  0.00    -0.010 C 
ATOM     11  C   UNL     1      -6.242   2.219 -10.254  0.00  0.00    +0.248 C 
ATOM     12  O   UNL     1      -5.635   3.110 -10.819  0.00  0.00    -0.270 OA
ATOM     13  H   UNL     1      -6.200  -1.006  -4.662  0.00  0.00    -0.086 HD
ATOM     14  H   UNL     1      -7.123  -2.130  -5.434  0.00  0.00    -0.086 HD
ENDROOT
BRANCH  11  15
ATOM     15  C   UNL     1      -6.680   1.085 -10.985  0.00  0.00    +0.078 C 
ATOM     16  C   UNL     1      -5.998   0.453 -11.955  0.00  0.00    +0.132 C 
ATOM     17  O   UNL     1      -6.690  -0.586 -12.460  0.00  0.00    -0.410 OA
ATOM     18  N   UNL     1      -7.759  -0.929 -11.506  0.00  0.00    -0.144 NA
ATOM     19  C   UNL     1      -8.001   0.359 -10.810  0.00  0.00    +0.161 C 
ATOM     20  C   UNL     1      -4.623   0.858 -12.421  0.00  0.00    +0.089 C 
ATOM     21  H   UNL     1      -7.450  -1.635 -10.855  0.00  0.00    +0.168 HD
BRANCH  19  22
ATOM     22  C   UNL     1      -9.120   1.120 -11.472  0.00  0.00    -0.023 A 
ATOM     23  C   UNL     1      -9.056   1.409 -12.823  0.00  0.00    +0.005 A 
ATOM     24  C   UNL     1     -10.083   2.106 -13.431  0.00  0.00    +0.000 A 
ATOM     25  C   UNL     1     -11.175   2.514 -12.688  0.00  0.00    +0.000 A 
ATOM     26  C   UNL     1     -11.240   2.225 -11.338  0.00  0.00    +0.000 A 
ATOM     27  C   UNL     1     -10.215   1.524 -10.731  0.00  0.00    +0.005 A 
ENDBRANCH  19  22
ENDBRANCH  11  15
BRANCH   1  29
ATOM     28  N   UNL     1      -3.588   2.629  -5.495  0.00  0.00    -0.315 N 
ATOM     29  C   UNL     1      -4.231   2.694  -6.678  0.00  0.00    +0.218 C 
ATOM     30  O   UNL     1      -3.600   2.680  -7.713  0.00  0.00    -0.275 OA
ATOM     31  H   UNL     1      -4.087   2.705  -4.667  0.00  0.00    +0.149 HD
BRANCH  28  32
ATOM     32  C   UNL     1      -2.135   2.445  -5.461  0.00  0.00    +0.109 C 
BRANCH  32  33
ATOM     33  C   UNL     1      -1.675   2.283  -4.011  0.00  0.00    +0.056 C 
BRANCH  33  40
ATOM     34  C   UNL     1       4.546   3.058  -3.881  0.00  0.00    +0.046 C 
ATOM     35  C   UNL     1       3.155   3.632  -3.950  0.00  0.00    -0.027 A 
ATOM     36  C   UNL     1       2.973   4.996  -4.029  0.00  0.00    +0.005 A 
ATOM     37  C   UNL     1       1.697   5.538  -4.094  0.00  0.00    +0.001 A 
ATOM     38  C   UNL     1       0.597   4.727  -4.080  0.00  0.00    +0.010 A 
ATOM     39  C   UNL     1       0.758   3.342  -4.001  0.00  0.00    +0.003 A 
ATOM     40  C   UNL     1      -0.171   2.210  -3.966  0.00  0.00    -0.021 A 
ATOM     41  C   UNL     1       0.573   1.095  -3.885  0.00  0.00    +0.087 A 
ATOM     42  N   UNL     1       1.902   1.421  -3.866  0.00  0.00    -0.360 N 
ATOM     43  C   UNL     1       2.050   2.788  -3.941  0.00  0.00    +0.050 A 
ATOM     44  H   UNL     1       2.631   0.784  -3.812  0.00  0.00    +0.165 HD
ENDBRANCH  33  40
ENDBRANCH  32  33
ENDBRANCH  28  32
ENDBRANCH   1  29
TORSDOF 6
