REMARK  Name = ZINC42360335
REMARK  10 active torsions:
REMARK  status: ('A' for Active; 'I' for Inactive)
REMARK    1  A    between atoms: C_1  and  N_2
REMARK    2  A    between atoms: N_2  and  C_3
REMARK    3  A    between atoms: N_2  and  C_10
REMARK    4  A    between atoms: C_3  and  C_4
REMARK    5  A    between atoms: C_10  and  C_11
REMARK    6  A    between atoms: C_11  and  C_13
REMARK    7  A    between atoms: C_11  and  O_22
REMARK    8  A    between atoms: C_13  and  O_14
REMARK    9  A    between atoms: O_14  and  C_15
REMARK   10  A    between atoms: C_19  and  N_21
REMARK                            x       y       z     vdW  Elec       q    Type
REMARK                         _______ _______ _______ _____ _____    ______ ____
ROOT
ATOM      1  C   UNL     1      -0.118  -0.077  -2.443  0.00  0.00    +0.135 C 
ENDROOT
BRANCH   1   2
ATOM      2  O   UNL     1      -1.418  -0.665  -2.373  0.00  0.00    -0.390 OA
ATOM      3  H   UNL     1      -1.412  -1.631  -2.338  0.00  0.00    +0.210 HD
ENDBRANCH   1   2
BRANCH   1   4
ATOM      4  C   UNL     1       0.690  -0.478  -1.207  0.00  0.00    -0.044 C 
BRANCH   4   6
ATOM      5  C   UNL     1      -0.018   1.465   0.010  0.00  0.00    -0.096 C 
ATOM      6  N   UNL     1       0.002  -0.004   0.002  0.00  0.00    +0.382 N 
ATOM      7  H   UNL     1      -0.945  -0.353   0.009  0.00  0.00    -0.082 HD
BRANCH   6   8
ATOM      8  C   UNL     1       0.713  -0.491   1.192  0.00  0.00    -0.043 C 
BRANCH   8   9
ATOM      9  C   UNL     1      -0.059  -0.109   2.429  0.00  0.00    -0.056 A 
ATOM     10  C   UNL     1       0.180   1.097   3.061  0.00  0.00    +0.024 A 
ATOM     11  C   UNL     1      -0.532   1.409   4.173  0.00  0.00    +0.055 A 
ATOM     12  S   UNL     1      -1.580  -0.025   4.354  0.00  0.00    -0.090 S 
ATOM     13  C   UNL     1      -1.003  -0.941   2.934  0.00  0.00    +0.048 A 
ATOM     14 BR   UNL     1      -0.439   2.960   5.250  0.00  0.00    -0.043 Br
ENDBRANCH   8   9
ENDBRANCH   6   8
ENDBRANCH   4   6
ENDBRANCH   1   4
BRANCH   1  15
ATOM     15  C   UNL     1       0.598  -0.571  -3.702  0.00  0.00    +0.258 C 
BRANCH  15  16
ATOM     16  O   UNL     1      -0.093  -0.097  -4.859  0.00  0.00    -0.489 OA
BRANCH  16  17
ATOM     17  C   UNL     1       0.417  -0.449  -6.069  0.00  0.00    +0.122 A 
ATOM     18  C   UNL     1       1.556  -1.239  -6.139  0.00  0.00    +0.046 A 
ATOM     19  C   UNL     1       2.076  -1.597  -7.369  0.00  0.00    +0.005 A 
ATOM     20  C   UNL     1       1.464  -1.171  -8.531  0.00  0.00    +0.023 A 
ATOM     21  C   UNL     1       0.323  -0.380  -8.467  0.00  0.00    +0.028 A 
ATOM     22  C   UNL     1      -0.204  -0.024  -7.233  0.00  0.00    +0.068 A 
BRANCH  21  23
ATOM     23  N   UNL     1      -0.296   0.051  -9.642  0.00  0.00    -0.358 N 
ATOM     24  H   UNL     1       0.070  -0.202 -10.504  0.00  0.00    +0.142 HD
ATOM     25  H   UNL     1      -1.093   0.603  -9.597  0.00  0.00    +0.142 HD
ENDBRANCH  21  23
ENDBRANCH  16  17
ENDBRANCH  15  16
ENDBRANCH   1  15
TORSDOF 9
