REMARK  Name = ZINC19940173
REMARK  12 active torsions:
REMARK  status: ('A' for Active; 'I' for Inactive)
REMARK    1  A    between atoms: C_1  and  C_2
REMARK    2  A    between atoms: C_5  and  C_39
REMARK    3  A    between atoms: C_6  and  N_8
REMARK    4  A    between atoms: C_9  and  C_11
REMARK    5  A    between atoms: C_11  and  S_12
REMARK    6  A    between atoms: S_12  and  C_13
REMARK    7  A    between atoms: C_14  and  C_37
REMARK    8  A    between atoms: C_15  and  C_31
REMARK    9  A    between atoms: C_17  and  C_21
REMARK   10  A    between atoms: C_18  and  C_20
REMARK   11  A    between atoms: N_23  and  C_24
REMARK   12  A    between atoms: C_29  and  C_30
REMARK                            x       y       z     vdW  Elec       q    Type
REMARK                         _______ _______ _______ _____ _____    ______ ____
ROOT
ATOM      1  C   UNL     1       3.422   4.008  -0.149  0.00  0.00    +0.080 C 
ATOM      2  C   UNL     1       3.622   2.663  -0.170  0.00  0.00    +0.069 C 
ATOM      3  C   UNL     1       3.581   1.849   1.092  0.00  0.00    +0.098 C 
ATOM      4  C   UNL     1       3.694   2.731   2.301  0.00  0.00    +0.044 C 
ATOM      5  C   UNL     1       3.493   4.057   2.229  0.00  0.00    +0.014 C 
ATOM      6  N   UNL     1       3.183   4.660   1.041  0.00  0.00    -0.312 N 
ATOM      7  C   UNL     1       3.610   4.894   3.477  0.00  0.00    +0.061 C 
ATOM      8  H   UNL     1       2.743   5.668   1.037  0.00  0.00    +0.152 HD
ENDROOT
BRANCH   3   9
ATOM      9  C   UNL     1       2.280   1.091   1.151  0.00  0.00    -0.035 A 
ATOM     10  C   UNL     1       1.080   1.778   1.154  0.00  0.00    +0.004 A 
ATOM     11  C   UNL     1      -0.114   1.083   1.208  0.00  0.00    +0.000 A 
ATOM     12  C   UNL     1      -0.108  -0.298   1.260  0.00  0.00    +0.000 A 
ATOM     13  C   UNL     1       1.092  -0.985   1.258  0.00  0.00    +0.000 A 
ATOM     14  C   UNL     1       2.285  -0.290   1.203  0.00  0.00    +0.004 A 
ENDBRANCH   3   9
BRANCH   4  15
ATOM     15  C   UNL     1       4.021   2.151   3.550  0.00  0.00    +0.247 C 
ATOM     16  O   UNL     1       4.116   2.852   4.541  0.00  0.00    -0.270 OA
ATOM     17  N   UNL     1       4.226   0.822   3.642  0.00  0.00    -0.281 N 
ATOM     18  H   UNL     1       4.229   0.201   2.734  0.00  0.00    +0.155 HD
BRANCH  17  19
ATOM     19  C   UNL     1       4.434   0.231   4.893  0.00  0.00    +0.037 A 
ATOM     20  C   UNL     1       3.941   0.840   6.040  0.00  0.00    +0.023 A 
ATOM     21  C   UNL     1       4.148   0.254   7.274  0.00  0.00    +0.002 A 
ATOM     22  C   UNL     1       4.845  -0.937   7.367  0.00  0.00    +0.000 A 
ATOM     23  C   UNL     1       5.336  -1.545   6.227  0.00  0.00    +0.005 A 
ATOM     24  C   UNL     1       5.128  -0.968   4.990  0.00  0.00    -0.029 A 
ATOM     25  C   UNL     1       5.658  -1.635   3.747  0.00  0.00    +0.045 C 
ENDBRANCH  17  19
ENDBRANCH   4  15
BRANCH   2  26
ATOM     26  C   UNL     1       3.877   2.011  -1.419  0.00  0.00    +0.098 C 
ATOM     27  N   UNL     1       4.079   1.493  -2.410  0.00  0.00    -0.191 NA
ENDBRANCH   2  26
BRANCH   1  28
ATOM     28  S   UNL     1       3.467   4.923  -1.654  0.00  0.00    -0.100 S 
BRANCH  28  29
ATOM     29  C   UNL     1       3.147   6.588  -1.019  0.00  0.00    +0.171 C 
BRANCH  29  31
ATOM     30  N   UNL     1       2.919   8.877  -1.927  0.00  0.00    -0.285 N 
ATOM     31  C   UNL     1       3.140   7.569  -2.163  0.00  0.00    +0.227 C 
ATOM     32  O   UNL     1       3.332   7.181  -3.296  0.00  0.00    -0.275 OA
ATOM     33  H   UNL     1       2.655   9.217  -0.915  0.00  0.00    +0.155 HD
BRANCH  30  39
ATOM     34  C   UNL     1       4.779  10.128  -6.303  0.00  0.00    +0.044 C 
ATOM     35  C   UNL     1       3.921  10.436  -5.103  0.00  0.00    -0.049 A 
ATOM     36  C   UNL     1       3.237  11.636  -5.033  0.00  0.00    +0.004 A 
ATOM     37  C   UNL     1       2.448  11.922  -3.935  0.00  0.00    +0.005 A 
ATOM     38  C   UNL     1       2.340  11.009  -2.903  0.00  0.00    -0.029 A 
ATOM     39  C   UNL     1       3.026   9.804  -2.970  0.00  0.00    +0.037 A 
ATOM     40  C   UNL     1       3.823   9.522  -4.072  0.00  0.00    +0.027 A 
ATOM     41  C   UNL     1       1.479  11.322  -1.707  0.00  0.00    +0.045 C 
ENDBRANCH  30  39
ENDBRANCH  29  31
ENDBRANCH  28  29
ENDBRANCH   1  28
TORSDOF 8
