REMARK  Name = ZINC39898943
REMARK  10 active torsions:
REMARK  status: ('A' for Active; 'I' for Inactive)
REMARK    1  A    between atoms: C_1  and  C_2
REMARK    2  A    between atoms: C_2  and  C_3
REMARK    3  A    between atoms: C_3  and  O_4
REMARK    4  A    between atoms: O_4  and  C_5
REMARK    5  A    between atoms: C_9  and  C_11
REMARK    6  A    between atoms: C_14  and  C_30
REMARK    7  A    between atoms: N_21  and  C_22
REMARK    8  A    between atoms: C_22  and  C_23
REMARK    9  A    between atoms: C_26  and  C_29
REMARK   10  A    between atoms: C_35  and  O_36
REMARK                            x       y       z     vdW  Elec       q    Type
REMARK                         _______ _______ _______ _____ _____    ______ ____
ROOT
ATOM      1  C   UNL     1      -3.974  -6.099   0.013  0.00  0.00    +0.142 C 
ATOM      2  C   UNL     1      -4.381  -6.616  -1.340  0.00  0.00    +0.035 A 
ATOM      3  C   UNL     1      -4.093  -6.701  -2.706  0.00  0.00    +0.102 A 
ATOM      4  N   UNL     1      -5.051  -7.410  -3.269  0.00  0.00    -0.173 NA
ATOM      5  N   UNL     1      -5.917  -7.781  -2.393  0.00  0.00    -0.272 N 
ATOM      6  H   UNL     1      -6.707  -8.311  -2.581  0.00  0.00    +0.189 HD
ATOM      7  C   UNL     1      -5.559  -7.317  -1.159  0.00  0.00    +0.126 A 
ATOM      8  C   UNL     1      -5.919  -7.266   0.262  0.00  0.00    +0.266 C 
ATOM      9  O   UNL     1      -6.904  -7.788   0.747  0.00  0.00    -0.268 OA
ATOM     10  N   UNL     1      -5.004  -6.561   0.953  0.00  0.00    -0.281 N 
ENDROOT
BRANCH   3  11
ATOM     11  C   UNL     1      -2.922  -6.103  -3.395  0.00  0.00    +0.045 A 
ATOM     12  C   UNL     1      -1.918  -5.482  -2.657  0.00  0.00    +0.033 A 
ATOM     13  C   UNL     1      -0.831  -4.926  -3.303  0.00  0.00    +0.042 A 
ATOM     14  C   UNL     1      -0.737  -4.984  -4.683  0.00  0.00    +0.023 A 
ATOM     15  C   UNL     1      -1.729  -5.598  -5.424  0.00  0.00    +0.047 A 
ATOM     16  C   UNL     1      -2.821  -6.164  -4.788  0.00  0.00    +0.126 A 
ATOM     17 CL   UNL     1       0.421  -4.153  -2.382  0.00  0.00    -0.084 Cl
BRANCH  16  18
ATOM     18  O   UNL     1      -3.794  -6.772  -5.515  0.00  0.00    -0.506 OA
ATOM     19  H   UNL     1      -4.507  -6.181  -5.791  0.00  0.00    +0.292 HD
ENDBRANCH  16  18
ENDBRANCH   3  11
BRANCH   1  24
ATOM     20  C   UNL     1      -2.675  -2.555   0.180  0.00  0.00    +0.121 A 
ATOM     21  C   UNL     1      -3.837  -1.826  -0.030  0.00  0.00    +0.045 A 
ATOM     22  C   UNL     1      -5.036  -2.482  -0.225  0.00  0.00    +0.004 A 
ATOM     23  C   UNL     1      -5.080  -3.865  -0.211  0.00  0.00    +0.006 A 
ATOM     24  C   UNL     1      -3.924  -4.593  -0.002  0.00  0.00    -0.019 A 
ATOM     25  C   UNL     1      -2.720  -3.941   0.188  0.00  0.00    +0.051 A 
BRANCH  20  26
ATOM     26  O   UNL     1      -1.493  -1.911   0.371  0.00  0.00    -0.492 OA
BRANCH  26  27
ATOM     27  C   UNL     1      -1.522  -0.483   0.350  0.00  0.00    +0.229 C 
BRANCH  27  29
ATOM     28  C   UNL     1      -0.140   1.589   0.559  0.00  0.00    +0.007 C 
ATOM     29  C   UNL     1      -0.110   0.059   0.581  0.00  0.00    +0.038 C 
ENDBRANCH  27  29
ENDBRANCH  26  27
ENDBRANCH  20  26
ENDBRANCH   1  24
BRANCH  10  30
ATOM     30  C   UNL     1      -5.030  -6.298   2.394  0.00  0.00    +0.144 C 
BRANCH  30  31
ATOM     31  C   UNL     1      -5.782  -5.019   2.659  0.00  0.00    -0.030 A 
ATOM     32  C   UNL     1      -5.107  -3.813   2.680  0.00  0.00    +0.005 A 
ATOM     33  C   UNL     1      -5.797  -2.640   2.922  0.00  0.00    +0.003 A 
ATOM     34  C   UNL     1      -7.161  -2.673   3.143  0.00  0.00    -0.050 A 
ATOM     35  C   UNL     1      -7.836  -3.879   3.121  0.00  0.00    +0.003 A 
ATOM     36  C   UNL     1      -7.147  -5.052   2.874  0.00  0.00    +0.005 A 
ATOM     37  C   UNL     1      -7.913  -1.394   3.408  0.00  0.00    +0.044 C 
ENDBRANCH  30  31
ENDBRANCH  10  30
TORSDOF 8
