REMARK  Name = ZINC02130481
REMARK  7 active torsions:
REMARK  status: ('A' for Active; 'I' for Inactive)
REMARK    1  A    between atoms: C_1  and  C_2
REMARK    2  A    between atoms: C_16  and  C_18
REMARK    3  A    between atoms: C_18  and  C_19
REMARK    4  A    between atoms: C_19  and  C_20
REMARK    5  A    between atoms: N_25  and  C_28
REMARK    6  A    between atoms: C_28  and  C_30
REMARK    7  A    between atoms: C_28  and  C_31
REMARK                            x       y       z     vdW  Elec       q    Type
REMARK                         _______ _______ _______ _____ _____    ______ ____
ROOT
ATOM      1  C   UNL     1       4.797  -1.533   0.249  0.00  0.00    +0.047 C 
ATOM      2  C   UNL     1       3.739  -0.934  -0.642  0.00  0.00    -0.011 A 
ATOM      3  C   UNL     1       3.701  -1.263  -1.982  0.00  0.00    +0.046 A 
ATOM      4  C   UNL     1       2.733  -0.719  -2.808  0.00  0.00    +0.020 A 
ATOM      5  C   UNL     1       1.799   0.160  -2.287  0.00  0.00    +0.006 A 
ATOM      6  C   UNL     1       1.833   0.490  -0.951  0.00  0.00    -0.027 A 
ATOM      7  C   UNL     1       2.802  -0.051  -0.111  0.00  0.00    +0.040 A 
ATOM      8  N   UNL     1       2.635   0.428   1.190  0.00  0.00    -0.286 N 
ATOM      9  C   UNL     1       1.595   1.278   1.289  0.00  0.00    +0.211 C 
ATOM     10  O   UNL     1       1.216   1.846   2.292  0.00  0.00    -0.277 OA
ATOM     11  C   UNL     1       0.994   1.387  -0.086  0.00  0.00    +0.050 C 
ATOM     12  C   UNL     1       1.010   2.834  -0.593  0.00  0.00    +0.088 C 
ATOM     13  C   UNL     1      -0.302   2.974  -1.415  0.00  0.00    +0.073 C 
ATOM     14  C   UNL     1      -0.976   1.588  -1.325  0.00  0.00    -0.057 C 
ATOM     15  C   UNL     1      -1.108   3.974  -0.619  0.00  0.00    +0.225 C 
ATOM     16  O   UNL     1      -2.217   4.369  -0.908  0.00  0.00    -0.275 OA
ATOM     17  N   UNL     1      -0.406   4.356   0.455  0.00  0.00    -0.235 N 
ATOM     18  C   UNL     1       0.796   3.781   0.566  0.00  0.00    +0.226 C 
ATOM     19  O   UNL     1       1.591   3.986   1.458  0.00  0.00    -0.275 OA
ATOM     20 CL   UNL     1       4.872  -2.366  -2.635  0.00  0.00    -0.083 Cl
ATOM     21  H   UNL     1       3.203   0.179   1.936  0.00  0.00    +0.155 HD
ATOM     22  N   UNL     1      -0.404   0.993  -0.116  0.00  0.00    +0.394 N 
ATOM     23  H   UNL     1      -0.890   1.346   0.717  0.00  0.00    -0.083 HD
ATOM     24  H   UNL     1      -0.484  -0.030  -0.151  0.00  0.00    -0.083 HD
ENDROOT
BRANCH  17  25
ATOM     25  C   UNL     1      -0.914   5.326   1.429  0.00  0.00    +0.111 C 
ATOM     26  C   UNL     1      -2.200   4.790   2.060  0.00  0.00    +0.033 C 
BRANCH  25  27
ATOM     27  C   UNL     1      -1.202   6.632   0.734  0.00  0.00    -0.027 A 
ATOM     28  C   UNL     1      -0.408   7.044  -0.320  0.00  0.00    +0.005 A 
ATOM     29  C   UNL     1      -0.674   8.240  -0.960  0.00  0.00    +0.000 A 
ATOM     30  C   UNL     1      -1.730   9.028  -0.540  0.00  0.00    +0.000 A 
ATOM     31  C   UNL     1      -2.521   8.618   0.517  0.00  0.00    +0.000 A 
ATOM     32  C   UNL     1      -2.257   7.420   1.154  0.00  0.00    +0.005 A 
ENDBRANCH  25  27
ENDBRANCH  17  25
BRANCH  14  33
ATOM     33  C   UNL     1      -2.494   1.741  -1.208  0.00  0.00    -0.006 C 
BRANCH  33  34
ATOM     34  C   UNL     1      -3.144   0.357  -1.169  0.00  0.00    +0.094 C 
BRANCH  34  35
ATOM     35  C   UNL     1      -4.639   0.507  -1.054  0.00  0.00    +0.210 C 
ATOM     36  O   UNL     1      -5.135   1.613  -1.007  0.00  0.00    -0.276 OA
ATOM     37  N   UNL     1      -5.425  -0.587  -1.003  0.00  0.00    -0.329 N 
ATOM     38  H   UNL     1      -5.027  -1.471  -1.040  0.00  0.00    +0.145 HD
ATOM     39  H   UNL     1      -6.387  -0.490  -0.928  0.00  0.00    +0.145 HD
ENDBRANCH  34  35
ENDBRANCH  33  34
ENDBRANCH  14  33
TORSDOF 5
