REMARK  Name = ZINC16043200
REMARK  14 active torsions:
REMARK  status: ('A' for Active; 'I' for Inactive)
REMARK    1  A    between atoms: CD1_1  and  CG1_2
REMARK    2  A    between atoms: CG1_2  and  CB_3
REMARK    3  A    between atoms: CB_3  and  CG2_5
REMARK    4  A    between atoms: CB_3  and  CA_6
REMARK    5  A    between atoms: CA_6  and  C_8
REMARK    6  A    between atoms: CA_6  and  N_10
REMARK    7  A    between atoms: C_11  and  C_13
REMARK    8  A    between atoms: C_13  and  C_15
REMARK    9  A    between atoms: C_13  and  O_16
REMARK   10  A    between atoms: O_16  and  C_17
REMARK   11  A    between atoms: C_21  and  C_36
REMARK   12  A    between atoms: C_22  and  C_29
REMARK   13  A    between atoms: C_27  and  C_28
REMARK   14  A    between atoms: C_29  and  C_30
REMARK                            x       y       z     vdW  Elec       q    Type
REMARK                         _______ _______ _______ _____ _____    ______ ____
ROOT
ATOM      1  C   UNK A   0       1.673   6.110  -2.634  0.00  0.00    +0.128 A 
ATOM      2  C   UNK A   0       0.932   4.945  -2.443  0.00  0.00    +0.047 A 
ATOM      3  C   UNK A   0      -0.339   4.848  -2.931  0.00  0.00    +0.015 A 
ATOM      4  C   UNK A   0      -0.900   5.922  -3.632  0.00  0.00    +0.021 A 
ATOM      5  C   UNK A   0      -2.263   5.847  -4.161  0.00  0.00    -0.030 A 
ATOM      6  C   UNK A   0      -2.752   6.925  -4.828  0.00  0.00    +0.045 A 
ATOM      7  C   UNK A   0      -1.950   8.074  -4.988  0.00  0.00    +0.341 A 
ATOM      8  O   UNK A   0      -2.401   9.033  -5.588  0.00  0.00    -0.245 OA
ATOM      9  O   UNK A   0      -0.704   8.138  -4.495  0.00  0.00    -0.422 OA
ATOM     10  C   UNK A   0      -0.158   7.102  -3.822  0.00  0.00    +0.146 A 
ATOM     11  C   UNK A   0       1.133   7.184  -3.320  0.00  0.00    +0.034 A 
ATOM     12  C   UNK A   0       1.944   8.438  -3.522  0.00  0.00    +0.051 C 
ATOM     13  C   UNK A   0      -3.098   4.607  -3.977  0.00  0.00    +0.045 C 
ENDROOT
BRANCH   1  14
ATOM     14  O   UNK A   0       2.936   6.191  -2.143  0.00  0.00    -0.480 OA
BRANCH  14  15
ATOM     15  C   UNK A   0       3.480   5.009  -1.552  0.00  0.00    +0.255 C 
ATOM     16  C   UNK A   0       3.061   4.934  -0.083  0.00  0.00    +0.062 C 
BRANCH  15  18
ATOM     17  N   ILE A   1       5.711   3.988  -1.240  0.00  0.00    -0.299 N 
ATOM     18  C   UNK A   0       4.984   5.048  -1.644  0.00  0.00    +0.254 C 
ATOM     19  O   UNK A   0       5.540   6.034  -2.081  0.00  0.00    -0.272 OA
ATOM     20  H   ILE A   1       5.267   3.200  -0.890  0.00  0.00    +0.150 HD
BRANCH  17  21
ATOM     21  CA  ILE A   1       7.173   4.026  -1.329  0.00  0.00    +0.189 C 
BRANCH  21  22
ATOM     22  C   ILE A   1       7.734   4.695  -0.101  0.00  0.00    +0.376 C 
ATOM     23  O   ILE A   1       7.089   4.723   0.920  0.00  0.00    -0.244 OA
ATOM     24  OXT ILE A   1       8.951   5.261  -0.141  0.00  0.00    -0.244 OA
ENDBRANCH  21  22
BRANCH  21  25
ATOM     25  CB  ILE A   1       7.715   2.598  -1.424  0.00  0.00    +0.017 C 
ATOM     26  CG2 ILE A   1       7.327   1.820  -0.165  0.00  0.00    +0.010 C 
BRANCH  25  28
ATOM     27  CD1 ILE A   1       7.750   0.522  -2.813  0.00  0.00    +0.004 C 
ATOM     28  CG1 ILE A   1       7.122   1.908  -2.654  0.00  0.00    +0.002 C 
ENDBRANCH  25  28
ENDBRANCH  21  25
ENDBRANCH  17  21
ENDBRANCH  15  18
ENDBRANCH  14  15
ENDBRANCH   1  14
BRANCH   6  29
ATOM     29  C   UNK A   0      -4.147   6.892  -5.397  0.00  0.00    +0.077 C 
BRANCH  29  30
ATOM     30  C   UNK A   0      -4.104   6.357  -6.805  0.00  0.00    -0.043 A 
ATOM     31  C   UNK A   0      -3.945   7.225  -7.869  0.00  0.00    +0.004 A 
ATOM     32  C   UNK A   0      -3.900   6.734  -9.161  0.00  0.00    +0.000 A 
ATOM     33  C   UNK A   0      -4.024   5.376  -9.388  0.00  0.00    +0.000 A 
ATOM     34  C   UNK A   0      -4.188   4.509  -8.325  0.00  0.00    +0.000 A 
ATOM     35  C   UNK A   0      -4.228   5.000  -7.033  0.00  0.00    +0.004 A 
ENDBRANCH  29  30
ENDBRANCH   6  29
TORSDOF 9
