REMARK  Name = ZINC05004410
REMARK  3 active torsions:
REMARK  status: ('A' for Active; 'I' for Inactive)
REMARK    1  A    between atoms: C_7  and  C_12
REMARK    2  A    between atoms: C_12  and  C_13
REMARK    3  A    between atoms: C_16  and  N_19
REMARK                            x       y       z     vdW  Elec       q    Type
REMARK                         _______ _______ _______ _____ _____    ______ ____
ROOT
ATOM      1  C   UNL     1      -9.116   5.517   1.257  0.00  0.00    +0.000 A 
ATOM      2  C   UNL     1      -8.906   6.725   1.897  0.00  0.00    +0.002 A 
ATOM      3  C   UNL     1      -7.650   7.063   2.355  0.00  0.00    +0.023 A 
ATOM      4  C   UNL     1      -6.581   6.187   2.176  0.00  0.00    +0.037 A 
ATOM      5  C   UNL     1      -6.804   4.977   1.532  0.00  0.00    -0.014 A 
ATOM      6  C   UNL     1      -8.059   4.642   1.075  0.00  0.00    +0.006 A 
ATOM      7  C   UNL     1      -5.473   4.263   1.494  0.00  0.00    +0.111 C 
ATOM      8  C   UNL     1      -4.523   5.219   2.184  0.00  0.00    +0.225 C 
ATOM      9  O   UNL     1      -3.338   5.045   2.376  0.00  0.00    -0.275 OA
ATOM     10  N   UNL     1      -5.239   6.298   2.543  0.00  0.00    -0.285 N 
ATOM     11  H   UNL     1      -4.885   7.198   3.066  0.00  0.00    +0.155 HD
ENDROOT
BRANCH   7  12
ATOM     12  C   UNL     1      -5.034   4.022   0.048  0.00  0.00    +0.052 C 
BRANCH  12  13
ATOM     13  C   UNL     1      -3.719   3.286   0.038  0.00  0.00    -0.046 A 
ATOM     14  C   UNL     1      -3.700   1.904   0.030  0.00  0.00    +0.006 A 
ATOM     15  C   UNL     1      -2.494   1.229   0.021  0.00  0.00    +0.033 A 
ATOM     16  C   UNL     1      -1.306   1.936   0.019  0.00  0.00    +0.126 A 
ATOM     17  C   UNL     1      -1.325   3.319   0.032  0.00  0.00    +0.033 A 
ATOM     18  C   UNL     1      -2.531   3.993   0.037  0.00  0.00    +0.006 A 
BRANCH  16  19
ATOM     19  N   UNL     1      -0.014   1.214   0.009  0.00  0.00    +0.056 N 
ATOM     20  O   UNL     1       0.002  -0.004   0.002  0.00  0.00    -0.126 OA
ATOM     21  O   UNL     1       1.032   1.837   0.002  0.00  0.00    -0.126 OA
ENDBRANCH  16  19
ENDBRANCH  12  13
ENDBRANCH   7  12
TORSDOF 3
