REMARK  Name = ZINC15303475
REMARK  5 active torsions:
REMARK  status: ('A' for Active; 'I' for Inactive)
REMARK    1  A    between atoms: C_1  and  O_2
REMARK    2  A    between atoms: O_2  and  C_3
REMARK    3  A    between atoms: C_6  and  C_9
REMARK    4  A    between atoms: C_12  and  C_30
REMARK    5  A    between atoms: C_16  and  C_24
REMARK                            x       y       z     vdW  Elec       q    Type
REMARK                         _______ _______ _______ _____ _____    ______ ____
ROOT
ATOM      1  C   UNL     1       2.968   3.147   2.446  0.00  0.00    +0.053 C 
ATOM      2  C   UNL     1       4.071   3.494   3.445  0.00  0.00    +0.048 C 
ATOM      3  C   UNL     1       3.878   4.893   3.965  0.00  0.00    -0.037 C 
ATOM      4  C   UNL     1       3.386   5.855   3.171  0.00  0.00    +0.032 C 
ATOM      5  C   UNL     1       3.003   5.540   1.781  0.00  0.00    +0.070 C 
ATOM      6  C   UNL     1       2.824   4.247   1.435  0.00  0.00    -0.010 C 
ATOM      7  C   UNL     1       2.451   3.937   0.000  0.00  0.00    +0.156 C 
ATOM      8  N   UNL     1       2.289   5.093  -0.888  0.00  0.00    -0.210 N 
ATOM      9  C   UNL     1       2.487   6.360  -0.376  0.00  0.00    +0.214 C 
ATOM     10  N   UNL     1       2.820   6.541   0.879  0.00  0.00    -0.215 NA
ATOM     11  N   UNL     1       2.272   7.231  -1.388  0.00  0.00    -0.320 N 
ATOM     12  C   UNL     1       1.962   6.590  -2.480  0.00  0.00    +0.176 C 
ATOM     13  N   UNL     1       1.957   5.250  -2.236  0.00  0.00    -0.252 N 
ATOM     14  H   UNL     1       1.756   4.366  -2.859  0.00  0.00    +0.171 HD
ATOM     15  H   UNL     1       2.326   8.330  -1.391  0.00  0.00    +0.169 HD
ENDROOT
BRANCH   1  19
ATOM     16  C   UNL     1      -0.725   2.652   4.538  0.00  0.00    +0.120 A 
ATOM     17  C   UNL     1      -0.190   1.597   3.813  0.00  0.00    +0.046 A 
ATOM     18  C   UNL     1       1.004   1.760   3.137  0.00  0.00    +0.008 A 
ATOM     19  C   UNL     1       1.666   2.973   3.184  0.00  0.00    -0.040 A 
ATOM     20  C   UNL     1       1.138   4.024   3.910  0.00  0.00    +0.008 A 
ATOM     21  C   UNL     1      -0.059   3.868   4.583  0.00  0.00    +0.046 A 
BRANCH  16  23
ATOM     22  C   UNL     1      -2.391   3.624   5.928  0.00  0.00    +0.277 C 
ATOM     23  O   UNL     1      -1.900   2.495   5.203  0.00  0.00    -0.495 OA
ENDBRANCH  16  23
ENDBRANCH   1  19
BRANCH   7  24
ATOM     24  C   UNL     1       1.156   3.165   0.008  0.00  0.00    -0.021 A 
ATOM     25  C   UNL     1       1.175   1.783   0.000  0.00  0.00    +0.006 A 
ATOM     26  C   UNL     1      -0.013   1.076   0.008  0.00  0.00    +0.000 A 
ATOM     27  C   UNL     1      -1.219   1.751   0.017  0.00  0.00    +0.000 A 
ATOM     28  C   UNL     1      -1.238   3.133   0.029  0.00  0.00    +0.000 A 
ATOM     29  C   UNL     1      -0.050   3.840   0.022  0.00  0.00    +0.006 A 
ENDBRANCH   7  24
BRANCH   3  30
ATOM     30  C   UNL     1       4.232   5.209   5.361  0.00  0.00    -0.022 A 
ATOM     31  C   UNL     1       5.562   5.128   5.783  0.00  0.00    +0.008 A 
ATOM     32  C   UNL     1       5.886   5.429   7.089  0.00  0.00    +0.001 A 
ATOM     33  C   UNL     1       4.898   5.801   7.983  0.00  0.00    +0.000 A 
ATOM     34  C   UNL     1       3.578   5.879   7.573  0.00  0.00    +0.001 A 
ATOM     35  C   UNL     1       3.239   5.586   6.269  0.00  0.00    +0.008 A 
ENDBRANCH   3  30
TORSDOF 4
