REMARK  Name = ZINC38576840
REMARK  11 active torsions:
REMARK  status: ('A' for Active; 'I' for Inactive)
REMARK    1  A    between atoms: C_1  and  C_2
REMARK    2  A    between atoms: C_5  and  C_9
REMARK    3  A    between atoms: C_6  and  O_8
REMARK    4  A    between atoms: C_11  and  C_15
REMARK    5  A    between atoms: N_17  and  C_18
REMARK    6  A    between atoms: C_20  and  C_31
REMARK    7  A    between atoms: N_33  and  C_34
REMARK    8  A    between atoms: C_34  and  C_35
REMARK    9  A    between atoms: C_35  and  C_36
REMARK   10  A    between atoms: C_36  and  O_37
REMARK   11  A    between atoms: O_37  and  C_38
REMARK                            x       y       z     vdW  Elec       q    Type
REMARK                         _______ _______ _______ _____ _____    ______ ____
ROOT
ATOM      1  C   UNL     1      -1.480  -6.381   1.902  0.00  0.00    +0.244 C 
ATOM      2  O   UNL     1      -2.513  -6.185   1.299  0.00  0.00    -0.273 OA
ATOM      3  N   UNL     1      -1.381  -7.426   2.748  0.00  0.00    -0.301 N 
ATOM      4  H   UNL     1      -0.534  -7.622   3.179  0.00  0.00    +0.150 HD
ENDROOT
BRANCH   3   5
ATOM      5  C   UNL     1      -2.551  -8.264   3.016  0.00  0.00    +0.143 C 
ATOM      6  C   UNL     1      -2.123  -9.697   3.390  0.00  0.00    +0.109 C 
ATOM      7  C   UNL     1      -2.259 -10.685   2.258  0.00  0.00    +0.016 C 
ATOM      8  C   UNL     1      -1.157 -11.690   2.156  0.00  0.00    +0.005 C 
ATOM      9  C   UNL     1      -0.168 -11.446   1.033  0.00  0.00    +0.000 C 
ATOM     10  C   UNL     1      -0.893 -11.123  -0.271  0.00  0.00    +0.001 C 
ATOM     11  C   UNL     1      -1.736  -9.863  -0.066  0.00  0.00    +0.014 C 
ATOM     12  C   UNL     1      -2.815 -10.140   0.954  0.00  0.00    +0.052 C 
ATOM     13  S   UNL     1      -3.537  -8.517   1.484  0.00  0.00    -0.134 S 
BRANCH   6  14
ATOM     14  C   UNL     1      -0.682  -9.670   3.830  0.00  0.00    +0.219 C 
ATOM     15  O   UNL     1       0.197  -9.481   3.017  0.00  0.00    -0.275 OA
ATOM     16  N   UNL     1      -0.371  -9.856   5.128  0.00  0.00    -0.315 N 
ATOM     17  H   UNL     1      -1.074 -10.007   5.779  0.00  0.00    +0.149 HD
BRANCH  16  18
ATOM     18  C   UNL     1       1.030  -9.829   5.557  0.00  0.00    +0.106 C 
BRANCH  18  19
ATOM     19  C   UNL     1       1.106 -10.065   7.067  0.00  0.00    +0.047 C 
BRANCH  19  20
ATOM     20  C   UNL     1       2.569 -10.037   7.514  0.00  0.00    +0.161 C 
BRANCH  20  21
ATOM     21  O   UNL     1       2.640 -10.257   8.924  0.00  0.00    -0.383 OA
ATOM     22  C   UNL     1       3.970 -10.250   9.447  0.00  0.00    +0.193 C 
ENDBRANCH  20  21
ENDBRANCH  19  20
ENDBRANCH  18  19
ENDBRANCH  16  18
ENDBRANCH   6  14
ENDBRANCH   3   5
BRANCH   1  25
ATOM     23  C   UNL     1      -0.358  -3.262   2.237  0.00  0.00    +0.095 C 
ATOM     24  C   UNL     1      -0.215  -4.456   2.845  0.00  0.00    +0.041 C 
ATOM     25  C   UNL     1      -0.306  -5.457   1.706  0.00  0.00    +0.238 C 
ATOM     26  N   UNL     1      -0.504  -4.602   0.523  0.00  0.00    -0.170 NA
ATOM     27  N   UNL     1      -0.526  -3.428   0.899  0.00  0.00    -0.153 NA
BRANCH  23  32
ATOM     28  C   UNL     1      -0.298   1.831   4.932  0.00  0.00    +0.044 C 
ATOM     29  C   UNL     1      -0.313   0.497   4.230  0.00  0.00    -0.047 A 
ATOM     30  C   UNL     1      -0.490   0.443   2.858  0.00  0.00    +0.004 A 
ATOM     31  C   UNL     1      -0.506  -0.773   2.207  0.00  0.00    +0.014 A 
ATOM     32  C   UNL     1      -0.342  -1.952   2.932  0.00  0.00    +0.043 A 
ATOM     33  C   UNL     1      -0.163  -1.894   4.317  0.00  0.00    +0.126 A 
ATOM     34  C   UNL     1      -0.144  -0.665   4.957  0.00  0.00    +0.049 A 
BRANCH  33  35
ATOM     35  O   UNL     1      -0.002  -3.038   5.032  0.00  0.00    -0.506 OA
ATOM     36  H   UNL     1       0.919  -3.318   5.124  0.00  0.00    +0.292 HD
ENDBRANCH  33  35
ENDBRANCH  23  32
ENDBRANCH   1  25
TORSDOF 9
