REMARK  Name = ZINC39638329
REMARK  9 active torsions:
REMARK  status: ('A' for Active; 'I' for Inactive)
REMARK    1  A    between atoms: C_1  and  O_2
REMARK    2  A    between atoms: O_2  and  C_3
REMARK    3  A    between atoms: C_7  and  C_11
REMARK    4  A    between atoms: C_8  and  O_9
REMARK    5  A    between atoms: O_9  and  C_10
REMARK    6  A    between atoms: C_11  and  N_12
REMARK    7  A    between atoms: C_13  and  C_15
REMARK    8  A    between atoms: C_26  and  C_28
REMARK    9  A    between atoms: C_31  and  C_34
REMARK                            x       y       z     vdW  Elec       q    Type
REMARK                         _______ _______ _______ _____ _____    ______ ____
ROOT
ATOM      1  C   UNL     1      -1.300  -6.517  -2.769  0.00  0.00    +0.100 C 
ATOM      2  C   UNL     1      -2.614  -6.215  -2.013  0.00  0.00    +0.121 C 
ATOM      3  N   UNL     1      -3.437  -7.434  -2.192  0.00  0.00    -0.296 N 
ATOM      4  C   UNL     1      -2.471  -8.552  -2.073  0.00  0.00    +0.115 C 
ATOM      5  C   UNL     1      -1.210  -8.052  -2.805  0.00  0.00    -0.004 C 
ATOM      6  C   UNL     1      -1.206  -8.546  -4.248  0.00  0.00    -0.010 C 
ATOM      7  C   UNL     1      -1.059 -10.070  -4.260  0.00  0.00    -0.082 C 
ATOM      8  N   UNL     1       0.191 -10.448  -3.589  0.00  0.00    +0.379 N 
ATOM      9  C   UNL     1       0.141 -10.050  -2.177  0.00  0.00    -0.082 C 
ATOM     10  C   UNL     1       0.044  -8.525  -2.078  0.00  0.00    -0.010 C 
ATOM     11  C   UNL     1      -4.765  -7.509  -2.412  0.00  0.00    +0.247 C 
ATOM     12  O   UNL     1      -5.406  -6.496  -2.613  0.00  0.00    -0.270 OA
ATOM     13  H   UNL     1       0.316 -11.447  -3.651  0.00  0.00    -0.086 HD
ATOM     14  H   UNL     1       0.966  -9.986  -4.040  0.00  0.00    -0.086 HD
ENDROOT
BRANCH  11  15
ATOM     15  C   UNL     1      -5.441  -8.823  -2.409  0.00  0.00    +0.037 A 
ATOM     16  C   UNL     1      -4.848  -9.916  -1.774  0.00  0.00    +0.013 A 
ATOM     17  C   UNL     1      -5.484 -11.139  -1.775  0.00  0.00    +0.013 A 
ATOM     18  C   UNL     1      -6.709 -11.286  -2.403  0.00  0.00    +0.055 A 
ATOM     19  C   UNL     1      -7.303 -10.207  -3.034  0.00  0.00    +0.013 A 
ATOM     20  C   UNL     1      -6.679  -8.976  -3.035  0.00  0.00    +0.013 A 
BRANCH  18  21
ATOM     21  C   UNL     1      -7.398 -12.626  -2.400  0.00  0.00    +0.417 C 
ATOM     22  F   UNL     1      -8.226 -12.722  -1.276  0.00  0.00    -0.166 F 
ATOM     23  F   UNL     1      -8.170 -12.755  -3.559  0.00  0.00    -0.166 F 
ATOM     24  F   UNL     1      -6.439 -13.643  -2.361  0.00  0.00    -0.166 F 
ENDBRANCH  18  21
ENDBRANCH  11  15
BRANCH   1  26
ATOM     25  N   UNL     1       0.970  -5.537  -2.704  0.00  0.00    -0.311 N 
ATOM     26  C   UNL     1      -0.123  -5.939  -2.026  0.00  0.00    +0.218 C 
ATOM     27  O   UNL     1      -0.159  -5.837  -0.818  0.00  0.00    -0.275 OA
ATOM     28  H   UNL     1       0.999  -5.619  -3.670  0.00  0.00    +0.149 HD
BRANCH  25  29
ATOM     29  C   UNL     1       2.115  -4.976  -1.981  0.00  0.00    +0.143 C 
BRANCH  29  34
ATOM     30  C   UNL     1       4.112  -3.088  -4.584  0.00  0.00    +0.162 A 
ATOM     31  C   UNL     1       5.190  -3.939  -4.768  0.00  0.00    +0.049 A 
ATOM     32  C   UNL     1       5.270  -5.118  -4.052  0.00  0.00    +0.004 A 
ATOM     33  C   UNL     1       4.276  -5.452  -3.151  0.00  0.00    +0.009 A 
ATOM     34  C   UNL     1       3.197  -4.608  -2.963  0.00  0.00    +0.015 A 
ATOM     35  C   UNL     1       3.114  -3.421  -3.673  0.00  0.00    +0.166 A 
BRANCH  30  37
ATOM     36  C   UNL     1       5.093  -1.649  -6.204  0.00  0.00    +0.277 C 
ATOM     37  O   UNL     1       4.032  -1.927  -5.287  0.00  0.00    -0.491 OA
ENDBRANCH  30  37
BRANCH  35  38
ATOM     38  O   UNL     1       2.057  -2.587  -3.485  0.00  0.00    -0.491 OA
ATOM     39  C   UNL     1       0.913  -2.791  -4.317  0.00  0.00    +0.277 C 
ENDBRANCH  35  38
ENDBRANCH  29  34
ENDBRANCH  25  29
ENDBRANCH   1  26
TORSDOF 7
