REMARK  Name = ZINC10827582
REMARK  7 active torsions:
REMARK  status: ('A' for Active; 'I' for Inactive)
REMARK    1  A    between atoms: C_1  and  C_2
REMARK    2  A    between atoms: C_8  and  N_10
REMARK    3  A    between atoms: C_14  and  C_16
REMARK    4  A    between atoms: C_16  and  N_17
REMARK    5  A    between atoms: N_17  and  C_18
REMARK    6  A    between atoms: C_21  and  C_24
REMARK    7  A    between atoms: C_24  and  C_26
REMARK                            x       y       z     vdW  Elec       q    Type
REMARK                         _______ _______ _______ _____ _____    ______ ____
ROOT
ATOM      1  N   UNL     1       2.323   0.999  -0.006  0.00  0.00    -0.296 N 
ATOM      2  C   UNL     1       1.147   1.657   0.002  0.00  0.00    +0.306 C 
ATOM      3  O   UNL     1       1.130   2.872  -0.002  0.00  0.00    -0.252 OA
ATOM      4  N   UNL     1      -0.011   0.967   0.013  0.00  0.00    -0.239 N 
ATOM      5  C   UNL     1      -1.188   1.625   0.015  0.00  0.00    +0.237 C 
ATOM      6  O   UNL     1      -1.204   2.837   0.011  0.00  0.00    -0.274 OA
ATOM      7  H   UNL     1       2.336   0.029  -0.003  0.00  0.00    +0.151 HD
ATOM      8  H   UNL     1       0.002  -0.003   0.015  0.00  0.00    +0.159 HD
ENDROOT
BRANCH   1  15
ATOM      9  C   UNL     1       4.299   0.512  -2.067  0.00  0.00    +0.009 C 
ATOM     10  C   UNL     1       4.684   0.885  -0.634  0.00  0.00    +0.006 C 
ATOM     11  C   UNL     1       4.857  -0.389   0.196  0.00  0.00    +0.005 C 
ATOM     12  C   UNL     1       5.242  -0.016   1.629  0.00  0.00    +0.000 C 
ATOM     13  C   UNL     1       4.140   0.848   2.245  0.00  0.00    +0.002 C 
ATOM     14  C   UNL     1       3.967   2.122   1.415  0.00  0.00    +0.022 C 
ATOM     15  C   UNL     1       3.581   1.749  -0.018  0.00  0.00    +0.077 C 
ENDBRANCH   1  15
BRANCH   5  16
ATOM     16  C   UNL     1      -2.482   0.853   0.021  0.00  0.00    +0.198 C 
BRANCH  16  17
ATOM     17  N   UNL     1      -3.609   1.790   0.022  0.00  0.00    -0.335 N 
ATOM     18  H   UNL     1      -3.445   2.746   0.018  0.00  0.00    +0.147 HD
BRANCH  17  19
ATOM     19  C   UNL     1      -4.912   1.309   0.027  0.00  0.00    +0.028 A 
ATOM     20  C   UNL     1      -5.145  -0.064   0.026  0.00  0.00    +0.023 A 
ATOM     21  C   UNL     1      -6.425  -0.541   0.036  0.00  0.00    +0.013 A 
ATOM     22  C   UNL     1      -7.503   0.353   0.037  0.00  0.00    +0.017 A 
ATOM     23  C   UNL     1      -7.264   1.733   0.033  0.00  0.00    +0.013 A 
ATOM     24  C   UNL     1      -5.981   2.202   0.028  0.00  0.00    +0.023 A 
BRANCH  22  25
ATOM     25  C   UNL     1      -8.880  -0.155   0.042  0.00  0.00    +0.160 C 
ATOM     26  O   UNL     1      -9.811   0.616   0.145  0.00  0.00    -0.292 OA
ATOM     27  C   UNL     1      -9.137  -1.635  -0.079  0.00  0.00    +0.091 C 
ENDBRANCH  22  25
ENDBRANCH  17  19
ENDBRANCH  16  17
ENDBRANCH   5  16
TORSDOF 5
