REMARK  Name = ZINC40476145
REMARK  8 active torsions:
REMARK  status: ('A' for Active; 'I' for Inactive)
REMARK    1  A    between atoms: C_1  and  C_2
REMARK    2  A    between atoms: C_2  and  C_3
REMARK    3  A    between atoms: C_2  and  C_4
REMARK    4  A    between atoms: C_7  and  C_10
REMARK    5  A    between atoms: C_10  and  C_11
REMARK    6  A    between atoms: N_17  and  N_18
REMARK    7  A    between atoms: C_19  and  C_20
REMARK    8  A    between atoms: C_29  and  C_30
REMARK                            x       y       z     vdW  Elec       q    Type
REMARK                         _______ _______ _______ _____ _____    ______ ____
ROOT
ATOM      1  C   UNL     1       3.766  -0.847  -5.171  0.00  0.00    +0.144 C 
ATOM      2  C   UNL     1       4.523  -1.313  -6.404  0.00  0.00    +0.232 C 
ATOM      3  O   UNL     1       5.191  -2.325  -6.406  0.00  0.00    -0.274 OA
ATOM      4  N   UNL     1       4.408  -0.545  -7.474  0.00  0.00    -0.263 N 
ATOM      5  C   UNL     1       3.651   0.608  -7.480  0.00  0.00    +0.183 C 
ATOM      6  N   UNL     1       3.459   1.450  -8.473  0.00  0.00    -0.127 NA
ATOM      7  S   UNL     1       2.991   0.691  -5.820  0.00  0.00    -0.075 S 
ATOM      8  H   UNL     1       4.874  -0.802  -8.286  0.00  0.00    +0.157 HD
ENDROOT
BRANCH   6   9
ATOM      9  N   UNL     1       4.065   1.217  -9.715  0.00  0.00    -0.155 NA
ATOM     10  C   UNL     1       3.874   2.054 -10.702  0.00  0.00    +0.145 C 
BRANCH  10  11
ATOM     11  C   UNL     1       4.508   1.811 -12.000  0.00  0.00    +0.028 A 
ATOM     12  C   UNL     1       5.378   0.678 -12.360  0.00  0.00    +0.009 A 
ATOM     13  C   UNL     1       5.847  -0.434 -11.661  0.00  0.00    +0.010 A 
ATOM     14  C   UNL     1       6.669  -1.340 -12.293  0.00  0.00    +0.001 A 
ATOM     15  C   UNL     1       7.032  -1.150 -13.620  0.00  0.00    +0.002 A 
ATOM     16  C   UNL     1       6.577  -0.056 -14.322  0.00  0.00    +0.026 A 
ATOM     17  C   UNL     1       5.744   0.872 -13.702  0.00  0.00    +0.048 A 
ATOM     18  N   UNL     1       5.148   2.035 -14.143  0.00  0.00    -0.354 N 
ATOM     19  H   UNL     1       5.238   2.400 -15.037  0.00  0.00    +0.166 HD
ATOM     20  C   UNL     1       4.404   2.599 -13.136  0.00  0.00    +0.056 A 
BRANCH  20  21
ATOM     21  C   UNL     1       3.622   3.845 -13.245  0.00  0.00    -0.001 A 
ATOM     22  C   UNL     1       2.326   3.908 -12.726  0.00  0.00    +0.010 A 
ATOM     23  C   UNL     1       1.601   5.077 -12.830  0.00  0.00    +0.001 A 
ATOM     24  C   UNL     1       2.155   6.185 -13.448  0.00  0.00    +0.000 A 
ATOM     25  C   UNL     1       3.437   6.130 -13.965  0.00  0.00    +0.001 A 
ATOM     26  C   UNL     1       4.176   4.970 -13.862  0.00  0.00    +0.010 A 
ENDBRANCH  20  21
ENDBRANCH  10  11
ENDBRANCH   6   9
BRANCH   1  27
ATOM     27  C   UNL     1       2.707  -1.868  -4.752  0.00  0.00    +0.059 C 
BRANCH  27  31
ATOM     28  C   UNL     1       0.707  -0.490  -1.238  0.00  0.00    -0.045 A 
ATOM     29  C   UNL     1       0.222  -0.151  -2.487  0.00  0.00    +0.004 A 
ATOM     30  C   UNL     1       0.869  -0.597  -3.624  0.00  0.00    +0.004 A 
ATOM     31  C   UNL     1       2.002  -1.381  -3.513  0.00  0.00    -0.046 A 
ATOM     32  C   UNL     1       2.488  -1.720  -2.263  0.00  0.00    +0.004 A 
ATOM     33  C   UNL     1       1.843  -1.270  -1.126  0.00  0.00    +0.004 A 
BRANCH  28  35
ATOM     34  C   UNL     1      -0.019   1.526   0.010  0.00  0.00    +0.012 C 
ATOM     35  C   UNL     1       0.002  -0.004   0.002  0.00  0.00    +0.013 C 
ATOM     36  C   UNL     1      -1.433  -0.534   0.013  0.00  0.00    +0.012 C 
ENDBRANCH  28  35
ENDBRANCH  27  31
ENDBRANCH   1  27
TORSDOF 6
