REMARK  Name = ZINC35671924
REMARK  11 active torsions:
REMARK  status: ('A' for Active; 'I' for Inactive)
REMARK    1  A    between atoms: C_1  and  C_2
REMARK    2  A    between atoms: C_2  and  N_3
REMARK    3  A    between atoms: N_3  and  C_4
REMARK    4  A    between atoms: C_4  and  C_5
REMARK    5  A    between atoms: C_8  and  C_33
REMARK    6  A    between atoms: C_10  and  S_12
REMARK    7  A    between atoms: S_12  and  C_13
REMARK    8  A    between atoms: C_13  and  C_14
REMARK    9  A    between atoms: C_17  and  C_20
REMARK   10  A    between atoms: N_22  and  C_23
REMARK   11  A    between atoms: C_23  and  C_24
REMARK                            x       y       z     vdW  Elec       q    Type
REMARK                         _______ _______ _______ _____ _____    ______ ____
ROOT
ATOM      1  C   UNL     1       7.382  -2.850   4.147  0.00  0.00    -0.037 A 
ATOM      2  C   UNL     1       7.934  -2.031   5.117  0.00  0.00    +0.005 A 
ATOM      3  C   UNL     1       8.678  -2.575   6.143  0.00  0.00    +0.013 A 
ATOM      4  C   UNL     1       8.873  -3.956   6.202  0.00  0.00    +0.037 A 
ATOM      5  C   UNL     1       8.314  -4.777   5.222  0.00  0.00    +0.013 A 
ATOM      6  C   UNL     1       7.567  -4.220   4.204  0.00  0.00    +0.005 A 
ENDROOT
BRANCH   4   7
ATOM      7  C   UNL     1       9.669  -4.547   7.299  0.00  0.00    +0.244 C 
ATOM      8  O   UNL     1      10.156  -3.830   8.151  0.00  0.00    -0.270 OA
ATOM      9  N   UNL     1       9.856  -5.880   7.354  0.00  0.00    -0.307 N 
ATOM     10  H   UNL     1       9.468  -6.453   6.673  0.00  0.00    +0.149 HD
BRANCH   9  11
ATOM     11  C   UNL     1      10.645  -6.466   8.440  0.00  0.00    +0.140 C 
BRANCH  11  12
ATOM     12  C   UNL     1      10.701  -7.962   8.271  0.00  0.00    -0.027 A 
ATOM     13  C   UNL     1       9.730  -8.759   8.850  0.00  0.00    +0.009 A 
ATOM     14  C   UNL     1       9.777 -10.132   8.697  0.00  0.00    +0.050 A 
ATOM     15  C   UNL     1      10.798 -10.713   7.963  0.00  0.00    +0.166 A 
ATOM     16  C   UNL     1      11.776  -9.911   7.380  0.00  0.00    +0.167 A 
ATOM     17  C   UNL     1      11.720  -8.535   7.533  0.00  0.00    +0.054 A 
ATOM     18  O   UNL     1      12.661 -10.713   6.718  0.00  0.00    -0.453 OA
ATOM     19  C   UNL     1      12.446 -12.037   7.242  0.00  0.00    +0.466 C 
ATOM     20  O   UNL     1      11.070 -12.018   7.666  0.00  0.00    -0.453 OA
ENDBRANCH  11  12
ENDBRANCH   9  11
ENDBRANCH   4   7
BRANCH   1  21
ATOM     21  C   UNL     1       6.571  -2.248   3.029  0.00  0.00    +0.112 C 
BRANCH  21  22
ATOM     22  S   UNL     1       4.829  -2.158   3.527  0.00  0.00    -0.081 S 
BRANCH  22  28
ATOM     23  N   UNL     1       0.711  -0.489   1.189  0.00  0.00    -0.316 N 
ATOM     24  C   UNL     1       2.079  -0.702   1.140  0.00  0.00    +0.126 A 
ATOM     25  C   UNL     1       2.810  -0.353   0.002  0.00  0.00    +0.076 A 
ATOM     26  C   UNL     1       4.172  -0.582  -0.002  0.00  0.00    +0.150 A 
ATOM     27  N   UNL     1       4.742  -1.121   1.066  0.00  0.00    -0.218 NA
ATOM     28  C   UNL     1       4.024  -1.443   2.132  0.00  0.00    +0.191 A 
ATOM     29  N   UNL     1       2.716  -1.234   2.178  0.00  0.00    -0.207 NA
BRANCH  26  30
ATOM     30  C   UNL     1       5.001  -0.222  -1.208  0.00  0.00    +0.434 C 
ATOM     31  F   UNL     1       5.462   1.093  -1.082  0.00  0.00    -0.164 F 
ATOM     32  F   UNL     1       6.093  -1.092  -1.299  0.00  0.00    -0.164 F 
ATOM     33  F   UNL     1       4.218  -0.334  -2.362  0.00  0.00    -0.164 F 
ENDBRANCH  26  30
BRANCH  23  35
ATOM     34  C   UNL     1      -0.019   1.526   0.010  0.00  0.00    +0.024 C 
ATOM     35  C   UNL     1       0.002  -0.004   0.002  0.00  0.00    +0.103 C 
ENDBRANCH  23  35
BRANCH  23  36
ATOM     36  C   UNL     1      -0.028  -0.750   2.427  0.00  0.00    +0.103 C 
ATOM     37  C   UNL     1      -0.511  -2.202   2.437  0.00  0.00    +0.024 C 
ENDBRANCH  23  36
ENDBRANCH  22  28
ENDBRANCH  21  22
ENDBRANCH   1  21
TORSDOF 9
