REMARK  Name = ZINC22519507
REMARK  9 active torsions:
REMARK  status: ('A' for Active; 'I' for Inactive)
REMARK    1  A    between atoms: C_1  and  C_2
REMARK    2  A    between atoms: C_2  and  C_4
REMARK    3  A    between atoms: C_2  and  N_12
REMARK    4  A    between atoms: C_13  and  C_15
REMARK    5  A    between atoms: C_15  and  C_17
REMARK    6  A    between atoms: C_15  and  S_18
REMARK    7  A    between atoms: S_18  and  C_19
REMARK    8  A    between atoms: N_23  and  C_24
REMARK    9  A    between atoms: C_27  and  O_30
REMARK                            x       y       z     vdW  Elec       q    Type
REMARK                         _______ _______ _______ _____ _____    ______ ____
ROOT
ATOM      1  C   UNL     1      -2.863  -2.015   2.079  0.00  0.00    +0.137 C 
ATOM      2  C   UNL     1      -3.356  -2.741   0.827  0.00  0.00    +0.029 C 
ENDROOT
BRANCH   1   4
ATOM      3  N   UNL     1      -4.297  -2.864   3.908  0.00  0.00    -0.308 N 
ATOM      4  C   UNL     1      -4.002  -1.863   3.054  0.00  0.00    +0.227 C 
ATOM      5  O   UNL     1      -4.655  -0.841   3.070  0.00  0.00    -0.275 OA
ATOM      6  H   UNL     1      -3.705  -3.791   3.893  0.00  0.00    +0.149 HD
BRANCH   3   8
ATOM      7  C   UNL     1      -4.911  -1.990   6.108  0.00  0.00    +0.033 C 
ATOM      8  C   UNL     1      -5.404  -2.717   4.855  0.00  0.00    +0.102 C 
BRANCH   8   9
ATOM      9  C   UNL     1      -5.924  -4.080   5.236  0.00  0.00    -0.009 A 
ATOM     10  C   UNL     1      -5.098  -5.184   5.144  0.00  0.00    +0.008 A 
ATOM     11  C   UNL     1      -5.572  -6.433   5.498  0.00  0.00    +0.020 A 
ATOM     12  C   UNL     1      -6.876  -6.580   5.936  0.00  0.00    +0.042 A 
ATOM     13  C   UNL     1      -7.705  -5.476   6.023  0.00  0.00    +0.040 A 
ATOM     14  C   UNL     1      -7.228  -4.225   5.673  0.00  0.00    +0.047 A 
ATOM     15 CL   UNL     1      -8.267  -2.838   5.782  0.00  0.00    -0.083 Cl
ATOM     16 CL   UNL     1      -7.473  -8.150   6.375  0.00  0.00    -0.083 Cl
ENDBRANCH   8   9
ENDBRANCH   3   8
ENDBRANCH   1   4
BRANCH   1  17
ATOM     17  S   UNL     1      -2.239  -0.378   1.622  0.00  0.00    -0.072 S 
BRANCH  17  18
ATOM     18  C   UNL     1      -0.860  -0.843   0.628  0.00  0.00    +0.215 A 
ATOM     19  N   UNL     1      -0.474  -2.070   0.351  0.00  0.00    -0.101 NA
ATOM     20  N   UNL     1       0.571  -2.055  -0.395  0.00  0.00    -0.022 NA
ATOM     21  N   UNL     1       0.922  -0.842  -0.651  0.00  0.00    -0.038 NA
ATOM     22  N   UNL     1       0.002  -0.004   0.002  0.00  0.00    -0.187 N 
BRANCH  22  23
ATOM     23  C   UNL     1      -0.017   1.399   0.010  0.00  0.00    +0.070 A 
ATOM     24  C   UNL     1      -1.228   2.077   0.019  0.00  0.00    +0.031 A 
ATOM     25  C   UNL     1      -1.247   3.458   0.033  0.00  0.00    +0.047 A 
ATOM     26  C   UNL     1      -0.054   4.167   0.025  0.00  0.00    +0.117 A 
ATOM     27  C   UNL     1       1.156   3.490   0.010  0.00  0.00    +0.047 A 
ATOM     28  C   UNL     1       1.176   2.110   0.002  0.00  0.00    +0.031 A 
BRANCH  26  29
ATOM     29  O   UNL     1      -0.073   5.527   0.032  0.00  0.00    -0.507 OA
ATOM     30  H   UNL     1       0.872   6.090   0.026  0.00  0.00    +0.292 HD
ENDBRANCH  26  29
ENDBRANCH  22  23
ENDBRANCH  17  18
ENDBRANCH   1  17
TORSDOF 7
