REMARK  Name = ZINC39639320
REMARK  7 active torsions:
REMARK  status: ('A' for Active; 'I' for Inactive)
REMARK    1  A    between atoms: C_1  and  C_2
REMARK    2  A    between atoms: C_5  and  C_8
REMARK    3  A    between atoms: C_8  and  C_10
REMARK    4  A    between atoms: C_8  and  N_11
REMARK    5  A    between atoms: C_12  and  C_14
REMARK    6  A    between atoms: C_25  and  C_27
REMARK    7  A    between atoms: C_31  and  C_33
REMARK                            x       y       z     vdW  Elec       q    Type
REMARK                         _______ _______ _______ _____ _____    ______ ____
ROOT
ATOM      1  C   UNL     1       2.831  -6.451   2.584  0.00  0.00    +0.100 C 
ATOM      2  C   UNL     1       1.805  -6.476   3.739  0.00  0.00    +0.121 C 
ATOM      3  N   UNL     1       1.314  -7.873   3.774  0.00  0.00    -0.296 N 
ATOM      4  C   UNL     1       2.521  -8.694   3.515  0.00  0.00    +0.115 C 
ATOM      5  C   UNL     1       3.302  -7.909   2.442  0.00  0.00    -0.004 C 
ATOM      6  C   UNL     1       4.802  -8.007   2.702  0.00  0.00    -0.010 C 
ATOM      7  C   UNL     1       5.256  -9.455   2.499  0.00  0.00    -0.082 C 
ATOM      8  N   UNL     1       4.948  -9.879   1.127  0.00  0.00    +0.379 N 
ATOM      9  C   UNL     1       3.496  -9.870   0.915  0.00  0.00    -0.082 C 
ATOM     10  C   UNL     1       2.967  -8.439   1.052  0.00  0.00    -0.010 C 
ATOM     11  C   UNL     1       0.055  -8.302   3.992  0.00  0.00    +0.247 C 
ATOM     12  O   UNL     1      -0.855  -7.500   4.065  0.00  0.00    -0.270 OA
ATOM     13  H   UNL     1       5.386  -9.245   0.475  0.00  0.00    -0.086 HD
ATOM     14  H   UNL     1       5.303 -10.811   0.977  0.00  0.00    -0.086 HD
ENDROOT
BRANCH  11  15
ATOM     15  C   UNL     1      -0.218  -9.746   4.143  0.00  0.00    +0.037 A 
ATOM     16  C   UNL     1       0.811 -10.622   4.494  0.00  0.00    +0.014 A 
ATOM     17  C   UNL     1       0.550 -11.968   4.634  0.00  0.00    +0.016 A 
ATOM     18  C   UNL     1      -0.731 -12.453   4.426  0.00  0.00    +0.021 A 
ATOM     19  C   UNL     1      -1.756 -11.590   4.078  0.00  0.00    -0.036 A 
ATOM     20  C   UNL     1      -1.508 -10.240   3.941  0.00  0.00    +0.017 A 
ATOM     21  C   UNL     1      -3.146 -12.126   3.853  0.00  0.00    +0.045 C 
ATOM     22 BR   UNL     1      -1.080 -14.302   4.618  0.00  0.00    -0.050 Br
ENDBRANCH  11  15
BRANCH   1  24
ATOM     23  N   UNL     1       2.922  -5.439   0.329  0.00  0.00    -0.308 N 
ATOM     24  C   UNL     1       2.176  -5.985   1.309  0.00  0.00    +0.219 C 
ATOM     25  O   UNL     1       0.977  -6.103   1.166  0.00  0.00    -0.275 OA
ATOM     26  H   UNL     1       3.880  -5.345   0.443  0.00  0.00    +0.149 HD
BRANCH  23  27
ATOM     27  C   UNL     1       2.284  -4.986  -0.910  0.00  0.00    +0.100 C 
ATOM     28  C   UNL     1       1.754  -3.563  -0.721  0.00  0.00    +0.033 C 
BRANCH  27  33
ATOM     29  C   UNL     1       6.155  -5.041  -5.201  0.00  0.00    +0.044 C 
ATOM     30  C   UNL     1       5.146  -5.027  -4.082  0.00  0.00    -0.050 A 
ATOM     31  C   UNL     1       3.848  -5.443  -4.316  0.00  0.00    +0.004 A 
ATOM     32  C   UNL     1       2.923  -5.430  -3.290  0.00  0.00    +0.006 A 
ATOM     33  C   UNL     1       3.294  -5.001  -2.029  0.00  0.00    -0.027 A 
ATOM     34  C   UNL     1       4.591  -4.585  -1.795  0.00  0.00    +0.006 A 
ATOM     35  C   UNL     1       5.518  -4.603  -2.820  0.00  0.00    +0.004 A 
ENDBRANCH  27  33
ENDBRANCH  23  27
ENDBRANCH   1  24
TORSDOF 4
