REMARK  Name = ZINC14754044
REMARK  9 active torsions:
REMARK  status: ('A' for Active; 'I' for Inactive)
REMARK    1  A    between atoms: C_1  and  N_2
REMARK    2  A    between atoms: C_5  and  C_7
REMARK    3  A    between atoms: N_9  and  C_10
REMARK    4  A    between atoms: N_9  and  C_11
REMARK    5  A    between atoms: C_11  and  C_12
REMARK    6  A    between atoms: C_19  and  N_63
REMARK    7  A    between atoms: C_23  and  C_24
REMARK    8  A    between atoms: C_23  and  N_63
REMARK    9  A    between atoms: C_24  and  O_30
REMARK                            x       y       z     vdW  Elec       q    Type
REMARK                         _______ _______ _______ _____ _____    ______ ____
ROOT
ATOM      1  C   UNL     1      -0.410  -5.268   0.099  0.00  0.00    +0.172 C 
ATOM      2  N   UNL     1       0.515  -4.144   0.265  0.00  0.00    -0.270 N 
ATOM      3  C   UNL     1       0.259  -2.876  -0.098  0.00  0.00    +0.043 A 
ATOM      4  C   UNL     1       1.354  -2.140   0.215  0.00  0.00    +0.004 A 
ATOM      5  C   UNL     1       2.272  -3.038   0.786  0.00  0.00    +0.151 A 
ATOM      6  N   UNL     1       1.693  -4.226   0.781  0.00  0.00    -0.166 NA
ATOM      7  C   UNL     1       1.489  -0.662  -0.029  0.00  0.00    +0.023 C 
ATOM      8  C   UNL     1       0.401  -0.238  -1.026  0.00  0.00    -0.067 C 
ATOM      9  C   UNL     1      -0.954  -0.781  -0.565  0.00  0.00    -0.009 C 
ATOM     10  C   UNL     1      -0.983  -2.306  -0.733  0.00  0.00    +0.054 C 
ENDROOT
BRANCH   5  11
ATOM     11  C   UNL     1       3.622  -2.716   1.292  0.00  0.00    +0.267 C 
ATOM     12  O   UNL     1       4.072  -1.595   1.153  0.00  0.00    -0.268 OA
ATOM     13  N   UNL     1       4.354  -3.665   1.908  0.00  0.00    -0.295 N 
ATOM     14  C   UNL     1       3.837  -5.031   2.021  0.00  0.00    +0.132 C 
BRANCH  13  15
ATOM     15  C   UNL     1       5.667  -3.330   2.466  0.00  0.00    +0.142 C 
BRANCH  15  16
ATOM     16  C   UNL     1       5.507  -2.882   3.896  0.00  0.00    -0.030 A 
ATOM     17  C   UNL     1       5.307  -1.545   4.183  0.00  0.00    +0.005 A 
ATOM     18  C   UNL     1       5.154  -1.135   5.494  0.00  0.00    +0.000 A 
ATOM     19  C   UNL     1       5.213  -2.060   6.519  0.00  0.00    +0.000 A 
ATOM     20  C   UNL     1       5.418  -3.397   6.232  0.00  0.00    +0.000 A 
ATOM     21  C   UNL     1       5.565  -3.808   4.920  0.00  0.00    +0.005 A 
ENDBRANCH  15  16
ENDBRANCH  13  15
ENDBRANCH   5  11
BRANCH   8  22
ATOM     22  N   UNL     1       0.347   1.235  -1.085  0.00  0.00    +0.383 N 
ATOM     23  H   UNL     1       1.295   1.613  -0.973  0.00  0.00    -0.085 HD
ATOM     24  H   UNL     1      -0.252   1.582  -0.327  0.00  0.00    -0.085 HD
BRANCH  22  25
ATOM     25  C   UNL     1      -0.203   1.675  -2.381  0.00  0.00    -0.047 C 
BRANCH  25  26
ATOM     26  C   UNL     1      -0.247   3.204  -2.413  0.00  0.00    +0.051 C 
ATOM     27  C   UNL     1      -1.034   3.717  -1.205  0.00  0.00    +0.033 C 
ATOM     28  C   UNL     1      -1.078   5.247  -1.237  0.00  0.00    +0.003 C 
ATOM     29  C   UNL     1      -1.761   5.710  -2.525  0.00  0.00    +0.000 C 
ATOM     30  C   UNL     1      -0.974   5.197  -3.733  0.00  0.00    +0.003 C 
ATOM     31  C   UNL     1      -0.930   3.668  -3.701  0.00  0.00    +0.033 C 
BRANCH  26  32
ATOM     32  O   UNL     1       1.085   3.720  -2.368  0.00  0.00    -0.390 OA
ATOM     33  H   UNL     1       1.579   3.466  -1.576  0.00  0.00    +0.210 HD
ENDBRANCH  26  32
ENDBRANCH  25  26
ENDBRANCH  22  25
ENDBRANCH   8  22
TORSDOF 7
