REMARK  Name = ZINC20323523
REMARK  6 active torsions:
REMARK  status: ('A' for Active; 'I' for Inactive)
REMARK    1  A    between atoms: C_1  and  C_2
REMARK    2  A    between atoms: C_5  and  N_8
REMARK    3  A    between atoms: C_9  and  C_11
REMARK    4  A    between atoms: N_21  and  N_22
REMARK    5  A    between atoms: N_22  and  S_23
REMARK    6  A    between atoms: S_23  and  C_26
REMARK                            x       y       z     vdW  Elec       q    Type
REMARK                         _______ _______ _______ _____ _____    ______ ____
ROOT
ATOM      1  C   UNL     1       1.728   3.165   0.225  0.00  0.00    +0.099 A 
ATOM      2  C   UNL     1       2.927   2.732  -0.290  0.00  0.00    +0.030 A 
ATOM      3  C   UNL     1       3.915   3.753  -0.660  0.00  0.00    +0.018 A 
ATOM      4  C   UNL     1       5.031   3.420  -1.434  0.00  0.00    +0.011 A 
ATOM      5  C   UNL     1       5.944   4.396  -1.769  0.00  0.00    +0.001 A 
ATOM      6  C   UNL     1       5.762   5.702  -1.343  0.00  0.00    +0.004 A 
ATOM      7  C   UNL     1       4.665   6.045  -0.575  0.00  0.00    +0.047 A 
ATOM      8  C   UNL     1       3.736   5.078  -0.226  0.00  0.00    +0.137 A 
ATOM      9  O   UNL     1       2.656   5.399   0.531  0.00  0.00    -0.437 OA
ATOM     10  C   UNL     1       1.542   4.627   0.374  0.00  0.00    +0.225 A 
ATOM     11  N   UNL     1       0.353   5.158   0.355  0.00  0.00    -0.260 N 
ATOM     12  H   UNL     1      -0.538   4.513   0.373  0.00  0.00    +0.189 HD
ENDROOT
BRANCH   1  14
ATOM     13  N   UNL     1      -0.367   2.632   1.364  0.00  0.00    -0.281 N 
ATOM     14  C   UNL     1       0.675   2.214   0.619  0.00  0.00    +0.253 C 
ATOM     15  O   UNL     1       0.743   1.051   0.267  0.00  0.00    -0.270 OA
ATOM     16  H   UNL     1      -0.477   3.700   1.605  0.00  0.00    +0.155 HD
BRANCH  13  21
ATOM     17  C   UNL     1      -4.186  -1.110   3.258  0.00  0.00    +0.044 C 
ATOM     18  C   UNL     1      -3.171  -0.116   2.754  0.00  0.00    -0.050 A 
ATOM     19  C   UNL     1      -3.578   1.146   2.360  0.00  0.00    +0.005 A 
ATOM     20  C   UNL     1      -2.651   2.059   1.899  0.00  0.00    +0.023 A 
ATOM     21  C   UNL     1      -1.308   1.710   1.830  0.00  0.00    +0.034 A 
ATOM     22  C   UNL     1      -0.904   0.440   2.221  0.00  0.00    +0.023 A 
ATOM     23  C   UNL     1      -1.835  -0.467   2.687  0.00  0.00    +0.005 A 
ENDBRANCH  13  21
ENDBRANCH   1  14
BRANCH  11  24
ATOM     24  N   UNL     1       0.208   6.551   0.312  0.00  0.00    -0.157 N 
ATOM     25  H   UNL     1       0.990   7.122   0.375  0.00  0.00    +0.194 HD
BRANCH  24  26
ATOM     26  S   UNL     1      -1.297   7.223   0.153  0.00  0.00    +0.085 S 
ATOM     27  O   UNL     1      -1.115   8.632   0.153  0.00  0.00    -0.149 OA
ATOM     28  O   UNL     1      -1.937   6.538  -0.914  0.00  0.00    -0.149 OA
BRANCH  26  29
ATOM     29  C   UNL     1      -2.199   6.832   1.615  0.00  0.00    +0.111 A 
ATOM     30  C   UNL     1      -3.077   5.764   1.620  0.00  0.00    +0.032 A 
ATOM     31  C   UNL     1      -3.781   5.452   2.768  0.00  0.00    +0.042 A 
ATOM     32  C   UNL     1      -3.616   6.216   3.910  0.00  0.00    +0.142 A 
ATOM     33  C   UNL     1      -2.740   7.290   3.903  0.00  0.00    +0.078 A 
ATOM     34  C   UNL     1      -2.033   7.596   2.755  0.00  0.00    +0.051 A 
ATOM     35 CL   UNL     1      -2.530   8.249   5.335  0.00  0.00    -0.081 Cl
ATOM     36  F   UNL     1      -4.308   5.915   5.031  0.00  0.00    -0.204 F 
ENDBRANCH  26  29
ENDBRANCH  24  26
ENDBRANCH  11  24
TORSDOF 5
