REMARK  Name = ZINC03640351
REMARK  8 active torsions:
REMARK  status: ('A' for Active; 'I' for Inactive)
REMARK    1  A    between atoms: C_4  and  O_35
REMARK    2  A    between atoms: C_5  and  N_7
REMARK    3  A    between atoms: N_7  and  S_8
REMARK    4  A    between atoms: S_8  and  C_11
REMARK    5  A    between atoms: C_19  and  S_24
REMARK    6  A    between atoms: S_24  and  N_27
REMARK    7  A    between atoms: N_27  and  C_28
REMARK    8  A    between atoms: C_33  and  O_34
REMARK                            x       y       z     vdW  Elec       q    Type
REMARK                         _______ _______ _______ _____ _____    ______ ____
ROOT
ATOM      1  C   UNL     1       1.399   2.759   0.450  0.00  0.00    +0.109 A 
ATOM      2  C   UNL     1       2.155   2.294   1.515  0.00  0.00    +0.032 A 
ATOM      3  C   UNL     1       2.432   3.112   2.589  0.00  0.00    +0.049 A 
ATOM      4  C   UNL     1       1.952   4.417   2.614  0.00  0.00    +0.136 A 
ATOM      5  C   UNL     1       1.187   4.884   1.536  0.00  0.00    +0.030 A 
ATOM      6  C   UNL     1       0.919   4.052   0.455  0.00  0.00    +0.041 A 
ATOM      7  C   UNL     1       0.841   6.279   1.868  0.00  0.00    +0.030 A 
ATOM      8  C   UNL     1       0.112   7.274   1.224  0.00  0.00    +0.041 A 
ATOM      9  C   UNL     1      -0.032   8.510   1.818  0.00  0.00    +0.109 A 
ATOM     10  C   UNL     1       0.547   8.761   3.051  0.00  0.00    +0.032 A 
ATOM     11  C   UNL     1       1.271   7.782   3.699  0.00  0.00    +0.049 A 
ATOM     12  C   UNL     1       1.427   6.530   3.116  0.00  0.00    +0.136 A 
ATOM     13  O   UNL     1       2.070   5.412   3.520  0.00  0.00    -0.455 OA
ENDROOT
BRANCH   1  14
ATOM     14  S   UNL     1       1.057   1.698  -0.914  0.00  0.00    +0.072 S 
ATOM     15  O   UNL     1       2.081   0.714  -0.931  0.00  0.00    -0.150 OA
ATOM     16  O   UNL     1       0.792   2.541  -2.027  0.00  0.00    -0.150 OA
BRANCH  14  17
ATOM     17  N   UNL     1      -0.357   0.904  -0.575  0.00  0.00    -0.213 N 
ATOM     18  H   UNL     1      -0.369  -0.064  -0.525  0.00  0.00    +0.174 HD
BRANCH  17  23
ATOM     19  C   UNL     1      -2.907   3.542  -0.831  0.00  0.00    +0.002 A 
ATOM     20  C   UNL     1      -3.866   3.070   0.046  0.00  0.00    +0.004 A 
ATOM     21  C   UNL     1      -3.665   1.879   0.720  0.00  0.00    +0.047 A 
ATOM     22  C   UNL     1      -2.501   1.156   0.517  0.00  0.00    +0.139 A 
ATOM     23  C   UNL     1      -1.535   1.631  -0.366  0.00  0.00    +0.089 A 
ATOM     24  C   UNL     1      -1.740   2.829  -1.035  0.00  0.00    +0.028 A 
BRANCH  22  25
ATOM     25  O   UNL     1      -2.302  -0.015   1.180  0.00  0.00    -0.505 OA
ATOM     26  H   UNL     1      -1.857   0.086   2.032  0.00  0.00    +0.292 HD
ENDBRANCH  22  25
ENDBRANCH  17  23
ENDBRANCH  14  17
ENDBRANCH   1  14
BRANCH   9  27
ATOM     27  S   UNL     1      -0.955   9.773   1.007  0.00  0.00    +0.072 S 
ATOM     28  O   UNL     1      -1.851   9.116   0.121  0.00  0.00    -0.150 OA
ATOM     29  O   UNL     1      -1.400  10.664   2.020  0.00  0.00    -0.150 OA
BRANCH  27  30
ATOM     30  N   UNL     1       0.106  10.624   0.061  0.00  0.00    -0.213 N 
ATOM     31  H   UNL     1       0.234  11.574   0.210  0.00  0.00    +0.174 HD
BRANCH  30  32
ATOM     32  C   UNL     1       0.818   9.972  -0.952  0.00  0.00    +0.089 A 
ATOM     33  C   UNL     1       0.222   8.946  -1.672  0.00  0.00    +0.028 A 
ATOM     34  C   UNL     1       0.926   8.307  -2.676  0.00  0.00    +0.002 A 
ATOM     35  C   UNL     1       2.227   8.681  -2.958  0.00  0.00    +0.004 A 
ATOM     36  C   UNL     1       2.829   9.699  -2.242  0.00  0.00    +0.047 A 
ATOM     37  C   UNL     1       2.129  10.347  -1.238  0.00  0.00    +0.139 A 
BRANCH  37  38
ATOM     38  O   UNL     1       2.721  11.348  -0.531  0.00  0.00    -0.505 OA
ATOM     39  H   UNL     1       3.188  11.048   0.260  0.00  0.00    +0.292 HD
ENDBRANCH  37  38
ENDBRANCH  30  32
ENDBRANCH  27  30
ENDBRANCH   9  27
TORSDOF 8
