REMARK  Name = ZINC39638323
REMARK  9 active torsions:
REMARK  status: ('A' for Active; 'I' for Inactive)
REMARK    1  A    between atoms: C_1  and  O_2
REMARK    2  A    between atoms: O_2  and  C_3
REMARK    3  A    between atoms: C_7  and  C_11
REMARK    4  A    between atoms: C_8  and  O_9
REMARK    5  A    between atoms: O_9  and  C_10
REMARK    6  A    between atoms: C_11  and  N_12
REMARK    7  A    between atoms: C_13  and  C_15
REMARK    8  A    between atoms: C_26  and  C_28
REMARK    9  A    between atoms: C_34  and  C_36
REMARK                            x       y       z     vdW  Elec       q    Type
REMARK                         _______ _______ _______ _____ _____    ______ ____
ROOT
ATOM      1  C   UNL     1      -1.455  -6.469  -3.452  0.00  0.00    +0.100 C 
ATOM      2  C   UNL     1      -2.564  -6.236  -2.401  0.00  0.00    +0.121 C 
ATOM      3  N   UNL     1      -3.421  -7.443  -2.487  0.00  0.00    -0.299 N 
ATOM      4  C   UNL     1      -2.465  -8.560  -2.676  0.00  0.00    +0.115 C 
ATOM      5  C   UNL     1      -1.393  -7.996  -3.629  0.00  0.00    -0.004 C 
ATOM      6  C   UNL     1      -1.716  -8.374  -5.071  0.00  0.00    -0.010 C 
ATOM      7  C   UNL     1      -1.593  -9.892  -5.235  0.00  0.00    -0.082 C 
ATOM      8  N   UNL     1      -0.229 -10.313  -4.891  0.00  0.00    +0.379 N 
ATOM      9  C   UNL     1       0.041 -10.029  -3.477  0.00  0.00    -0.082 C 
ATOM     10  C   UNL     1      -0.014  -8.517  -3.238  0.00  0.00    -0.010 C 
ATOM     11  C   UNL     1      -4.765  -7.509  -2.412  0.00  0.00    +0.236 C 
ATOM     12  O   UNL     1      -5.325  -8.581  -2.500  0.00  0.00    -0.274 OA
ATOM     13  H   UNL     1      -0.132 -11.303  -5.058  0.00  0.00    -0.086 HD
ATOM     14  H   UNL     1       0.431  -9.812  -5.466  0.00  0.00    -0.086 HD
ENDROOT
BRANCH  11  15
ATOM     15  C   UNL     1      -5.571  -6.251  -2.217  0.00  0.00    +0.162 C 
ATOM     16  C   UNL     1      -5.559  -5.844  -0.729  0.00  0.00    +0.033 C 
ATOM     17  C   UNL     1      -7.004  -5.330  -0.496  0.00  0.00    +0.021 C 
ATOM     18  C   UNL     1      -7.822  -6.280  -1.405  0.00  0.00    +0.109 C 
ATOM     19  N   UNL     1      -6.972  -6.491  -2.595  0.00  0.00    -0.283 N 
ATOM     20  C   UNL     1      -7.405  -6.844  -3.822  0.00  0.00    +0.320 C 
ATOM     21  O   UNL     1      -6.610  -6.989  -4.727  0.00  0.00    -0.266 OA
BRANCH  20  22
ATOM     22  C   UNL     1      -8.876  -7.059  -4.069  0.00  0.00    +0.470 C 
ATOM     23  F   UNL     1      -9.077  -7.415  -5.406  0.00  0.00    -0.162 F 
ATOM     24  F   UNL     1      -9.344  -8.082  -3.238  0.00  0.00    -0.162 F 
ATOM     25  F   UNL     1      -9.572  -5.877  -3.791  0.00  0.00    -0.162 F 
ENDBRANCH  20  22
ENDBRANCH  11  15
BRANCH   1  27
ATOM     26  N   UNL     1       0.795  -5.511  -3.819  0.00  0.00    -0.311 N 
ATOM     27  C   UNL     1      -0.136  -5.945  -2.947  0.00  0.00    +0.218 C 
ATOM     28  O   UNL     1       0.088  -5.914  -1.755  0.00  0.00    -0.275 OA
ATOM     29  H   UNL     1       0.617  -5.537  -4.772  0.00  0.00    +0.149 HD
BRANCH  26  30
ATOM     30  C   UNL     1       2.078  -5.002  -3.328  0.00  0.00    +0.143 C 
BRANCH  30  35
ATOM     31  C   UNL     1       3.512  -2.978  -6.187  0.00  0.00    +0.162 A 
ATOM     32  C   UNL     1       4.509  -3.824  -6.645  0.00  0.00    +0.049 A 
ATOM     33  C   UNL     1       4.717  -5.044  -6.029  0.00  0.00    +0.004 A 
ATOM     34  C   UNL     1       3.931  -5.424  -4.957  0.00  0.00    +0.009 A 
ATOM     35  C   UNL     1       2.934  -4.585  -4.496  0.00  0.00    +0.015 A 
ATOM     36  C   UNL     1       2.724  -3.357  -5.104  0.00  0.00    +0.166 A 
BRANCH  31  38
ATOM     37  C   UNL     1       4.153  -1.453  -7.896  0.00  0.00    +0.277 C 
ATOM     38  O   UNL     1       3.307  -1.776  -6.791  0.00  0.00    -0.491 OA
ENDBRANCH  31  38
BRANCH  36  39
ATOM     39  O   UNL     1       1.748  -2.528  -4.648  0.00  0.00    -0.491 OA
ATOM     40  C   UNL     1       0.450  -2.675  -5.226  0.00  0.00    +0.277 C 
ENDBRANCH  36  39
ENDBRANCH  30  35
ENDBRANCH  26  30
ENDBRANCH   1  27
TORSDOF 7
