REMARK  Name = ZINC38604138
REMARK  9 active torsions:
REMARK  status: ('A' for Active; 'I' for Inactive)
REMARK    1  A    between atoms: C_1  and  C_2
REMARK    2  A    between atoms: C_2  and  C_4
REMARK    3  A    between atoms: C_2  and  N_21
REMARK    4  A    between atoms: N_6  and  C_7
REMARK    5  A    between atoms: C_15  and  C_17
REMARK    6  A    between atoms: C_17  and  O_19
REMARK    7  A    between atoms: O_19  and  C_20
REMARK    8  A    between atoms: N_24  and  C_27
REMARK    9  A    between atoms: C_27  and  C_28
REMARK                            x       y       z     vdW  Elec       q    Type
REMARK                         _______ _______ _______ _____ _____    ______ ____
ROOT
ATOM      1  C   UNL     1       0.595   2.515   0.495  0.00  0.00    -0.004 C 
ATOM      2  C   UNL     1       1.098   1.117   0.127  0.00  0.00    +0.016 C 
ENDROOT
BRANCH   2   3
ATOM      3  N   UNL     1       0.056   0.405  -0.624  0.00  0.00    +0.389 N 
ATOM      4  C   UNL     1      -0.264   1.153  -1.847  0.00  0.00    -0.062 C 
ATOM      5  C   UNL     1      -1.362   0.421  -2.621  0.00  0.00    +0.066 C 
ATOM      6  N   UNL     1      -0.899  -0.932  -2.961  0.00  0.00    -0.302 NA
ATOM      7  C   UNL     1      -0.551  -1.685  -1.748  0.00  0.00    +0.066 C 
ATOM      8  C   UNL     1       0.541  -0.935  -0.981  0.00  0.00    -0.062 C 
ATOM      9  H   UNL     1      -0.772   0.322  -0.055  0.00  0.00    -0.081 HD
BRANCH   6  10
ATOM     10  C   UNL     1      -1.905  -1.649  -3.755  0.00  0.00    +0.119 C 
BRANCH  10  11
ATOM     11  C   UNL     1      -1.307  -2.924  -4.291  0.00  0.00    -0.030 A 
ATOM     12  C   UNL     1      -0.668  -2.925  -5.517  0.00  0.00    +0.009 A 
ATOM     13  C   UNL     1      -0.117  -4.092  -6.012  0.00  0.00    +0.050 A 
ATOM     14  C   UNL     1      -0.206  -5.265  -5.280  0.00  0.00    +0.166 A 
ATOM     15  C   UNL     1      -0.851  -5.265  -4.046  0.00  0.00    +0.167 A 
ATOM     16  C   UNL     1      -1.395  -4.090  -3.553  0.00  0.00    +0.054 A 
ATOM     17  O   UNL     1      -0.805  -6.527  -3.530  0.00  0.00    -0.453 OA
ATOM     18  C   UNL     1      -0.487  -7.386  -4.641  0.00  0.00    +0.466 C 
ATOM     19  O   UNL     1       0.243  -6.528  -5.537  0.00  0.00    -0.453 OA
ENDBRANCH  10  11
ENDBRANCH   6  10
ENDBRANCH   2   3
BRANCH   2  20
ATOM     20  C   UNL     1       1.422   0.353   1.385  0.00  0.00    +0.203 C 
ATOM     21  O   UNL     1       0.582  -0.354   1.898  0.00  0.00    -0.277 OA
ATOM     22  N   UNL     1       2.647   0.455   1.939  0.00  0.00    -0.288 N 
ATOM     23  H   UNL     1       3.299   1.068   1.564  0.00  0.00    +0.155 HD
BRANCH  22  24
ATOM     24  C   UNL     1       2.968  -0.301   3.026  0.00  0.00    +0.053 C 
ATOM     25  C   UNL     1       4.210  -0.418   3.624  0.00  0.00    +0.018 A 
ATOM     26  C   UNL     1       5.469   0.162   3.334  0.00  0.00    +0.011 A 
ATOM     27  C   UNL     1       6.541  -0.139   4.107  0.00  0.00    +0.001 A 
ATOM     28  C   UNL     1       6.440  -1.013   5.192  0.00  0.00    +0.002 A 
ATOM     29  C   UNL     1       5.269  -1.605   5.529  0.00  0.00    +0.026 A 
ATOM     30  C   UNL     1       4.100  -1.340   4.768  0.00  0.00    +0.045 A 
ATOM     31  N   UNL     1       2.864  -1.780   4.887  0.00  0.00    -0.367 N 
ATOM     32  C   UNL     1       2.039  -1.181   3.832  0.00  0.00    +0.234 C 
ATOM     33  H   UNL     1       2.549  -2.397   5.565  0.00  0.00    +0.161 HD
BRANCH  32  34
ATOM     34  C   UNL     1       0.935  -0.353   4.439  0.00  0.00    +0.335 C 
ATOM     35  O   UNL     1       1.168   0.364   5.382  0.00  0.00    -0.248 OA
BRANCH  34  36
ATOM     36  O   UNL     1      -0.305  -0.414   3.931  0.00  0.00    -0.466 OA
ATOM     37  C   UNL     1      -1.302   0.398   4.555  0.00  0.00    +0.280 C 
ENDBRANCH  34  36
ENDBRANCH  32  34
ENDBRANCH  22  24
ENDBRANCH   2  20
TORSDOF 7
