REMARK  Name = ZINC31046938
REMARK  9 active torsions:
REMARK  status: ('A' for Active; 'I' for Inactive)
REMARK    1  A    between atoms: C_6  and  C_7
REMARK    2  A    between atoms: C_9  and  C_12
REMARK    3  A    between atoms: C_12  and  N_13
REMARK    4  A    between atoms: C_17  and  C_20
REMARK    5  A    between atoms: N_22  and  C_23
REMARK    6  A    between atoms: C_23  and  C_24
REMARK    7  A    between atoms: C_24  and  C_25
REMARK    8  A    between atoms: C_25  and  O_26
REMARK    9  A    between atoms: O_26  and  C_27
REMARK                            x       y       z     vdW  Elec       q    Type
REMARK                         _______ _______ _______ _____ _____    ______ ____
ROOT
ATOM      1  N   UNL     1      -3.741  -3.376 -10.613  0.00  0.00    +0.386 N 
ATOM      2  C   UNL     1      -2.793  -4.489 -10.470  0.00  0.00    -0.078 C 
ATOM      3  C   UNL     1      -2.667  -4.866  -8.992  0.00  0.00    -0.018 C 
ATOM      4  C   UNL     1      -2.180  -3.650  -8.198  0.00  0.00    +0.009 C 
ATOM      5  C   UNL     1      -3.158  -2.490  -8.405  0.00  0.00    +0.058 C 
ATOM      6  C   UNL     1      -3.270  -2.182  -9.900  0.00  0.00    -0.065 C 
ATOM      7  H   UNL     1      -4.693  -3.686 -10.157  0.00  0.00    -0.081 HD
ENDROOT
BRANCH   5   8
ATOM      8  C   UNL     1      -2.655  -1.271  -7.676  0.00  0.00    +0.214 C 
ATOM      9  O   UNL     1      -2.410  -0.255  -8.291  0.00  0.00    -0.276 OA
ATOM     10  N   UNL     1      -2.476  -1.310  -6.341  0.00  0.00    -0.315 N 
ATOM     11  H   UNL     1      -2.698  -2.232  -5.783  0.00  0.00    +0.149 HD
BRANCH  10  12
ATOM     12  C   UNL     1      -1.986  -0.126  -5.632  0.00  0.00    +0.106 C 
BRANCH  12  13
ATOM     13  C   UNL     1      -1.873  -0.435  -4.138  0.00  0.00    +0.047 C 
BRANCH  13  14
ATOM     14  C   UNL     1      -1.362   0.802  -3.398  0.00  0.00    +0.161 C 
BRANCH  14  15
ATOM     15  O   UNL     1      -1.256   0.513  -2.002  0.00  0.00    -0.377 OA
BRANCH  15  16
ATOM     16  C   UNL     1      -0.784   1.609  -1.216  0.00  0.00    +0.118 C 
ATOM     17  C   UNL     1      -0.013   1.086   0.008  0.00  0.00    +0.031 C 
ATOM     18  C   UNL     1      -0.763   1.597   1.255  0.00  0.00    +0.003 C 
ATOM     19  C   UNL     1      -1.531   2.845   0.750  0.00  0.00    +0.003 C 
ATOM     20  C   UNL     1      -1.978   2.421  -0.670  0.00  0.00    +0.031 C 
ENDBRANCH  15  16
ENDBRANCH  14  15
ENDBRANCH  13  14
ENDBRANCH  12  13
ENDBRANCH  10  12
ENDBRANCH   5   8
BRANCH   1  21
ATOM     21  C   UNL     1      -3.992  -3.078 -12.030  0.00  0.00    +0.022 C 
BRANCH  21  24
ATOM     22  C   UNL     1      -6.164  -5.593 -13.401  0.00  0.00    +0.202 A 
ATOM     23  N   UNL     1      -5.995  -4.421 -12.747  0.00  0.00    -0.193 NA
ATOM     24  C   UNL     1      -4.700  -4.244 -12.670  0.00  0.00    +0.211 A 
ATOM     25  O   UNL     1      -4.123  -5.289 -13.273  0.00  0.00    -0.340 OA
ATOM     26  N   UNL     1      -4.972  -6.054 -13.680  0.00  0.00    -0.056 NA
BRANCH  22  32
ATOM     27  C   UNL     1      -8.657  -5.628 -13.368  0.00  0.00    +0.013 A 
ATOM     28  C   UNL     1      -9.858  -6.227 -13.688  0.00  0.00    +0.021 A 
ATOM     29  C   UNL     1      -9.873  -7.435 -14.365  0.00  0.00    +0.041 A 
ATOM     30  C   UNL     1      -8.685  -8.045 -14.729  0.00  0.00    +0.021 A 
ATOM     31  C   UNL     1      -7.479  -7.451 -14.419  0.00  0.00    +0.013 A 
ATOM     32  C   UNL     1      -7.458  -6.235 -13.738  0.00  0.00    +0.023 A 
ATOM     33 CL   UNL     1     -11.388  -8.187 -14.759  0.00  0.00    -0.084 Cl
ENDBRANCH  22  32
ENDBRANCH  21  24
ENDBRANCH   1  21
TORSDOF 9
