REMARK  Name = ZINC58174303
REMARK  5 active torsions:
REMARK  status: ('A' for Active; 'I' for Inactive)
REMARK    1  A    between atoms: C_4  and  C_7
REMARK    2  A    between atoms: C_7  and  C_8
REMARK    3  A    between atoms: N_14  and  C_15
REMARK    4  A    between atoms: C_15  and  C_16
REMARK    5  A    between atoms: N_18  and  N_19
REMARK                            x       y       z     vdW  Elec       q    Type
REMARK                         _______ _______ _______ _____ _____    ______ ____
ROOT
ATOM      1  C   UNL     1       3.230   2.549   2.426  0.00  0.00    +0.213 C 
ATOM      2  O   UNL     1       4.319   2.861   2.861  0.00  0.00    -0.276 OA
ATOM      3  N   UNL     1       2.240   3.461   2.370  0.00  0.00    -0.225 N 
ATOM      4  H   UNL     1       1.369   3.211   2.022  0.00  0.00    +0.173 HD
ENDROOT
BRANCH   3   5
ATOM      5  N   UNL     1       2.467   4.770   2.814  0.00  0.00    -0.137 N 
ATOM      6  C   UNL     1       2.007   5.265   3.982  0.00  0.00    +0.263 C 
ATOM      7  O   UNL     1       1.343   4.685   4.814  0.00  0.00    -0.271 OA
ATOM      8  C   UNL     1       2.493   6.696   4.033  0.00  0.00    +0.114 C 
ATOM      9  C   UNL     1       3.410   6.903   5.232  0.00  0.00    +0.035 C 
ATOM     10  C   UNL     1       3.915   8.348   5.248  0.00  0.00    +0.003 C 
ATOM     11  C   UNL     1       2.722   9.303   5.327  0.00  0.00    +0.000 C 
ATOM     12  C   UNL     1       1.823   9.099   4.105  0.00  0.00    +0.003 C 
ATOM     13  C   UNL     1       1.310   7.657   4.085  0.00  0.00    +0.035 C 
ATOM     14  N   UNL     1       3.238   6.864   2.779  0.00  0.00    -0.284 N 
ATOM     15  C   UNL     1       3.172   5.683   2.135  0.00  0.00    +0.326 C 
ATOM     16  O   UNL     1       3.692   5.471   1.057  0.00  0.00    -0.251 OA
ATOM     17  H   UNL     1       3.692   7.666   2.476  0.00  0.00    +0.151 HD
ENDBRANCH   3   5
BRANCH   1  18
ATOM     18  C   UNL     1       2.986   1.140   1.949  0.00  0.00    +0.020 C 
BRANCH  18  24
ATOM     19  C   UNL     1       4.026  -0.972   1.499  0.00  0.00    -0.064 C 
ATOM     20  C   UNL     1       5.327  -1.772   1.596  0.00  0.00    -0.015 C 
ATOM     21  C   UNL     1       5.705  -1.942   3.070  0.00  0.00    -0.003 C 
ATOM     22  C   UNL     1       5.823  -0.561   3.720  0.00  0.00    -0.019 C 
ATOM     23  C   UNL     1       4.504   0.194   3.544  0.00  0.00    -0.078 C 
ATOM     24  N   UNL     1       4.212   0.348   2.114  0.00  0.00    +0.388 N 
ATOM     25  H   UNL     1       4.980   0.822   1.663  0.00  0.00    -0.081 HD
BRANCH  19  26
ATOM     26  C   UNL     1       3.643  -0.799   0.028  0.00  0.00    +0.020 C 
BRANCH  26  30
ATOM     27  C   UNL     1       2.799  -4.621  -1.685  0.00  0.00    +0.000 A 
ATOM     28  C   UNL     1       1.813  -3.939  -0.997  0.00  0.00    +0.000 A 
ATOM     29  C   UNL     1       2.086  -2.702  -0.443  0.00  0.00    +0.003 A 
ATOM     30  C   UNL     1       3.345  -2.148  -0.576  0.00  0.00    -0.049 A 
ATOM     31  C   UNL     1       4.332  -2.830  -1.263  0.00  0.00    +0.003 A 
ATOM     32  C   UNL     1       4.059  -4.066  -1.818  0.00  0.00    +0.000 A 
ENDBRANCH  26  30
ENDBRANCH  19  26
ENDBRANCH  18  24
ENDBRANCH   1  18
TORSDOF 5
