REMARK  Name = ZINC39012333
REMARK  10 active torsions:
REMARK  status: ('A' for Active; 'I' for Inactive)
REMARK    1  A    between atoms: C_1  and  C_2
REMARK    2  A    between atoms: C_2  and  O_3
REMARK    3  A    between atoms: O_3  and  C_4
REMARK    4  A    between atoms: C_7  and  N_10
REMARK    5  A    between atoms: N_10  and  C_11
REMARK    6  A    between atoms: N_10  and  S_26
REMARK    7  A    between atoms: C_11  and  C_12
REMARK    8  A    between atoms: C_17  and  O_24
REMARK    9  A    between atoms: O_24  and  C_25
REMARK   10  A    between atoms: S_26  and  C_29
REMARK                            x       y       z     vdW  Elec       q    Type
REMARK                         _______ _______ _______ _____ _____    ______ ____
ROOT
ATOM      1  N   UNL     1       1.152  -6.114  -1.760  0.00  0.00    -0.202 N 
ENDROOT
BRANCH   1   5
ATOM      2  C   UNL     1       0.244  -2.121  -0.985  0.00  0.00    +0.121 A 
ATOM      3  C   UNL     1      -0.266  -3.119  -0.168  0.00  0.00    +0.047 A 
ATOM      4  C   UNL     1       0.034  -4.442  -0.424  0.00  0.00    +0.028 A 
ATOM      5  C   UNL     1       0.847  -4.774  -1.500  0.00  0.00    +0.052 A 
ATOM      6  C   UNL     1       1.357  -3.774  -2.317  0.00  0.00    +0.028 A 
ATOM      7  C   UNL     1       1.052  -2.451  -2.063  0.00  0.00    +0.047 A 
BRANCH   2   8
ATOM      8  O   UNL     1      -0.051  -0.818  -0.731  0.00  0.00    -0.492 OA
BRANCH   8  10
ATOM      9  C   UNL     1      -1.109   0.959   0.520  0.00  0.00    +0.048 C 
ATOM     10  C   UNL     1      -0.888  -0.549   0.396  0.00  0.00    +0.225 C 
ENDBRANCH   8  10
ENDBRANCH   2   8
ENDBRANCH   1   5
BRANCH   1  11
ATOM     11  S   UNL     1       1.106  -7.227  -0.535  0.00  0.00    +0.075 S 
ATOM     12  O   UNL     1       1.948  -8.301  -0.930  0.00  0.00    -0.150 OA
ATOM     13  O   UNL     1       1.305  -6.508   0.674  0.00  0.00    -0.150 OA
BRANCH  11  14
ATOM     14  C   UNL     1      -0.534  -7.869  -0.475  0.00  0.00    +0.109 A 
ATOM     15  C   UNL     1      -1.488  -7.255   0.316  0.00  0.00    +0.031 A 
ATOM     16  C   UNL     1      -2.774  -7.757   0.363  0.00  0.00    +0.040 A 
ATOM     17  C   UNL     1      -3.108  -8.875  -0.381  0.00  0.00    +0.124 A 
ATOM     18  C   UNL     1      -2.152  -9.490  -1.172  0.00  0.00    +0.040 A 
ATOM     19  C   UNL     1      -0.868  -8.983  -1.222  0.00  0.00    +0.031 A 
ATOM     20  F   UNL     1      -4.365  -9.367  -0.335  0.00  0.00    -0.205 F 
ENDBRANCH  11  14
ENDBRANCH   1  11
BRANCH   1  21
ATOM     21  C   UNL     1       1.511  -6.534  -3.117  0.00  0.00    +0.148 C 
BRANCH  21  22
ATOM     22  C   UNL     1       2.975  -6.180  -3.389  0.00  0.00    +0.118 C 
ATOM     23  C   UNL     1       3.241  -6.405  -4.865  0.00  0.00    -0.003 C 
ATOM     24  C   UNL     1       4.231  -7.282  -5.194  0.00  0.00    -0.004 A 
ATOM     25  C   UNL     1       4.553  -7.559  -6.594  0.00  0.00    +0.055 A 
ATOM     26  C   UNL     1       5.550  -8.443  -6.876  0.00  0.00    +0.121 A 
ATOM     27  C   UNL     1       6.264  -9.083  -5.856  0.00  0.00    +0.047 A 
ATOM     28  C   UNL     1       6.010  -8.867  -4.540  0.00  0.00    +0.027 A 
ATOM     29  C   UNL     1       5.000  -7.973  -4.143  0.00  0.00    +0.041 A 
ATOM     30  N   UNL     1       4.762  -7.770  -2.847  0.00  0.00    -0.284 N 
ATOM     31  C   UNL     1       3.828  -6.946  -2.404  0.00  0.00    +0.226 C 
ATOM     32  O   UNL     1       3.658  -6.803  -1.208  0.00  0.00    -0.275 OA
ATOM     33  H   UNL     1       5.299  -8.251  -2.198  0.00  0.00    +0.155 HD
BRANCH  26  34
ATOM     34  O   UNL     1       5.859  -8.708  -8.174  0.00  0.00    -0.495 OA
ATOM     35  C   UNL     1       6.913  -9.643  -8.412  0.00  0.00    +0.277 C 
ENDBRANCH  26  34
ENDBRANCH  21  22
ENDBRANCH   1  21
TORSDOF 8
