REMARK  Name = ZINC09116289
REMARK  8 active torsions:
REMARK  status: ('A' for Active; 'I' for Inactive)
REMARK    1  A    between atoms: C_1  and  C_2
REMARK    2  A    between atoms: C_5  and  C_8
REMARK    3  A    between atoms: C_8  and  O_9
REMARK    4  A    between atoms: C_14  and  C_29
REMARK    5  A    between atoms: C_16  and  S_17
REMARK    6  A    between atoms: S_17  and  C_18
REMARK    7  A    between atoms: C_18  and  C_19
REMARK    8  A    between atoms: N_21  and  C_22
REMARK                            x       y       z     vdW  Elec       q    Type
REMARK                         _______ _______ _______ _____ _____    ______ ____
ROOT
ATOM      1  C   UNL     1       3.592  -0.841  -0.015  0.00  0.00    +0.069 C 
ATOM      2  C   UNL     1       2.316  -0.040  -0.007  0.00  0.00    +0.081 A 
ATOM      3  C   UNL     1       2.374   1.348  -0.001  0.00  0.00    +0.155 A 
ATOM      4  C   UNL     1       1.190   2.069   0.006  0.00  0.00    +0.008 A 
ATOM      5  C   UNL     1      -0.010   1.377   0.006  0.00  0.00    +0.003 A 
ATOM      6  C   UNL     1       0.011  -0.006  -0.000  0.00  0.00    +0.117 A 
ATOM      7  N   UNL     1       1.155  -0.663  -0.007  0.00  0.00    -0.256 NA
ATOM      8  C   UNL     1       1.196   3.571   0.015  0.00  0.00    +0.082 C 
ATOM      9  C   UNL     1       2.548   4.090  -0.383  0.00  0.00    +0.051 A 
ATOM     10  C   UNL     1       3.664   3.269  -0.370  0.00  0.00    +0.229 A 
ATOM     11  N   UNL     1       4.842   3.774  -0.729  0.00  0.00    -0.193 NA
ATOM     12  C   UNL     1       4.953   5.043  -1.095  0.00  0.00    +0.165 A 
ATOM     13  N   UNL     1       3.908   5.857  -1.120  0.00  0.00    -0.221 NA
ATOM     14  C   UNL     1       2.699   5.420  -0.774  0.00  0.00    +0.108 A 
ATOM     15  O   UNL     1       3.575   1.973  -0.001  0.00  0.00    -0.436 OA
ENDROOT
BRANCH  12  16
ATOM     16  C   UNL     1       6.284   5.567  -1.487  0.00  0.00    +0.019 A 
ATOM     17  C   UNL     1       6.424   6.897  -1.881  0.00  0.00    +0.014 A 
ATOM     18  C   UNL     1       7.665   7.381  -2.240  0.00  0.00    +0.039 A 
ATOM     19  C   UNL     1       8.769   6.544  -2.220  0.00  0.00    +0.123 A 
ATOM     20  C   UNL     1       8.634   5.220  -1.834  0.00  0.00    +0.039 A 
ATOM     21  C   UNL     1       7.398   4.729  -1.468  0.00  0.00    +0.014 A 
ATOM     22  F   UNL     1       9.982   7.021  -2.578  0.00  0.00    -0.205 F 
ENDBRANCH  12  16
BRANCH   5  23
ATOM     23  C   UNL     1      -1.321   2.120   0.006  0.00  0.00    +0.193 C 
BRANCH  23  24
ATOM     24  O   UNL     1      -2.400   1.183  -0.000  0.00  0.00    -0.390 OA
ATOM     25  H   UNL     1      -3.276   1.592  -0.000  0.00  0.00    +0.210 HD
ENDBRANCH  23  24
ENDBRANCH   5  23
BRANCH  14  26
ATOM     26  S   UNL     1       1.311   6.505  -0.809  0.00  0.00    -0.096 S 
BRANCH  26  27
ATOM     27  C   UNL     1       2.115   8.025  -1.374  0.00  0.00    +0.171 C 
BRANCH  27  28
ATOM     28  C   UNL     1       1.090   9.125  -1.482  0.00  0.00    +0.227 C 
ATOM     29  O   UNL     1      -0.070   8.903  -1.204  0.00  0.00    -0.275 OA
ATOM     30  N   UNL     1       1.462  10.355  -1.887  0.00  0.00    -0.285 N 
ATOM     31  H   UNL     1       2.399  10.551  -2.045  0.00  0.00    +0.155 HD
BRANCH  30  32
ATOM     32  C   UNL     1       0.496  11.351  -2.080  0.00  0.00    +0.034 A 
ATOM     33  C   UNL     1       0.655  12.286  -3.095  0.00  0.00    +0.026 A 
ATOM     34  C   UNL     1      -0.302  13.263  -3.287  0.00  0.00    +0.040 A 
ATOM     35  C   UNL     1      -1.413  13.318  -2.462  0.00  0.00    +0.124 A 
ATOM     36  C   UNL     1      -1.570  12.390  -1.446  0.00  0.00    +0.040 A 
ATOM     37  C   UNL     1      -0.619  11.408  -1.254  0.00  0.00    +0.026 A 
ATOM     38  F   UNL     1      -2.345  14.278  -2.649  0.00  0.00    -0.205 F 
ENDBRANCH  30  32
ENDBRANCH  27  28
ENDBRANCH  26  27
ENDBRANCH  14  26
TORSDOF 7
