REMARK  Name = ZINC20283705
REMARK  13 active torsions:
REMARK  status: ('A' for Active; 'I' for Inactive)
REMARK    1  A    between atoms: C_1  and  C_2
REMARK    2  A    between atoms: C_2  and  O_3
REMARK    3  A    between atoms: O_3  and  C_4
REMARK    4  A    between atoms: C_4  and  C_6
REMARK    5  A    between atoms: C_7  and  C_24
REMARK    6  A    between atoms: C_12  and  C_14
REMARK    7  A    between atoms: C_18  and  O_22
REMARK    8  A    between atoms: C_19  and  O_20
REMARK    9  A    between atoms: O_20  and  C_21
REMARK   10  A    between atoms: O_22  and  C_23
REMARK   11  A    between atoms: C_24  and  N_25
REMARK   12  A    between atoms: C_27  and  C_34
REMARK   13  A    between atoms: C_30  and  C_33
REMARK                            x       y       z     vdW  Elec       q    Type
REMARK                         _______ _______ _______ _____ _____    ______ ____
ROOT
ATOM      1  C   UNL     1      -0.652   1.250  -1.349  0.00  0.00    +0.076 C 
ATOM      2  C   UNL     1      -1.680   2.119  -1.468  0.00  0.00    +0.008 C 
ATOM      3  N   UNL     1      -2.217   2.729  -0.371  0.00  0.00    -0.274 N 
ATOM      4  C   UNL     1      -1.783   2.525   0.879  0.00  0.00    +0.304 C 
ATOM      5  O   UNL     1      -2.325   3.115   1.794  0.00  0.00    -0.252 OA
ATOM      6  N   UNL     1      -0.767   1.686   1.157  0.00  0.00    -0.288 N 
ATOM      7  C   UNL     1      -0.117   0.977   0.042  0.00  0.00    +0.147 C 
ATOM      8  H   UNL     1      -3.053   3.434  -0.488  0.00  0.00    +0.156 HD
ATOM      9  H   UNL     1      -0.419   1.524   2.188  0.00  0.00    +0.151 HD
ENDROOT
BRANCH   7  10
ATOM     10  C   UNL     1       1.347   1.333   0.054  0.00  0.00    +0.023 A 
ATOM     11  C   UNL     1       1.860   2.184  -0.907  0.00  0.00    +0.009 A 
ATOM     12  C   UNL     1       3.202   2.513  -0.898  0.00  0.00    +0.004 A 
ATOM     13  C   UNL     1       4.038   1.992   0.072  0.00  0.00    +0.049 A 
ATOM     14  C   UNL     1       3.531   1.139   1.038  0.00  0.00    +0.162 A 
ATOM     15  C   UNL     1       2.178   0.812   1.032  0.00  0.00    +0.167 A 
BRANCH  15  16
ATOM     16  O   UNL     1       1.674  -0.022   1.982  0.00  0.00    -0.491 OA
ATOM     17  C   UNL     1       1.786  -1.425   1.738  0.00  0.00    +0.277 C 
ENDBRANCH  15  16
BRANCH  14  18
ATOM     18  O   UNL     1       4.352   0.626   1.994  0.00  0.00    -0.491 OA
ATOM     19  C   UNL     1       5.728   1.010   1.941  0.00  0.00    +0.277 C 
ENDBRANCH  14  18
ENDBRANCH   7  10
BRANCH   1  20
ATOM     20  C   UNL     1      -0.096   0.617  -2.485  0.00  0.00    +0.339 C 
ATOM     21  O   UNL     1      -0.307  -0.565  -2.688  0.00  0.00    -0.245 OA
BRANCH  20  22
ATOM     22  O   UNL     1       0.670   1.322  -3.343  0.00  0.00    -0.462 OA
BRANCH  22  24
ATOM     23  C   UNL     1       2.057   1.559  -5.309  0.00  0.00    +0.048 C 
ATOM     24  C   UNL     1       1.108   0.649  -4.526  0.00  0.00    +0.229 C 
ENDBRANCH  22  24
ENDBRANCH  20  22
ENDBRANCH   1  20
BRANCH   2  25
ATOM     25  C   UNL     1      -2.242   2.420  -2.833  0.00  0.00    -0.026 C 
BRANCH  25  26
ATOM     26  N   UNL     1      -3.633   1.953  -2.904  0.00  0.00    +0.384 N 
ATOM     27  C   UNL     1      -3.703   0.490  -2.806  0.00  0.00    -0.075 C 
ATOM     28  C   UNL     1      -5.168   0.051  -2.736  0.00  0.00    -0.031 C 
ATOM     29  C   UNL     1      -5.900   0.533  -3.991  0.00  0.00    +0.003 C 
ATOM     30  C   UNL     1      -5.771   2.055  -4.095  0.00  0.00    -0.031 C 
ATOM     31  C   UNL     1      -4.289   2.436  -4.126  0.00  0.00    -0.075 C 
ATOM     32  C   UNL     1      -6.449   2.539  -5.379  0.00  0.00    +0.005 C 
ATOM     33  C   UNL     1      -5.825   0.660  -1.496  0.00  0.00    +0.005 C 
ATOM     34  H   UNL     1      -4.176   2.373  -2.044  0.00  0.00    -0.081 HD
ENDBRANCH  25  26
ENDBRANCH   2  25
TORSDOF 8
