REMARK  Name = ZINC59260074
REMARK  5 active torsions:
REMARK  status: ('A' for Active; 'I' for Inactive)
REMARK    1  A    between atoms: C_1  and  C_2
REMARK    2  A    between atoms: C_2  and  C_4
REMARK    3  A    between atoms: C_2  and  N_12
REMARK    4  A    between atoms: N_12  and  C_13
REMARK    5  A    between atoms: C_13  and  C_14
REMARK                            x       y       z     vdW  Elec       q    Type
REMARK                         _______ _______ _______ _____ _____    ______ ____
ROOT
ATOM      1  N   UNL     1       0.713  -0.491   1.192  0.00  0.00    +0.388 N 
ATOM      2  H   UNL     1       0.798  -1.495   1.145  0.00  0.00    -0.084 HD
ATOM      3  H   UNL     1       1.632  -0.076   1.228  0.00  0.00    -0.084 HD
ENDROOT
BRANCH   1   5
ATOM      4  C   UNL     1      -0.019   1.526   0.010  0.00  0.00    -0.006 C 
ATOM      5  C   UNL     1       0.002  -0.004   0.002  0.00  0.00    -0.005 C 
BRANCH   5   6
ATOM      6  C   UNL     1       0.707  -0.490  -1.238  0.00  0.00    +0.119 A 
ATOM      7  N   UNL     1       1.995  -0.478  -1.451  0.00  0.00    -0.136 NA
ATOM      8  N   UNL     1       2.246  -0.966  -2.613  0.00  0.00    -0.134 NA
ATOM      9  C   UNL     1       1.128  -1.310  -3.196  0.00  0.00    +0.133 A 
ATOM     10  N   UNL     1       0.123  -1.026  -2.338  0.00  0.00    -0.316 N 
ATOM     11  C   UNL     1      -1.179  -1.395  -2.906  0.00  0.00    +0.125 C 
ATOM     12  C   UNL     1      -0.937  -1.564  -4.422  0.00  0.00    +0.029 C 
ATOM     13  C   UNL     1       0.567  -1.908  -4.468  0.00  0.00    +0.078 C 
ENDBRANCH   5   6
ENDBRANCH   1   5
BRANCH   1  14
ATOM     14  C   UNL     1      -0.040  -0.119   2.398  0.00  0.00    -0.046 C 
BRANCH  14  15
ATOM     15  C   UNL     1       0.689  -0.618   3.619  0.00  0.00    -0.060 A 
ATOM     16  C   UNL     1       0.420  -1.881   4.114  0.00  0.00    +0.051 A 
ATOM     17  C   UNL     1       1.089  -2.342   5.236  0.00  0.00    +0.168 A 
ATOM     18  C   UNL     1       2.032  -1.531   5.864  0.00  0.00    +0.180 A 
ATOM     19  C   UNL     1       2.296  -0.267   5.362  0.00  0.00    +0.063 A 
ATOM     20  C   UNL     1       1.628   0.185   4.237  0.00  0.00    +0.021 A 
ATOM     21 BR   UNL     1       3.575   0.838   6.210  0.00  0.00    -0.046 Br
ATOM     22  O   UNL     1       2.545  -2.206   6.934  0.00  0.00    -0.451 OA
ATOM     23  C   UNL     1       1.615  -3.274   7.196  0.00  0.00    +0.466 C 
ATOM     24  O   UNL     1       1.012  -3.525   5.913  0.00  0.00    -0.453 OA
ENDBRANCH  14  15
ENDBRANCH   1  14
TORSDOF 4
