REMARK  Name = ZINC63383558
REMARK  10 active torsions:
REMARK  status: ('A' for Active; 'I' for Inactive)
REMARK    1  A    between atoms: C_1  and  C_2
REMARK    2  A    between atoms: C_2  and  C_3
REMARK    3  A    between atoms: C_2  and  C_4
REMARK    4  A    between atoms: C_4  and  C_6
REMARK    5  A    between atoms: C_4  and  N_13
REMARK    6  A    between atoms: N_8  and  C_9
REMARK    7  A    between atoms: C_9  and  C_10
REMARK    8  A    between atoms: C_10  and  O_11
REMARK    9  A    between atoms: O_11  and  C_12
REMARK   10  A    between atoms: C_14  and  C_16
REMARK                            x       y       z     vdW  Elec       q    Type
REMARK                         _______ _______ _______ _____ _____    ______ ____
ROOT
ATOM      1  C   UNL     1       3.801   1.741   1.718  0.00  0.00    +0.167 C 
ATOM      2  C   UNL     1       4.679   0.880   2.647  0.00  0.00    +0.065 C 
ATOM      3  C   UNL     1       5.929   1.674   2.936  0.00  0.00    -0.034 C 
ATOM      4  C   UNL     1       7.211   1.350   2.805  0.00  0.00    -0.001 A 
ATOM      5  C   UNL     1       7.867   0.086   2.433  0.00  0.00    +0.010 A 
ATOM      6  C   UNL     1       9.225   0.110   2.377  0.00  0.00    +0.001 A 
ATOM      7  C   UNL     1       9.986   1.250   2.651  0.00  0.00    +0.002 A 
ATOM      8  C   UNL     1       9.467   2.452   3.009  0.00  0.00    +0.026 A 
ATOM      9  C   UNL     1       8.049   2.549   3.110  0.00  0.00    +0.043 A 
ATOM     10  N   UNL     1       7.296   3.554   3.449  0.00  0.00    -0.375 N 
ATOM     11  C   UNL     1       5.902   3.107   3.453  0.00  0.00    +0.131 C 
ATOM     12  C   UNL     1       5.048   3.910   2.465  0.00  0.00    +0.134 C 
ATOM     13  N   UNL     1       3.821   3.125   2.209  0.00  0.00    -0.276 N 
ATOM     14  C   UNL     1       2.752   3.884   2.511  0.00  0.00    +0.248 C 
ATOM     15  O   UNL     1       1.595   3.559   2.331  0.00  0.00    -0.270 OA
ATOM     16  C   UNL     1       3.185   5.158   3.087  0.00  0.00    +0.042 A 
ATOM     17  C   UNL     1       4.615   5.208   3.067  0.00  0.00    -0.013 A 
ATOM     18  C   UNL     1       5.330   6.285   3.539  0.00  0.00    +0.006 A 
ATOM     19  C   UNL     1       4.600   7.359   4.040  0.00  0.00    +0.000 A 
ATOM     20  C   UNL     1       3.219   7.351   4.065  0.00  0.00    +0.001 A 
ATOM     21  C   UNL     1       2.445   6.230   3.592  0.00  0.00    +0.013 A 
ATOM     22  H   UNL     1       7.606   4.447   3.663  0.00  0.00    +0.160 HD
ENDROOT
BRANCH   1  24
ATOM     23  N   UNL     1       1.641   1.317   2.847  0.00  0.00    -0.302 N 
ATOM     24  C   UNL     1       2.387   1.219   1.728  0.00  0.00    +0.235 C 
ATOM     25  O   UNL     1       1.921   0.711   0.731  0.00  0.00    -0.274 OA
ATOM     26  H   UNL     1       2.014   1.724   3.644  0.00  0.00    +0.150 HD
BRANCH  23  27
ATOM     27  C   UNL     1       0.267   0.810   2.857  0.00  0.00    +0.161 C 
BRANCH  27  28
ATOM     28  C   UNL     1      -0.529   1.539   3.909  0.00  0.00    +0.234 C 
ATOM     29  O   UNL     1      -0.001   2.397   4.583  0.00  0.00    -0.274 OA
ATOM     30  N   UNL     1      -1.829   1.237   4.100  0.00  0.00    -0.312 N 
ATOM     31  H   UNL     1      -2.252   0.550   3.560  0.00  0.00    +0.149 HD
BRANCH  30  32
ATOM     32  C   UNL     1      -2.603   1.945   5.122  0.00  0.00    +0.132 C 
BRANCH  32  33
ATOM     33  C   UNL     1      -4.038   1.415   5.133  0.00  0.00    +0.178 C 
BRANCH  33  34
ATOM     34  O   UNL     1      -4.038   0.046   5.541  0.00  0.00    -0.381 OA
ATOM     35  C   UNL     1      -5.337  -0.548   5.585  0.00  0.00    +0.194 C 
ENDBRANCH  33  34
ENDBRANCH  32  33
ENDBRANCH  30  32
ENDBRANCH  27  28
BRANCH  27  37
ATOM     36  C   UNL     1       1.087  -1.427   2.104  0.00  0.00    +0.009 C 
ATOM     37  C   UNL     1       0.278  -0.687   3.172  0.00  0.00    +0.012 C 
ATOM     38  C   UNL     1       0.916  -0.915   4.544  0.00  0.00    +0.009 C 
ENDBRANCH  27  37
ENDBRANCH  23  27
ENDBRANCH   1  24
TORSDOF 7
