REMARK  Name = ZINC09159773
REMARK  8 active torsions:
REMARK  status: ('A' for Active; 'I' for Inactive)
REMARK    1  A    between atoms: C_1  and  O_2
REMARK    2  A    between atoms: O_2  and  C_3
REMARK    3  A    between atoms: C_6  and  C_11
REMARK    4  A    between atoms: C_8  and  O_9
REMARK    5  A    between atoms: O_9  and  C_10
REMARK    6  A    between atoms: C_28  and  C_33
REMARK    7  A    between atoms: C_33  and  O_34
REMARK    8  A    between atoms: O_34  and  C_35
REMARK                            x       y       z     vdW  Elec       q    Type
REMARK                         _______ _______ _______ _____ _____    ______ ____
ROOT
ATOM      1  C   UNL     1       1.232  -2.185  -0.006  0.00  0.00    +0.092 C 
ATOM      2  C   UNL     1      -0.099  -2.748   0.417  0.00  0.00    +0.015 A 
ATOM      3  C   UNL     1      -0.181  -4.089   0.833  0.00  0.00    -0.010 A 
ATOM      4  C   UNL     1       0.959  -4.912   0.857  0.00  0.00    +0.009 A 
ATOM      5  C   UNL     1       0.845  -6.207   1.262  0.00  0.00    +0.001 A 
ATOM      6  C   UNL     1      -0.386  -6.730   1.655  0.00  0.00    +0.001 A 
ATOM      7  C   UNL     1      -1.509  -5.962   1.646  0.00  0.00    +0.008 A 
ATOM      8  C   UNL     1      -1.431  -4.622   1.232  0.00  0.00    -0.017 A 
ATOM      9  C   UNL     1      -2.569  -3.797   1.207  0.00  0.00    +0.012 A 
ATOM     10  C   UNL     1      -2.457  -2.506   0.800  0.00  0.00    +0.047 A 
ATOM     11  C   UNL     1      -1.221  -1.973   0.401  0.00  0.00    +0.135 A 
ATOM     12  O   UNL     1      -1.170  -0.679   0.001  0.00  0.00    -0.437 OA
ATOM     13  C   UNL     1       0.002  -0.004   0.002  0.00  0.00    +0.230 A 
ATOM     14  C   UNL     1       1.189  -0.689  -0.006  0.00  0.00    +0.070 A 
ATOM     15  C   UNL     1       2.363   0.080  -0.016  0.00  0.00    +0.167 A 
ATOM     16  N   UNL     1       3.637  -0.231  -0.031  0.00  0.00    -0.207 NA
ATOM     17  C   UNL     1       4.367   0.882  -0.036  0.00  0.00    +0.189 A 
ATOM     18  N   UNL     1       3.576   1.934  -0.025  0.00  0.00    -0.145 NA
ATOM     19  N   UNL     1       2.272   1.460  -0.011  0.00  0.00    -0.201 N 
ATOM     20  C   UNL     1       1.065   2.079   0.003  0.00  0.00    +0.229 A 
ATOM     21  N   UNL     1      -0.016   1.338   0.009  0.00  0.00    -0.201 NA
ENDROOT
BRANCH   1  25
ATOM     22  C   UNL     1       2.163  -3.570  -3.944  0.00  0.00    +0.162 A 
ATOM     23  C   UNL     1       1.018  -2.823  -3.722  0.00  0.00    +0.050 A 
ATOM     24  C   UNL     1       0.719  -2.377  -2.448  0.00  0.00    +0.008 A 
ATOM     25  C   UNL     1       1.562  -2.674  -1.393  0.00  0.00    -0.032 A 
ATOM     26  C   UNL     1       2.710  -3.414  -1.609  0.00  0.00    +0.054 A 
ATOM     27  C   UNL     1       3.012  -3.869  -2.882  0.00  0.00    +0.162 A 
BRANCH  22  29
ATOM     28  C   UNL     1       1.542  -3.665  -6.238  0.00  0.00    +0.277 C 
ATOM     29  O   UNL     1       2.458  -4.010  -5.197  0.00  0.00    -0.491 OA
ENDBRANCH  22  29
BRANCH  27  30
ATOM     30  O   UNL     1       4.137  -4.602  -3.095  0.00  0.00    -0.491 OA
ATOM     31  C   UNL     1       4.961  -4.871  -1.959  0.00  0.00    +0.277 C 
ENDBRANCH  27  30
ENDBRANCH   1  25
BRANCH  17  32
ATOM     32  C   UNL     1       5.874   0.931  -0.053  0.00  0.00    +0.306 C 
BRANCH  32  33
ATOM     33  O   UNL     1       6.334   0.950  -1.406  0.00  0.00    -0.484 OA
BRANCH  33  34
ATOM     34  C   UNL     1       7.679   0.994  -1.599  0.00  0.00    +0.121 A 
ATOM     35  C   UNL     1       8.537   1.024  -0.509  0.00  0.00    +0.045 A 
ATOM     36  C   UNL     1       9.903   1.063  -0.709  0.00  0.00    +0.004 A 
ATOM     37  C   UNL     1      10.415   1.084  -1.993  0.00  0.00    +0.000 A 
ATOM     38  C   UNL     1       9.562   1.060  -3.081  0.00  0.00    +0.004 A 
ATOM     39  C   UNL     1       8.195   1.015  -2.887  0.00  0.00    +0.045 A 
ENDBRANCH  33  34
ENDBRANCH  32  33
ENDBRANCH  17  32
TORSDOF 6
