REMARK  Name = ZINC27569978
REMARK  5 active torsions:
REMARK  status: ('A' for Active; 'I' for Inactive)
REMARK    1  A    between atoms: C_1  and  C_2
REMARK    2  A    between atoms: C_5  and  C_19
REMARK    3  A    between atoms: C_7  and  C_10
REMARK    4  A    between atoms: C_13  and  N_16
REMARK    5  A    between atoms: N_21  and  C_22
REMARK                            x       y       z     vdW  Elec       q    Type
REMARK                         _______ _______ _______ _____ _____    ______ ____
ROOT
ATOM      1  C   UNL     1       0.748   1.442  -1.013  0.00  0.00    +0.039 C 
ATOM      2  C   UNL     1       0.530   0.055  -0.464  0.00  0.00    -0.076 C 
ATOM      3  C   UNL     1       1.563  -0.597  -0.036  0.00  0.00    -0.027 C 
ATOM      4  C   UNL     1       1.506  -1.986   0.528  0.00  0.00    +0.040 C 
ATOM      5  C   UNL     1       0.068  -2.340   0.913  0.00  0.00    +0.087 C 
ATOM      6  C   UNL     1      -0.848  -2.004  -0.270  0.00  0.00    +0.035 C 
ATOM      7  C   UNL     1      -0.871  -0.482  -0.443  0.00  0.00    +0.039 C 
ENDROOT
BRANCH   6   8
ATOM      8  C   UNL     1      -2.243  -2.501   0.011  0.00  0.00    -0.043 A 
ATOM      9  C   UNL     1      -2.752  -3.570  -0.702  0.00  0.00    +0.006 A 
ATOM     10  C   UNL     1      -4.030  -4.029  -0.441  0.00  0.00    +0.033 A 
ATOM     11  C   UNL     1      -4.801  -3.413   0.527  0.00  0.00    +0.126 A 
ATOM     12  C   UNL     1      -4.293  -2.341   1.237  0.00  0.00    +0.033 A 
ATOM     13  C   UNL     1      -3.014  -1.885   0.979  0.00  0.00    +0.006 A 
BRANCH  11  14
ATOM     14  N   UNL     1      -6.171  -3.901   0.803  0.00  0.00    +0.056 N 
ATOM     15  O   UNL     1      -6.850  -3.359   1.655  0.00  0.00    -0.126 OA
ATOM     16  O   UNL     1      -6.618  -4.846   0.177  0.00  0.00    -0.126 OA
ENDBRANCH  11  14
ENDBRANCH   6   8
BRANCH   5  17
ATOM     17  C   UNL     1      -0.346  -1.537   2.119  0.00  0.00    +0.221 C 
ATOM     18  O   UNL     1       0.018  -0.385   2.234  0.00  0.00    -0.275 OA
ATOM     19  N   UNL     1      -1.119  -2.098   3.069  0.00  0.00    -0.285 N 
ATOM     20  H   UNL     1      -1.397  -3.159   2.997  0.00  0.00    +0.155 HD
BRANCH  19  21
ATOM     21  C   UNL     1      -1.569  -1.329   4.149  0.00  0.00    +0.033 A 
ATOM     22  C   UNL     1      -0.754  -0.341   4.687  0.00  0.00    +0.024 A 
ATOM     23  C   UNL     1      -1.202   0.419   5.750  0.00  0.00    +0.017 A 
ATOM     24  C   UNL     1      -2.458   0.190   6.284  0.00  0.00    +0.018 A 
ATOM     25  C   UNL     1      -3.269  -0.796   5.754  0.00  0.00    +0.017 A 
ATOM     26  C   UNL     1      -2.828  -1.556   4.688  0.00  0.00    +0.024 A 
ATOM     27 BR   UNL     1      -3.065   1.228   7.744  0.00  0.00    -0.050 Br
ENDBRANCH  19  21
ENDBRANCH   5  17
TORSDOF 4
