REMARK  Name = ZINC08809572
REMARK  11 active torsions:
REMARK  status: ('A' for Active; 'I' for Inactive)
REMARK    1  A    between atoms: C_1  and  C_2
REMARK    2  A    between atoms: C_2  and  O_3
REMARK    3  A    between atoms: O_3  and  C_4
REMARK    4  A    between atoms: C_4  and  C_6
REMARK    5  A    between atoms: C_7  and  C_23
REMARK    6  A    between atoms: C_9  and  N_22
REMARK    7  A    between atoms: C_10  and  C_20
REMARK    8  A    between atoms: C_11  and  C_13
REMARK    9  A    between atoms: C_23  and  S_24
REMARK   10  A    between atoms: S_24  and  C_25
REMARK   11  A    between atoms: C_26  and  C_37
REMARK                            x       y       z     vdW  Elec       q    Type
REMARK                         _______ _______ _______ _____ _____    ______ ____
ROOT
ATOM      1  C   UNL     1       1.212   1.929  -0.110  0.00  0.00    +0.088 C 
ATOM      2  C   UNL     1       2.363   1.276   0.088  0.00  0.00    +0.128 C 
ATOM      3  O   UNL     1       3.538   1.912   0.199  0.00  0.00    -0.444 OA
ATOM      4  C   UNL     1       3.652   3.171  -0.259  0.00  0.00    +0.198 C 
ATOM      5  C   UNL     1       2.567   3.951  -0.480  0.00  0.00    +0.098 C 
ATOM      6  C   UNL     1       1.180   3.429  -0.228  0.00  0.00    +0.107 C 
ENDROOT
BRANCH   6   7
ATOM      7  C   UNL     1       0.653   4.021   1.054  0.00  0.00    +0.001 A 
ATOM      8  C   UNL     1       1.313   3.788   2.246  0.00  0.00    +0.007 A 
ATOM      9  C   UNL     1       0.833   4.336   3.421  0.00  0.00    +0.000 A 
ATOM     10  C   UNL     1      -0.314   5.107   3.407  0.00  0.00    +0.003 A 
ATOM     11  C   UNL     1      -0.979   5.337   2.217  0.00  0.00    +0.038 A 
ATOM     12  C   UNL     1      -0.496   4.793   1.039  0.00  0.00    +0.127 A 
ATOM     13  F   UNL     1      -1.145   5.017  -0.125  0.00  0.00    -0.205 F 
ENDBRANCH   6   7
BRANCH   4  14
ATOM     14  N   UNL     1       4.902   3.680  -0.508  0.00  0.00    -0.328 N 
ATOM     15  H   UNL     1       5.689   3.134  -0.353  0.00  0.00    +0.145 HD
ATOM     16  H   UNL     1       5.000   4.587  -0.838  0.00  0.00    +0.145 HD
ENDBRANCH   4  14
BRANCH   1  17
ATOM     17  C   UNL     1       0.004   1.197  -0.217  0.00  0.00    +0.339 C 
ATOM     18  O   UNL     1      -0.473   0.968  -1.312  0.00  0.00    -0.245 OA
BRANCH  17  19
ATOM     19  O   UNL     1      -0.619   0.757   0.896  0.00  0.00    -0.462 OA
BRANCH  19  21
ATOM     20  C   UNL     1      -2.392  -0.383   2.079  0.00  0.00    +0.048 C 
ATOM     21  C   UNL     1      -1.835   0.030   0.714  0.00  0.00    +0.229 C 
ENDBRANCH  19  21
ENDBRANCH  17  19
ENDBRANCH   1  17
BRANCH   5  22
ATOM     22  C   UNL     1       2.742   5.287  -0.966  0.00  0.00    +0.101 C 
ATOM     23  N   UNL     1       2.881   6.346  -1.352  0.00  0.00    -0.191 NA
ENDBRANCH   5  22
BRANCH   2  24
ATOM     24  C   UNL     1       2.338  -0.228   0.190  0.00  0.00    +0.150 C 
BRANCH  24  25
ATOM     25  S   UNL     1       2.968  -0.948  -1.346  0.00  0.00    -0.097 S 
BRANCH  25  26
ATOM     26  C   UNL     1       2.830  -2.662  -0.960  0.00  0.00    +0.115 A 
ATOM     27  C   UNL     1       3.224  -3.624  -1.907  0.00  0.00    +0.084 A 
ATOM     28  C   UNL     1       3.110  -4.981  -1.578  0.00  0.00    +0.027 A 
ATOM     29  C   UNL     1       2.610  -5.308  -0.335  0.00  0.00    -0.025 A 
ATOM     30  C   UNL     1       2.237  -4.302   0.545  0.00  0.00    +0.046 A 
ATOM     31  N   UNL     1       2.361  -3.033   0.223  0.00  0.00    -0.244 NA
ATOM     32  C   UNL     1       1.688  -4.731   1.881  0.00  0.00    +0.056 C 
ATOM     33  C   UNL     1       2.765  -5.044   2.868  0.00  0.00    +0.006 C 
ATOM     34  C   UNL     1       3.457  -6.389   2.772  0.00  0.00    +0.000 C 
ATOM     35  C   UNL     1       4.446  -6.402   1.593  0.00  0.00    +0.000 C 
ATOM     36  C   UNL     1       3.837  -7.290   0.474  0.00  0.00    +0.005 C 
ATOM     37  C   UNL     1       2.461  -6.741   0.103  0.00  0.00    +0.037 C 
BRANCH  27  38
ATOM     38  C   UNL     1       3.733  -3.224  -3.183  0.00  0.00    +0.102 C 
ATOM     39  N   UNL     1       4.137  -2.906  -4.197  0.00  0.00    -0.191 NA
ENDBRANCH  27  38
ENDBRANCH  25  26
ENDBRANCH  24  25
ENDBRANCH   2  24
TORSDOF 10
