REMARK  Name = ZINC01126152
REMARK  7 active torsions:
REMARK  status: ('A' for Active; 'I' for Inactive)
REMARK    1  A    between atoms: C_4  and  C_7
REMARK    2  A    between atoms: C_7  and  C_8
REMARK    3  A    between atoms: C_8  and  C_9
REMARK    4  A    between atoms: N_11  and  C_12
REMARK    5  A    between atoms: C_12  and  N_14
REMARK    6  A    between atoms: N_14  and  C_15
REMARK    7  A    between atoms: C_18  and  C_21
REMARK                            x       y       z     vdW  Elec       q    Type
REMARK                         _______ _______ _______ _____ _____    ______ ____
ROOT
ATOM      1  N   UNL     1      -4.677   4.491   0.049  0.00  0.00    -0.297 N 
ATOM      2  H   UNL     1      -5.549   4.074  -0.029  0.00  0.00    +0.154 HD
ENDROOT
BRANCH   1   3
ATOM      3  C   UNL     1      -3.525   3.703   0.051  0.00  0.00    +0.033 A 
ATOM      4  C   UNL     1      -3.412   2.637  -0.836  0.00  0.00    +0.024 A 
ATOM      5  C   UNL     1      -2.276   1.857  -0.837  0.00  0.00    +0.013 A 
ATOM      6  C   UNL     1      -1.238   2.138   0.053  0.00  0.00    +0.017 A 
ATOM      7  C   UNL     1      -1.356   3.205   0.946  0.00  0.00    +0.013 A 
ATOM      8  C   UNL     1      -2.492   3.984   0.939  0.00  0.00    +0.024 A 
BRANCH   6   9
ATOM      9  C   UNL     1      -0.018   1.303   0.055  0.00  0.00    +0.139 A 
ATOM     10  N   UNL     1       1.062   1.488   0.876  0.00  0.00    -0.338 N 
ATOM     11  H   UNL     1       1.162   2.198   1.574  0.00  0.00    +0.167 HD
ATOM     12  C   UNL     1       1.986   0.511   0.562  0.00  0.00    +0.066 A 
ATOM     13  C   UNL     1       3.249   0.189   1.040  0.00  0.00    +0.028 A 
ATOM     14  C   UNL     1       3.933  -0.878   0.499  0.00  0.00    +0.002 A 
ATOM     15  C   UNL     1       3.369  -1.633  -0.520  0.00  0.00    +0.002 A 
ATOM     16  C   UNL     1       2.127  -1.332  -1.004  0.00  0.00    +0.030 A 
ATOM     17  C   UNL     1       1.414  -0.254  -0.470  0.00  0.00    +0.089 A 
ATOM     18  N   UNL     1       0.195   0.278  -0.734  0.00  0.00    -0.228 NA
ENDBRANCH   6   9
ENDBRANCH   1   3
BRANCH   1  19
ATOM     19  C   UNL     1      -4.577   5.831   0.157  0.00  0.00    +0.141 C 
ATOM     20  S   UNL     1      -3.036   6.577   0.153  0.00  0.00    -0.018 S 
BRANCH  19  23
ATOM     21  C   UNL     1      -5.590   7.922   0.376  0.00  0.00    +0.219 C 
ATOM     22  O   UNL     1      -4.498   8.451   0.374  0.00  0.00    -0.275 OA
ATOM     23  N   UNL     1      -5.690   6.583   0.268  0.00  0.00    -0.268 N 
ATOM     24  H   UNL     1      -6.563   6.160   0.271  0.00  0.00    +0.156 HD
BRANCH  21  25
ATOM     25  C   UNL     1      -6.834   8.763   0.501  0.00  0.00    +0.101 C 
BRANCH  25  26
ATOM     26  C   UNL     1      -6.444  10.239   0.608  0.00  0.00    +0.044 C 
BRANCH  26  30
ATOM     27  C   UNL     1      -9.971  12.623   0.960  0.00  0.00    +0.000 A 
ATOM     28  C   UNL     1      -9.349  12.137   2.094  0.00  0.00    +0.000 A 
ATOM     29  C   UNL     1      -8.208  11.366   1.980  0.00  0.00    +0.003 A 
ATOM     30  C   UNL     1      -7.688  11.080   0.732  0.00  0.00    -0.047 A 
ATOM     31  C   UNL     1      -8.307  11.570  -0.403  0.00  0.00    +0.003 A 
ATOM     32  C   UNL     1      -9.451  12.337  -0.289  0.00  0.00    +0.000 A 
ENDBRANCH  26  30
ENDBRANCH  25  26
ENDBRANCH  21  25
ENDBRANCH  19  23
ENDBRANCH   1  19
TORSDOF 7
