REMARK  Name = ZINC39843390
REMARK  7 active torsions:
REMARK  status: ('A' for Active; 'I' for Inactive)
REMARK    1  A    between atoms: C_1  and  C_2
REMARK    2  A    between atoms: C_5  and  N_8
REMARK    3  A    between atoms: C_9  and  C_11
REMARK    4  A    between atoms: C_11  and  C_12
REMARK    5  A    between atoms: N_18  and  N_19
REMARK    6  A    between atoms: C_20  and  C_21
REMARK    7  A    between atoms: C_24  and  N_27
REMARK                            x       y       z     vdW  Elec       q    Type
REMARK                         _______ _______ _______ _____ _____    ______ ____
ROOT
ATOM      1  C   UNL     1       0.424  -6.867   2.557  0.00  0.00    +0.149 C 
ATOM      2  C   UNL     1       0.586  -8.380   2.588  0.00  0.00    +0.233 C 
ATOM      3  O   UNL     1       1.528  -8.963   2.096  0.00  0.00    -0.274 OA
ATOM      4  N   UNL     1      -0.410  -8.995   3.211  0.00  0.00    -0.263 N 
ATOM      5  C   UNL     1      -1.455  -8.331   3.756  0.00  0.00    +0.183 C 
ATOM      6  N   UNL     1      -2.524  -8.873   4.415  0.00  0.00    -0.127 NA
ATOM      7  S   UNL     1      -1.169  -6.699   3.458  0.00  0.00    -0.075 S 
ATOM      8  H   UNL     1      -0.390  -9.963   3.277  0.00  0.00    +0.157 HD
ENDROOT
BRANCH   6   9
ATOM      9  N   UNL     1      -2.607 -10.152   4.567  0.00  0.00    -0.155 NA
ATOM     10  C   UNL     1      -3.663 -10.688   5.218  0.00  0.00    +0.143 C 
BRANCH  10  11
ATOM     11  C   UNL     1      -3.753 -12.076   5.383  0.00  0.00    -0.005 A 
ATOM     12  C   UNL     1      -2.738 -12.923   4.876  0.00  0.00    +0.012 A 
ATOM     13  C   UNL     1      -2.838 -14.273   5.045  0.00  0.00    +0.033 A 
ATOM     14  C   UNL     1      -3.930 -14.818   5.710  0.00  0.00    +0.126 A 
ATOM     15  C   UNL     1      -4.934 -13.999   6.213  0.00  0.00    +0.033 A 
ATOM     16  C   UNL     1      -4.857 -12.645   6.064  0.00  0.00    +0.012 A 
BRANCH  14  17
ATOM     17  N   UNL     1      -4.025 -16.285   5.885  0.00  0.00    +0.056 N 
ATOM     18  O   UNL     1      -3.077 -17.067   5.411  0.00  0.00    -0.126 OA
ATOM     19  O   UNL     1      -5.057 -16.808   6.514  0.00  0.00    -0.126 OA
ENDBRANCH  14  17
ENDBRANCH  10  11
ENDBRANCH   6   9
BRANCH   1  20
ATOM     20  C   UNL     1       0.309  -6.349   1.121  0.00  0.00    +0.120 C 
BRANCH  20  22
ATOM     21  N   UNL     1       0.059  -4.170  -0.021  0.00  0.00    -0.285 N 
ATOM     22  C   UNL     1       0.175  -4.848   1.138  0.00  0.00    +0.219 C 
ATOM     23  O   UNL     1       0.173  -4.251   2.193  0.00  0.00    -0.275 OA
ATOM     24  H   UNL     1      -0.017  -4.651  -0.860  0.00  0.00    +0.155 HD
BRANCH  21  29
ATOM     25  C   UNL     1       0.008   1.503   0.007  0.00  0.00    +0.044 C 
ATOM     26  C   UNL     1       0.022  -0.004  -0.001  0.00  0.00    -0.050 A 
ATOM     27  C   UNL     1       0.777  -0.692   0.931  0.00  0.00    +0.005 A 
ATOM     28  C   UNL     1       0.791  -2.073   0.927  0.00  0.00    +0.023 A 
ATOM     29  C   UNL     1       0.046  -2.771  -0.014  0.00  0.00    +0.033 A 
ATOM     30  C   UNL     1      -0.712  -2.077  -0.948  0.00  0.00    +0.023 A 
ATOM     31  C   UNL     1      -0.726  -0.696  -0.936  0.00  0.00    +0.005 A 
ENDBRANCH  21  29
ENDBRANCH  20  22
ENDBRANCH   1  20
TORSDOF 6
