REMARK  Name = ZINC22111345
REMARK  5 active torsions:
REMARK  status: ('A' for Active; 'I' for Inactive)
REMARK    1  A    between atoms: C_4  and  C_7
REMARK    2  A    between atoms: N_11  and  N_12
REMARK    3  A    between atoms: N_12  and  C_13
REMARK    4  A    between atoms: C_13  and  C_14
REMARK    5  A    between atoms: C_17  and  C_19
REMARK                            x       y       z     vdW  Elec       q    Type
REMARK                         _______ _______ _______ _____ _____    ______ ____
ROOT
ATOM      1  N   UNL     1       0.002  -0.004   0.002  0.00  0.00    -0.274 N 
ATOM      2  H   UNL     1       0.432  -0.686  -0.746  0.00  0.00    +0.167 HD
ENDROOT
BRANCH   1   7
ATOM      3  C   UNL     1       1.068   2.208   0.004  0.00  0.00    +0.180 A 
ATOM      4  N   UNL     1       0.601   3.434   0.014  0.00  0.00    -0.152 NA
ATOM      5  N   UNL     1      -0.684   3.414   0.026  0.00  0.00    -0.253 N 
ATOM      6  C   UNL     1      -1.116   2.172   0.018  0.00  0.00    +0.193 A 
ATOM      7  N   UNL     1      -0.016   1.362   0.009  0.00  0.00    -0.222 N 
ATOM      8  S   UNL     1      -2.799   1.650   0.023  0.00  0.00    -0.010 S 
ATOM      9  H   UNL     1      -1.249   4.357   0.039  0.00  0.00    +0.191 HD
BRANCH   3  13
ATOM     10  C   UNL     1       5.160   1.067  -0.038  0.00  0.00    +0.000 A 
ATOM     11  C   UNL     1       4.805   2.370  -0.340  0.00  0.00    +0.001 A 
ATOM     12  C   UNL     1       3.478   2.747  -0.328  0.00  0.00    +0.011 A 
ATOM     13  C   UNL     1       2.492   1.811  -0.011  0.00  0.00    +0.021 A 
ATOM     14  C   UNL     1       2.858   0.499   0.297  0.00  0.00    +0.011 A 
ATOM     15  C   UNL     1       4.188   0.134   0.277  0.00  0.00    +0.001 A 
ENDBRANCH   3  13
ENDBRANCH   1   7
BRANCH   1  16
ATOM     16  C   UNL     1      -0.665  -0.546   1.193  0.00  0.00    +0.195 C 
BRANCH  16  17
ATOM     17  C   UNL     1      -0.625  -2.052   1.150  0.00  0.00    +0.124 A 
ATOM     18  C   UNL     1       0.352  -2.827   1.661  0.00  0.00    +0.047 A 
ATOM     19  C   UNL     1      -0.007  -4.165   1.406  0.00  0.00    +0.050 A 
ATOM     20  C   UNL     1      -1.191  -4.133   0.739  0.00  0.00    +0.137 A 
ATOM     21  O   UNL     1      -1.554  -2.844   0.590  0.00  0.00    -0.458 OA
BRANCH  20  22
ATOM     22  C   UNL     1      -1.949  -5.308   0.260  0.00  0.00    +0.037 A 
ATOM     23  C   UNL     1      -3.309  -5.430   0.549  0.00  0.00    +0.033 A 
ATOM     24  C   UNL     1      -4.012  -6.530   0.098  0.00  0.00    +0.042 A 
ATOM     25  C   UNL     1      -3.369  -7.511  -0.640  0.00  0.00    +0.021 A 
ATOM     26  C   UNL     1      -2.022  -7.395  -0.930  0.00  0.00    +0.022 A 
ATOM     27  C   UNL     1      -1.309  -6.298  -0.489  0.00  0.00    +0.052 A 
ATOM     28 CL   UNL     1       0.380  -6.152  -0.861  0.00  0.00    -0.083 Cl
ATOM     29 CL   UNL     1      -5.703  -6.684   0.456  0.00  0.00    -0.084 Cl
ENDBRANCH  20  22
ENDBRANCH  16  17
ENDBRANCH   1  16
TORSDOF 5
