REMARK  Name = ZINC13567724
REMARK  4 active torsions:
REMARK  status: ('A' for Active; 'I' for Inactive)
REMARK    1  A    between atoms: C_1  and  N_2
REMARK    2  A    between atoms: C_12  and  C_31
REMARK    3  A    between atoms: C_13  and  N_30
REMARK    4  A    between atoms: N_14  and  C_22
REMARK                            x       y       z     vdW  Elec       q    Type
REMARK                         _______ _______ _______ _____ _____    ______ ____
ROOT
ATOM      1  C   UNL     1      -3.088  -1.959   0.750  0.00  0.00    +0.138 C 
ATOM      2  N   UNL     1      -1.916  -1.269   0.203  0.00  0.00    -0.273 N 
ATOM      3  C   UNL     1      -1.561  -1.290  -1.133  0.00  0.00    +0.041 A 
ATOM      4  C   UNL     1      -2.185  -1.927  -2.207  0.00  0.00    +0.024 A 
ATOM      5  C   UNL     1      -1.605  -1.778  -3.457  0.00  0.00    +0.002 A 
ATOM      6  C   UNL     1      -0.459  -1.032  -3.646  0.00  0.00    +0.000 A 
ATOM      7  C   UNL     1       0.173  -0.393  -2.585  0.00  0.00    +0.007 A 
ATOM      8  C   UNL     1      -0.398  -0.538  -1.339  0.00  0.00    -0.001 A 
ATOM      9  C   UNL     1       0.002  -0.004   0.002  0.00  0.00    +0.141 C 
ATOM     10  C   UNL     1      -1.057  -0.540   0.945  0.00  0.00    +0.240 C 
ATOM     11  O   UNL     1      -1.120  -0.349   2.141  0.00  0.00    -0.274 OA
ATOM     12  C   UNL     1      -0.018   1.495   0.010  0.00  0.00    +0.089 C 
ATOM     13  C   UNL     1       1.138   2.209   0.003  0.00  0.00    +0.108 C 
ATOM     14  N   UNL     1       2.351   1.560  -0.005  0.00  0.00    -0.259 N 
ATOM     15  C   UNL     1       2.445   0.249   0.381  0.00  0.00    +0.025 C 
ATOM     16  C   UNL     1       1.351  -0.543   0.401  0.00  0.00    +0.037 C 
ATOM     17  C   UNL     1       1.439  -1.891   0.789  0.00  0.00    +0.162 C 
ATOM     18  O   UNL     1       0.433  -2.573   0.809  0.00  0.00    -0.292 OA
ATOM     19  C   UNL     1       2.755  -2.506   1.181  0.00  0.00    +0.080 C 
ATOM     20  C   UNL     1       3.885  -1.774   0.449  0.00  0.00    +0.014 C 
ATOM     21  C   UNL     1       3.797  -0.284   0.788  0.00  0.00    +0.052 C 
ENDROOT
BRANCH  14  22
ATOM     22  C   UNL     1       3.502   2.246  -0.414  0.00  0.00    +0.058 A 
ATOM     23  C   UNL     1       3.878   2.238  -1.750  0.00  0.00    +0.027 A 
ATOM     24  C   UNL     1       5.013   2.916  -2.151  0.00  0.00    +0.022 A 
ATOM     25  C   UNL     1       5.775   3.602  -1.222  0.00  0.00    +0.042 A 
ATOM     26  C   UNL     1       5.403   3.612   0.111  0.00  0.00    +0.042 A 
ATOM     27  C   UNL     1       4.265   2.940   0.516  0.00  0.00    +0.064 A 
ATOM     28 CL   UNL     1       3.794   2.958   2.187  0.00  0.00    -0.082 Cl
ATOM     29 CL   UNL     1       7.201   4.452  -1.729  0.00  0.00    -0.083 Cl
ENDBRANCH  14  22
BRANCH  13  30
ATOM     30  N   UNL     1       1.095   3.583   0.004  0.00  0.00    -0.345 N 
ATOM     31  H   UNL     1       0.240   4.042   0.010  0.00  0.00    +0.144 HD
ATOM     32  H   UNL     1       1.920   4.094  -0.001  0.00  0.00    +0.144 HD
ENDBRANCH  13  30
BRANCH  12  33
ATOM     33  C   UNL     1      -1.274   2.183   0.020  0.00  0.00    +0.100 C 
ATOM     34  N   UNL     1      -2.270   2.730   0.028  0.00  0.00    -0.191 NA
ENDBRANCH  12  33
TORSDOF 3
