REMARK  Name = ZINC39600570
REMARK  5 active torsions:
REMARK  status: ('A' for Active; 'I' for Inactive)
REMARK    1  A    between atoms: C_7  and  C_10
REMARK    2  A    between atoms: C_14  and  C_23
REMARK    3  A    between atoms: N_25  and  C_26
REMARK    4  A    between atoms: C_26  and  C_27
REMARK    5  A    between atoms: C_29  and  C_34
REMARK                            x       y       z     vdW  Elec       q    Type
REMARK                         _______ _______ _______ _____ _____    ______ ____
ROOT
ATOM      1  C   UNL     1       0.381  -3.115  -0.015  0.00  0.00    +0.248 C 
ATOM      2  O   UNL     1      -0.769  -2.735   0.106  0.00  0.00    -0.270 OA
ATOM      3  N   UNL     1       0.647  -4.432  -0.127  0.00  0.00    -0.296 N 
ATOM      4  C   UNL     1       1.974  -5.091  -0.156  0.00  0.00    +0.121 C 
ATOM      5  C   UNL     1       1.787  -6.380   0.675  0.00  0.00    +0.100 C 
ATOM      6  C   UNL     1       0.280  -6.675   0.608  0.00  0.00    -0.004 C 
ATOM      7  C   UNL     1      -0.322  -5.548  -0.243  0.00  0.00    +0.115 C 
ATOM      8  C   UNL     1       0.035  -8.028  -0.054  0.00  0.00    -0.010 C 
ATOM      9  C   UNL     1      -1.467  -8.325  -0.057  0.00  0.00    -0.082 C 
ATOM     10  N   UNL     1      -1.968  -8.336   1.323  0.00  0.00    +0.379 N 
ATOM     11  C   UNL     1      -1.813  -7.005   1.922  0.00  0.00    -0.082 C 
ATOM     12  C   UNL     1      -0.326  -6.652   2.009  0.00  0.00    -0.010 C 
ATOM     13  H   UNL     1      -2.944  -8.592   1.323  0.00  0.00    -0.086 HD
ATOM     14  H   UNL     1      -1.446  -9.010   1.863  0.00  0.00    -0.086 HD
ENDROOT
BRANCH   1  21
ATOM     15  C   UNL     1       0.336   0.984   1.837  0.00  0.00    +0.001 A 
ATOM     16  C   UNL     1       1.487   1.747   1.697  0.00  0.00    +0.001 A 
ATOM     17  C   UNL     1       2.569   1.231   1.012  0.00  0.00    +0.015 A 
ATOM     18  C   UNL     1       2.494  -0.037   0.476  0.00  0.00    +0.020 A 
ATOM     19  C   UNL     1       1.339  -0.831   0.605  0.00  0.00    +0.001 A 
ATOM     20  C   UNL     1       0.251  -0.279   1.308  0.00  0.00    +0.010 A 
ATOM     21  C   UNL     1       1.478  -2.140  -0.038  0.00  0.00    +0.052 A 
ATOM     22  C   UNL     1       2.654  -2.423  -0.657  0.00  0.00    +0.059 A 
ATOM     23  S   UNL     1       3.608  -1.060  -0.447  0.00  0.00    -0.096 S 
ENDBRANCH   1  21
BRANCH   5  24
ATOM     24  C   UNL     1       2.217  -6.151   2.102  0.00  0.00    +0.218 C 
ATOM     25  O   UNL     1       2.034  -5.072   2.624  0.00  0.00    -0.275 OA
ATOM     26  N   UNL     1       2.804  -7.146   2.796  0.00  0.00    -0.311 N 
ATOM     27  H   UNL     1       2.950  -8.009   2.378  0.00  0.00    +0.149 HD
BRANCH  26  28
ATOM     28  C   UNL     1       3.222  -6.924   4.183  0.00  0.00    +0.139 C 
BRANCH  28  29
ATOM     29  C   UNL     1       3.846  -8.183   4.727  0.00  0.00    -0.027 A 
ATOM     30  C   UNL     1       3.058  -9.130   5.354  0.00  0.00    +0.017 A 
ATOM     31  C   UNL     1       3.629 -10.285   5.854  0.00  0.00    +0.058 A 
ATOM     32  C   UNL     1       4.989 -10.494   5.728  0.00  0.00    +0.050 A 
ATOM     33  C   UNL     1       5.780  -9.547   5.101  0.00  0.00    +0.124 A 
ATOM     34  C   UNL     1       5.205  -8.393   4.595  0.00  0.00    +0.043 A 
ATOM     35  F   UNL     1       7.110  -9.750   4.977  0.00  0.00    -0.205 F 
BRANCH  31  36
ATOM     36  C   UNL     1       2.768 -11.316   6.537  0.00  0.00    +0.418 C 
ATOM     37  F   UNL     1       2.302 -12.235   5.591  0.00  0.00    -0.166 F 
ATOM     38  F   UNL     1       3.523 -11.986   7.505  0.00  0.00    -0.166 F 
ATOM     39  F   UNL     1       1.680 -10.684   7.149  0.00  0.00    -0.166 F 
ENDBRANCH  31  36
ENDBRANCH  28  29
ENDBRANCH  26  28
ENDBRANCH   5  24
TORSDOF 5
