REMARK  Name = ZINC19836824
REMARK  7 active torsions:
REMARK  status: ('A' for Active; 'I' for Inactive)
REMARK    1  A    between atoms: C_1  and  O_2
REMARK    2  A    between atoms: O_2  and  C_3
REMARK    3  A    between atoms: C_3  and  C_5
REMARK    4  A    between atoms: C_8  and  C_11
REMARK    5  A    between atoms: C_11  and  N_12
REMARK    6  A    between atoms: C_14  and  O_27
REMARK    7  A    between atoms: N_17  and  C_21
REMARK                            x       y       z     vdW  Elec       q    Type
REMARK                         _______ _______ _______ _____ _____    ______ ____
ROOT
ATOM      1  N   UNL     1       3.447   1.534   1.242  0.00  0.00    +0.390 N 
ATOM      2  C   UNL     1       2.052   1.114   1.229  0.00  0.00    -0.044 C 
ATOM      3  C   UNL     1       1.286   1.562  -0.002  0.00  0.00    +0.115 C 
ATOM      4  C   UNL     1       1.138   3.086  -0.024  0.00  0.00    +0.137 C 
ATOM      5  N   UNL     1       2.344   3.661  -0.644  0.00  0.00    -0.298 N 
ATOM      6  C   UNL     1       3.510   3.617   0.006  0.00  0.00    +0.199 C 
ATOM      7  O   UNL     1       4.506   4.082  -0.508  0.00  0.00    -0.278 OA
ATOM      8  C   UNL     1       3.595   2.988   1.380  0.00  0.00    +0.019 C 
ATOM      9  H   UNL     1       3.864   1.258   0.262  0.00  0.00    -0.081 HD
ENDROOT
BRANCH   5  10
ATOM     10  C   UNL     1       2.264   4.281  -1.969  0.00  0.00    +0.076 C 
ATOM     11  C   UNL     1       3.195   3.544  -2.933  0.00  0.00    +0.022 C 
ATOM     12  C   UNL     1       3.111   4.191  -4.317  0.00  0.00    +0.002 C 
ATOM     13  C   UNL     1       3.534   5.658  -4.221  0.00  0.00    +0.000 C 
ATOM     14  C   UNL     1       2.603   6.395  -3.256  0.00  0.00    +0.002 C 
ATOM     15  C   UNL     1       2.687   5.748  -1.872  0.00  0.00    +0.022 C 
ENDBRANCH   5  10
BRANCH   3  16
ATOM     16  O   UNL     1      -0.011   0.963   0.007  0.00  0.00    -0.392 OA
ATOM     17  H   UNL     1      -0.718   1.169  -0.810  0.00  0.00    +0.210 HD
ENDBRANCH   3  16
BRANCH   1  18
ATOM     18  C   UNL     1       4.199   0.827   2.288  0.00  0.00    -0.042 C 
BRANCH  18  22
ATOM     19  C   UNL     1       8.065   2.605   2.712  0.00  0.00    +0.059 A 
ATOM     20  C   UNL     1       6.991   3.072   3.472  0.00  0.00    +0.015 A 
ATOM     21  C   UNL     1       5.747   2.494   3.330  0.00  0.00    +0.002 A 
ATOM     22  C   UNL     1       5.562   1.454   2.437  0.00  0.00    -0.064 A 
ATOM     23  C   UNL     1       6.623   0.982   1.685  0.00  0.00    +0.002 A 
ATOM     24  C   UNL     1       7.872   1.555   1.813  0.00  0.00    +0.015 A 
BRANCH  19  25
ATOM     25  C   UNL     1       9.400   3.220   2.859  0.00  0.00    +0.339 C 
ATOM     26  O   UNL     1       9.566   4.134   3.642  0.00  0.00    -0.245 OA
BRANCH  25  28
ATOM     27  C   UNL     1      11.718   3.418   2.320  0.00  0.00    +0.280 C 
ATOM     28  O   UNL     1      10.435   2.767   2.124  0.00  0.00    -0.464 OA
ENDBRANCH  25  28
ENDBRANCH  19  25
ENDBRANCH  18  22
ENDBRANCH   1  18
TORSDOF 6
