REMARK  Name = ZINC04123621
REMARK  3 active torsions:
REMARK  status: ('A' for Active; 'I' for Inactive)
REMARK    1  A    between atoms: C_4  and  N_26
REMARK    2  A    between atoms: C_5  and  C_7
REMARK    3  A    between atoms: C_20  and  N_23
REMARK                            x       y       z     vdW  Elec       q    Type
REMARK                         _______ _______ _______ _____ _____    ______ ____
ROOT
ATOM      1  C   UNL     1      -1.769   4.279   1.434  0.00  0.00    +0.107 C 
ATOM      2  C   UNL     1      -1.038   4.833   2.658  0.00  0.00    +0.029 C 
ATOM      3  C   UNL     1       0.331   5.395   2.181  0.00  0.00    +0.033 C 
ATOM      4  C   UNL     1       1.215   4.165   2.109  0.00  0.00    -0.030 C 
ATOM      5  C   UNL     1       0.729   3.206   2.856  0.00  0.00    -0.023 C 
ATOM      6  C   UNL     1      -0.550   3.653   3.526  0.00  0.00    +0.049 C 
ATOM      7  C   UNL     1      -1.552   2.537   3.551  0.00  0.00    -0.017 A 
ATOM      8  C   UNL     1      -1.323   1.474   4.414  0.00  0.00    +0.006 A 
ATOM      9  C   UNL     1      -2.205   0.415   4.476  0.00  0.00    +0.003 A 
ATOM     10  C   UNL     1      -3.332   0.406   3.675  0.00  0.00    +0.034 A 
ATOM     11  C   UNL     1      -3.571   1.457   2.817  0.00  0.00    +0.147 A 
ATOM     12  C   UNL     1      -2.682   2.529   2.751  0.00  0.00    +0.062 A 
ATOM     13  N   UNL     1      -2.973   3.567   1.866  0.00  0.00    -0.335 N 
ATOM     14  H   UNL     1      -3.645   4.205   2.265  0.00  0.00    +0.147 HD
ENDROOT
BRANCH   1  19
ATOM     15  C   UNL     1      -0.020   1.115   0.344  0.00  0.00    +0.000 A 
ATOM     16  C   UNL     1       0.801   1.587  -0.663  0.00  0.00    +0.002 A 
ATOM     17  C   UNL     1       0.789   2.929  -0.992  0.00  0.00    +0.033 A 
ATOM     18  C   UNL     1      -0.043   3.801  -0.314  0.00  0.00    +0.131 A 
ATOM     19  C   UNL     1      -0.863   3.329   0.694  0.00  0.00    +0.003 A 
ATOM     20  C   UNL     1      -0.856   1.985   1.019  0.00  0.00    +0.008 A 
BRANCH  18  21
ATOM     21  N   UNL     1      -0.054   5.238  -0.666  0.00  0.00    +0.057 N 
ATOM     22  O   UNL     1       0.994   5.825  -0.867  0.00  0.00    -0.126 OA
ATOM     23  O   UNL     1      -1.113   5.835  -0.756  0.00  0.00    -0.126 OA
ENDBRANCH  18  21
ENDBRANCH   1  19
BRANCH  11  24
ATOM     24  N   UNL     1      -4.777   1.448   1.959  0.00  0.00    +0.058 N 
ATOM     25  O   UNL     1      -5.556   0.513   2.014  0.00  0.00    -0.126 OA
ATOM     26  O   UNL     1      -4.991   2.375   1.199  0.00  0.00    -0.126 OA
ENDBRANCH  11  24
TORSDOF 3
