REMARK  Name = ZINC60016018
REMARK  11 active torsions:
REMARK  status: ('A' for Active; 'I' for Inactive)
REMARK    1  A    between atoms: C_1  and  C_2
REMARK    2  A    between atoms: C_5  and  C_33
REMARK    3  A    between atoms: N_8  and  C_10
REMARK    4  A    between atoms: C_10  and  C_11
REMARK    5  A    between atoms: C_11  and  C_13
REMARK    6  A    between atoms: C_11  and  N_14
REMARK    7  A    between atoms: C_15  and  C_17
REMARK    8  A    between atoms: C_21  and  S_23
REMARK    9  A    between atoms: S_23  and  N_26
REMARK   10  A    between atoms: N_26  and  C_27
REMARK   11  A    between atoms: C_27  and  C_28
REMARK                            x       y       z     vdW  Elec       q    Type
REMARK                         _______ _______ _______ _____ _____    ______ ____
ROOT
ATOM      1  C   UNL     1       5.062  -2.323  -0.936  0.00  0.00    +0.039 A 
ATOM      2  C   UNL     1       4.487  -3.429  -1.563  0.00  0.00    +0.013 A 
ATOM      3  C   UNL     1       4.978  -3.864  -2.776  0.00  0.00    +0.003 A 
ATOM      4  C   UNL     1       6.039  -3.205  -3.372  0.00  0.00    +0.028 A 
ATOM      5  C   UNL     1       6.614  -2.107  -2.756  0.00  0.00    +0.106 A 
ATOM      6  C   UNL     1       6.128  -1.659  -1.545  0.00  0.00    +0.041 A 
ENDROOT
BRANCH   1   8
ATOM      7  N   UNL     1       3.510  -2.495   0.951  0.00  0.00    -0.311 N 
ATOM      8  C   UNL     1       4.540  -1.852   0.365  0.00  0.00    +0.244 C 
ATOM      9  O   UNL     1       5.039  -0.884   0.906  0.00  0.00    -0.270 OA
ATOM     10  H   UNL     1       3.112  -3.266   0.519  0.00  0.00    +0.149 HD
BRANCH   7  11
ATOM     11  C   UNL     1       2.993  -2.028   2.239  0.00  0.00    +0.054 C 
ATOM     12  C   UNL     1       3.825  -2.634   3.372  0.00  0.00    +0.026 C 
BRANCH  11  13
ATOM     13  C   UNL     1       1.534  -2.461   2.390  0.00  0.00    -0.057 C 
BRANCH  13  19
ATOM     14  C   UNL     1      -0.019   1.526   0.010  0.00  0.00    +0.005 C 
ATOM     15  C   UNL     1       0.002  -0.004   0.002  0.00  0.00    -0.031 C 
ATOM     16  C   UNL     1      -1.434  -0.535   0.015  0.00  0.00    +0.003 C 
ATOM     17  C   UNL     1      -1.402  -2.064   0.086  0.00  0.00    -0.031 C 
ATOM     18  C   UNL     1      -0.613  -2.496   1.324  0.00  0.00    -0.076 C 
ATOM     19  N   UNL     1       0.758  -1.980   1.239  0.00  0.00    +0.381 N 
ATOM     20  C   UNL     1       0.740  -0.512   1.242  0.00  0.00    -0.076 C 
ATOM     21  C   UNL     1      -2.832  -2.602   0.177  0.00  0.00    +0.005 C 
ATOM     22  H   UNL     1       1.188  -2.307   0.386  0.00  0.00    -0.082 HD
ENDBRANCH  13  19
ENDBRANCH  11  13
ENDBRANCH   7  11
ENDBRANCH   1   8
BRANCH   5  23
ATOM     23  S   UNL     1       7.965  -1.276  -3.523  0.00  0.00    +0.059 S 
ATOM     24  O   UNL     1       8.676  -0.614  -2.486  0.00  0.00    -0.153 OA
ATOM     25  O   UNL     1       8.582  -2.217  -4.390  0.00  0.00    -0.153 OA
BRANCH  23  26
ATOM     26  N   UNL     1       7.326  -0.091  -4.489  0.00  0.00    -0.185 NA
ATOM     27  H   UNL     1       7.437  -0.138  -5.452  0.00  0.00    +0.148 HD
BRANCH  26  28
ATOM     28  C   UNL     1       6.593   1.026  -3.890  0.00  0.00    +0.148 C 
BRANCH  28  29
ATOM     29  C   UNL     1       6.440   2.129  -4.906  0.00  0.00    +0.005 A 
ATOM     30  C   UNL     1       5.442   2.333  -5.800  0.00  0.00    +0.012 A 
ATOM     31  C   UNL     1       5.512   3.426  -6.644  0.00  0.00    +0.008 A 
ATOM     32  C   UNL     1       6.576   4.260  -6.553  0.00  0.00    +0.045 A 
ATOM     33  S   UNL     1       7.522   3.509  -5.238  0.00  0.00    -0.100 S 
ENDBRANCH  28  29
ENDBRANCH  26  28
ENDBRANCH  23  26
ENDBRANCH   5  23
TORSDOF 8
