REMARK  Name = ZINC01480752
REMARK  10 active torsions:
REMARK  status: ('A' for Active; 'I' for Inactive)
REMARK    1  A    between atoms: C_1  and  C_2
REMARK    2  A    between atoms: C_2  and  CA_3
REMARK    3  A    between atoms: CA_3  and  C_5
REMARK    4  A    between atoms: CA_3  and  N_7
REMARK    5  A    between atoms: C_5  and  O_6
REMARK    6  A    between atoms: N_7  and  C_8
REMARK    7  A    between atoms: C_9  and  C_20
REMARK    8  A    between atoms: C_16  and  C_19
REMARK    9  A    between atoms: N_24  and  C_28
REMARK   10  A    between atoms: C_28  and  C_29
REMARK                            x       y       z     vdW  Elec       q    Type
REMARK                         _______ _______ _______ _____ _____    ______ ____
ROOT
ATOM      1  C   UNL     1      -2.557  -3.939  -5.641  0.00  0.00    +0.134 A 
ATOM      2  C   UNL     1      -1.347  -3.713  -4.945  0.00  0.00    +0.081 A 
ATOM      3  C   UNL     1      -0.133  -3.776  -5.671  0.00  0.00    +0.267 A 
ATOM      4  O   UNL     1       0.933  -3.584  -5.113  0.00  0.00    -0.267 OA
ATOM      5  N   UNL     1      -0.176  -4.059  -6.991  0.00  0.00    -0.267 N 
ATOM      6  C   UNL     1       0.989  -4.127  -7.696  0.00  0.00    +0.096 A 
ATOM      7  C   UNL     1       0.981  -4.402  -9.020  0.00  0.00    +0.019 A 
ATOM      8  C   UNL     1      -0.233  -4.623  -9.685  0.00  0.00    +0.008 A 
ATOM      9  C   UNL     1      -1.403  -4.557  -8.988  0.00  0.00    -0.007 A 
ATOM     10  C   UNL     1      -1.376  -4.269  -7.612  0.00  0.00    +0.145 A 
ATOM     11  N   UNL     1      -2.525  -4.206  -6.939  0.00  0.00    -0.214 NA
ATOM     12  C   UNL     1      -2.717  -4.790  -9.688  0.00  0.00    +0.047 C 
ENDROOT
BRANCH   2  13
ATOM     13  C   UNL     1      -1.349  -3.426  -3.561  0.00  0.00    +0.037 C 
ATOM     14  C   UNL     1      -1.924  -4.299  -2.683  0.00  0.00    +0.077 C 
ATOM     15  C   UNL     1      -2.158  -4.157  -1.286  0.00  0.00    +0.259 C 
ATOM     16  O   UNL     1      -1.833  -3.142  -0.696  0.00  0.00    -0.269 OA
ATOM     17  N   UNL     1      -2.734  -5.160  -0.646  0.00  0.00    -0.251 N 
ATOM     18  C   UNL     1      -3.099  -6.284  -1.301  0.00  0.00    +0.121 C 
ATOM     19  S   UNL     1      -3.857  -7.689  -0.682  0.00  0.00    -0.027 S 
ATOM     20  S   UNL     1      -2.592  -5.931  -2.977  0.00  0.00    -0.061 S 
BRANCH  17  21
ATOM     21  C   UNL     1      -2.985  -5.049   0.793  0.00  0.00    +0.151 C 
BRANCH  21  22
ATOM     22  C   UNL     1      -1.883  -5.744   1.551  0.00  0.00    -0.011 A 
ATOM     23  C   UNL     1      -2.038  -7.061   1.942  0.00  0.00    +0.006 A 
ATOM     24  C   UNL     1      -1.028  -7.699   2.637  0.00  0.00    +0.000 A 
ATOM     25  C   UNL     1       0.139  -7.021   2.940  0.00  0.00    +0.001 A 
ATOM     26  C   UNL     1       0.294  -5.704   2.550  0.00  0.00    +0.020 A 
ATOM     27  C   UNL     1      -0.717  -5.065   1.854  0.00  0.00    +0.046 A 
ATOM     28 CL   UNL     1      -0.522  -3.411   1.363  0.00  0.00    -0.083 Cl
ENDBRANCH  21  22
ENDBRANCH  17  21
ENDBRANCH   2  13
BRANCH   1  29
ATOM     29  N   UNL     1      -3.762  -3.881  -4.975  0.00  0.00    -0.323 N 
ATOM     30  H   UNL     1      -3.782  -3.684  -4.025  0.00  0.00    +0.148 HD
BRANCH  29  31
ATOM     31  CA  UNL     1      -5.013  -4.115  -5.701  0.00  0.00    +0.097 C 
BRANCH  31  33
ATOM     32  C   UNL     1      -5.949  -1.902  -5.016  0.00  0.00    +0.006 C 
ATOM     33  C   UNL     1      -6.163  -3.417  -4.974  0.00  0.00    +0.021 C 
ENDBRANCH  31  33
BRANCH  31  34
ATOM     34  C   UNL     1      -5.289  -5.618  -5.768  0.00  0.00    +0.178 C 
BRANCH  34  35
ATOM     35  O   UNL     1      -5.518  -6.120  -4.449  0.00  0.00    -0.393 OA
ATOM     36  H   UNL     1      -5.700  -7.069  -4.415  0.00  0.00    +0.209 HD
ENDBRANCH  34  35
ENDBRANCH  31  34
ENDBRANCH  29  31
ENDBRANCH   1  29
TORSDOF 8
