REMARK  Name = ZINC58847758
REMARK  4 active torsions:
REMARK  status: ('A' for Active; 'I' for Inactive)
REMARK    1  A    between atoms: C_6  and  C_7
REMARK    2  A    between atoms: C_18  and  S_23
REMARK    3  A    between atoms: S_23  and  N_26
REMARK    4  A    between atoms: N_26  and  C_27
REMARK                            x       y       z     vdW  Elec       q    Type
REMARK                         _______ _______ _______ _____ _____    ______ ____
ROOT
ATOM      1  C   UNL     1      -0.833  -1.058  -0.077  0.00  0.00    +0.105 C 
ATOM      2  C   UNL     1      -1.138  -1.441   1.340  0.00  0.00    +0.029 C 
ATOM      3  C   UNL     1       0.094  -2.014   2.070  0.00  0.00    +0.033 C 
ATOM      4  C   UNL     1      -0.500  -2.939   3.112  0.00  0.00    -0.030 C 
ATOM      5  C   UNL     1      -1.741  -3.234   2.821  0.00  0.00    -0.023 C 
ATOM      6  C   UNL     1      -2.145  -2.573   1.526  0.00  0.00    +0.049 C 
ATOM      7  C   UNL     1      -2.079  -3.607   0.437  0.00  0.00    -0.018 A 
ATOM      8  C   UNL     1      -2.716  -4.823   0.645  0.00  0.00    +0.034 A 
ATOM      9  C   UNL     1      -2.674  -5.808  -0.321  0.00  0.00    +0.109 A 
ATOM     10  C   UNL     1      -1.995  -5.590  -1.506  0.00  0.00    +0.030 A 
ATOM     11  C   UNL     1      -1.363  -4.383  -1.723  0.00  0.00    +0.025 A 
ATOM     12  C   UNL     1      -1.409  -3.386  -0.752  0.00  0.00    +0.031 A 
ATOM     13  N   UNL     1      -0.811  -2.167  -1.008  0.00  0.00    -0.336 N 
ATOM     14  H   UNL     1      -0.330  -2.063  -1.844  0.00  0.00    +0.147 HD
ENDROOT
BRANCH   1  20
ATOM     15  C   UNL     1       0.595   0.998  -0.107  0.00  0.00    +0.008 A 
ATOM     16  C   UNL     1       1.829   1.618  -0.136  0.00  0.00    +0.038 A 
ATOM     17  C   UNL     1       2.986   0.857  -0.167  0.00  0.00    +0.123 A 
ATOM     18  C   UNL     1       2.904  -0.525  -0.168  0.00  0.00    +0.038 A 
ATOM     19  C   UNL     1       1.668  -1.143  -0.139  0.00  0.00    +0.008 A 
ATOM     20  C   UNL     1       0.514  -0.383  -0.109  0.00  0.00    -0.027 A 
ATOM     21  F   UNL     1       4.193   1.463  -0.196  0.00  0.00    -0.205 F 
ENDBRANCH   1  20
BRANCH   9  22
ATOM     22  S   UNL     1      -3.487  -7.346  -0.043  0.00  0.00    +0.072 S 
ATOM     23  O   UNL     1      -2.841  -8.303  -0.872  0.00  0.00    -0.150 OA
ATOM     24  O   UNL     1      -3.589  -7.503   1.365  0.00  0.00    -0.150 OA
BRANCH  22  25
ATOM     25  N   UNL     1      -5.034  -7.193  -0.615  0.00  0.00    -0.215 N 
ATOM     26  H   UNL     1      -5.787  -7.303  -0.014  0.00  0.00    +0.174 HD
BRANCH  25  27
ATOM     27  C   UNL     1      -5.254  -6.904  -1.965  0.00  0.00    +0.068 A 
ATOM     28  C   UNL     1      -4.413  -7.433  -2.936  0.00  0.00    +0.046 A 
ATOM     29  C   UNL     1      -4.634  -7.146  -4.269  0.00  0.00    +0.043 A 
ATOM     30  C   UNL     1      -5.692  -6.332  -4.638  0.00  0.00    +0.021 A 
ATOM     31  C   UNL     1      -6.530  -5.804  -3.674  0.00  0.00    +0.023 A 
ATOM     32  C   UNL     1      -6.319  -6.093  -2.339  0.00  0.00    +0.063 A 
ATOM     33 CL   UNL     1      -7.377  -5.436  -1.129  0.00  0.00    -0.082 Cl
ATOM     34 CL   UNL     1      -3.584  -7.806  -5.484  0.00  0.00    -0.083 Cl
ENDBRANCH  25  27
ENDBRANCH  22  25
ENDBRANCH   9  22
TORSDOF 4
