REMARK  Name = ZINC04083649
REMARK  8 active torsions:
REMARK  status: ('A' for Active; 'I' for Inactive)
REMARK    1  A    between atoms: C_1  and  O_2
REMARK    2  A    between atoms: O_2  and  C_3
REMARK    3  A    between atoms: C_6  and  C_11
REMARK    4  A    between atoms: C_8  and  O_9
REMARK    5  A    between atoms: O_9  and  C_10
REMARK    6  A    between atoms: C_16  and  C_26
REMARK    7  A    between atoms: C_29  and  O_32
REMARK    8  A    between atoms: O_32  and  C_33
REMARK                            x       y       z     vdW  Elec       q    Type
REMARK                         _______ _______ _______ _____ _____    ______ ____
ROOT
ATOM      1  C   UNL     1      -5.099  -2.398  -0.538  0.00  0.00    +0.032 C 
ATOM      2  C   UNL     1      -5.726  -2.021   0.803  0.00  0.00    +0.059 C 
ATOM      3  C   UNL     1      -7.024  -2.786   1.002  0.00  0.00    +0.017 C 
ATOM      4  C   UNL     1      -7.791  -3.109  -0.053  0.00  0.00    +0.036 C 
ATOM      5  C   UNL     1      -9.098  -3.865  -0.000  0.00  0.00    +0.136 C 
ATOM      6  N   UNL     1      -9.645  -4.020   1.331  0.00  0.00    -0.331 N 
ATOM      7  C   UNL     1      -8.976  -4.766   2.297  0.00  0.00    +0.049 A 
ATOM      8  C   UNL     1      -9.508  -5.947   2.793  0.00  0.00    +0.025 A 
ATOM      9  C   UNL     1      -8.787  -6.684   3.716  0.00  0.00    +0.002 A 
ATOM     10  C   UNL     1      -7.544  -6.252   4.142  0.00  0.00    +0.002 A 
ATOM     11  C   UNL     1      -7.017  -5.064   3.662  0.00  0.00    +0.025 A 
ATOM     12  C   UNL     1      -7.748  -4.315   2.757  0.00  0.00    +0.052 A 
ATOM     13  N   UNL     1      -7.317  -3.074   2.296  0.00  0.00    -0.316 N 
ATOM     14  C   UNL     1      -7.391  -2.752  -1.362  0.00  0.00    +0.163 C 
ATOM     15  O   UNL     1      -8.118  -3.033  -2.295  0.00  0.00    -0.292 OA
ATOM     16  C   UNL     1      -6.102  -2.038  -1.640  0.00  0.00    +0.088 C 
ATOM     17  H   UNL     1     -10.490  -3.599   1.553  0.00  0.00    +0.147 HD
ATOM     18  H   UNL     1      -7.219  -2.363   2.948  0.00  0.00    +0.152 HD
ENDROOT
BRANCH   1  22
ATOM     19  C   UNL     1      -1.474  -0.201  -1.107  0.00  0.00    +0.161 A 
ATOM     20  C   UNL     1      -2.676   0.469  -0.947  0.00  0.00    +0.049 A 
ATOM     21  C   UNL     1      -3.846  -0.244  -0.764  0.00  0.00    +0.008 A 
ATOM     22  C   UNL     1      -3.820  -1.626  -0.739  0.00  0.00    -0.040 A 
ATOM     23  C   UNL     1      -2.624  -2.301  -0.898  0.00  0.00    +0.053 A 
ATOM     24  C   UNL     1      -1.449  -1.593  -1.088  0.00  0.00    +0.162 A 
BRANCH  19  26
ATOM     25  C   UNL     1      -0.424   1.924  -1.302  0.00  0.00    +0.277 C 
ATOM     26  O   UNL     1      -0.322   0.498  -1.288  0.00  0.00    -0.491 OA
ENDBRANCH  19  26
BRANCH  24  27
ATOM     27  O   UNL     1      -0.273  -2.255  -1.250  0.00  0.00    -0.491 OA
ATOM     28  C   UNL     1      -0.323  -3.683  -1.220  0.00  0.00    +0.277 C 
ENDBRANCH  24  27
ENDBRANCH   1  22
BRANCH   5  29
ATOM     29  C   UNL     1      -8.882  -5.235  -0.589  0.00  0.00    -0.023 A 
ATOM     30  C   UNL     1      -8.008  -6.117   0.020  0.00  0.00    +0.009 A 
ATOM     31  C   UNL     1      -7.813  -7.376  -0.514  0.00  0.00    +0.046 A 
ATOM     32  C   UNL     1      -8.486  -7.751  -1.668  0.00  0.00    +0.130 A 
ATOM     33  C   UNL     1      -9.357  -6.862  -2.280  0.00  0.00    +0.046 A 
ATOM     34  C   UNL     1      -9.554  -5.606  -1.739  0.00  0.00    +0.009 A 
BRANCH  32  35
ATOM     35  O   UNL     1      -8.291  -8.987  -2.198  0.00  0.00    -0.406 OA
BRANCH  35  36
ATOM     36  C   UNL     1      -7.379  -9.850  -1.516  0.00  0.00    +0.575 C 
ATOM     37  F   UNL     1      -7.832 -10.068  -0.210  0.00  0.00    -0.133 F 
ATOM     38  F   UNL     1      -7.299 -11.072  -2.191  0.00  0.00    -0.133 F 
ATOM     39  F   UNL     1      -6.114  -9.254  -1.477  0.00  0.00    -0.133 F 
ENDBRANCH  35  36
ENDBRANCH  32  35
ENDBRANCH   5  29
TORSDOF 6
