REMARK  Name = ZINC23448907
REMARK  10 active torsions:
REMARK  status: ('A' for Active; 'I' for Inactive)
REMARK    1  A    between atoms: C_1  and  C_2
REMARK    2  A    between atoms: C_6  and  C_8
REMARK    3  A    between atoms: C_8  and  O_9
REMARK    4  A    between atoms: O_9  and  C_10
REMARK    5  A    between atoms: C_10  and  C_12
REMARK    6  A    between atoms: C_10  and  C_30
REMARK    7  A    between atoms: C_12  and  N_13
REMARK    8  A    between atoms: N_16  and  S_19
REMARK    9  A    between atoms: S_19  and  C_22
REMARK   10  A    between atoms: C_25  and  C_29
REMARK                            x       y       z     vdW  Elec       q    Type
REMARK                         _______ _______ _______ _____ _____    ______ ____
ROOT
ATOM      1  C   UNL     1      -1.247  -0.527  -0.710  0.00  0.00    -0.042 C 
ENDROOT
BRANCH   1   2
ATOM      2  N   UNL     1      -1.267  -0.030  -2.092  0.00  0.00    +0.383 N 
ATOM      3  C   UNL     1      -2.619  -0.110  -2.661  0.00  0.00    -0.061 C 
ATOM      4  C   UNL     1      -2.636   0.581  -4.029  0.00  0.00    +0.091 C 
ATOM      5  N   UNL     1      -1.575  -0.006  -4.862  0.00  0.00    -0.180 NA
ATOM      6  C   UNL     1      -0.216  -0.087  -4.304  0.00  0.00    +0.091 C 
ATOM      7  C   UNL     1      -0.295  -0.751  -2.925  0.00  0.00    -0.061 C 
ATOM      8  H   UNL     1      -0.972   1.030  -2.077  0.00  0.00    -0.082 HD
BRANCH   5   9
ATOM      9  S   UNL     1      -1.902  -0.562  -6.387  0.00  0.00    +0.061 S 
ATOM     10  O   UNL     1      -3.061   0.129  -6.832  0.00  0.00    -0.153 OA
ATOM     11  O   UNL     1      -0.674  -0.529  -7.103  0.00  0.00    -0.153 OA
BRANCH   9  12
ATOM     12  C   UNL     1      -2.353  -2.259  -6.239  0.00  0.00    +0.108 A 
ATOM     13  C   UNL     1      -1.383  -3.241  -6.316  0.00  0.00    +0.029 A 
ATOM     14  C   UNL     1      -1.734  -4.572  -6.194  0.00  0.00    +0.008 A 
ATOM     15  C   UNL     1      -3.058  -4.923  -6.005  0.00  0.00    -0.015 A 
ATOM     16  C   UNL     1      -4.030  -3.941  -5.933  0.00  0.00    +0.128 A 
ATOM     17  C   UNL     1      -3.676  -2.607  -6.050  0.00  0.00    +0.067 A 
ATOM     18  F   UNL     1      -5.324  -4.283  -5.748  0.00  0.00    -0.205 F 
ATOM     19  C   UNL     1      -3.442  -6.375  -5.878  0.00  0.00    +0.047 C 
ENDBRANCH   9  12
ENDBRANCH   5   9
ENDBRANCH   1   2
BRANCH   1  20
ATOM     20  C   UNL     1      -0.009   0.014   0.009  0.00  0.00    +0.132 C 
BRANCH  20  21
ATOM     21  C   UNL     1       0.018  -0.506   1.423  0.00  0.00    -0.021 A 
ATOM     22  C   UNL     1      -0.760   0.094   2.395  0.00  0.00    +0.007 A 
ATOM     23  C   UNL     1      -0.740  -0.386   3.691  0.00  0.00    +0.020 A 
ATOM     24  C   UNL     1       0.067  -1.461   4.018  0.00  0.00    +0.041 A 
ATOM     25  C   UNL     1       0.850  -2.058   3.046  0.00  0.00    +0.020 A 
ATOM     26  C   UNL     1       0.825  -1.581   1.749  0.00  0.00    +0.007 A 
ATOM     27 CL   UNL     1       0.099  -2.059   5.647  0.00  0.00    -0.084 Cl
ENDBRANCH  20  21
BRANCH  20  28
ATOM     28  O   UNL     1      -0.055   1.442   0.027  0.00  0.00    -0.369 OA
BRANCH  28  29
ATOM     29  C   UNL     1       1.231   2.065   0.025  0.00  0.00    +0.195 C 
BRANCH  29  35
ATOM     30  C   UNL     1       0.733   6.403  -2.419  0.00  0.00    +0.044 C 
ATOM     31  C   UNL     1       0.826   5.638  -1.124  0.00  0.00    -0.050 A 
ATOM     32  C   UNL     1       0.758   6.310   0.082  0.00  0.00    +0.003 A 
ATOM     33  C   UNL     1       0.844   5.608   1.270  0.00  0.00    +0.001 A 
ATOM     34  C   UNL     1       0.997   4.234   1.251  0.00  0.00    +0.006 A 
ATOM     35  C   UNL     1       1.064   3.562   0.045  0.00  0.00    -0.022 A 
ATOM     36  C   UNL     1       0.984   4.265  -1.143  0.00  0.00    +0.009 A 
ENDBRANCH  29  35
ENDBRANCH  28  29
ENDBRANCH  20  28
ENDBRANCH   1  20
TORSDOF 8
