REMARK  Name = ZINC37750264
REMARK  6 active torsions:
REMARK  status: ('A' for Active; 'I' for Inactive)
REMARK    1  A    between atoms: C_1  and  S_2
REMARK    2  A    between atoms: S_2  and  C_5
REMARK    3  A    between atoms: C_5  and  C_6
REMARK    4  A    between atoms: C_6  and  N_7
REMARK    5  A    between atoms: N_7  and  C_8
REMARK    6  A    between atoms: C_17  and  N_18
REMARK                            x       y       z     vdW  Elec       q    Type
REMARK                         _______ _______ _______ _____ _____    ______ ____
ROOT
ATOM      1  C   UNL     1       2.018  -3.528  -3.252  0.00  0.00    +0.059 A 
ATOM      2  C   UNL     1       3.034  -3.833  -4.186  0.00  0.00    +0.022 A 
ATOM      3  C   UNL     1       3.775  -2.821  -4.813  0.00  0.00    +0.027 A 
ATOM      4  C   UNL     1       4.748  -3.154  -5.708  0.00  0.00    +0.019 A 
ATOM      5  C   UNL     1       5.015  -4.489  -6.008  0.00  0.00    +0.017 A 
ATOM      6  C   UNL     1       4.314  -5.495  -5.418  0.00  0.00    +0.027 A 
ATOM      7  C   UNL     1       3.303  -5.190  -4.489  0.00  0.00    +0.048 A 
ATOM      8  N   UNL     1       2.601  -6.161  -3.895  0.00  0.00    -0.359 N 
ATOM      9  C   UNL     1       1.654  -5.895  -3.025  0.00  0.00    +0.107 A 
ATOM     10  C   UNL     1       1.331  -4.587  -2.669  0.00  0.00    +0.062 A 
ATOM     11 BR   UNL     1       5.746  -1.788  -6.553  0.00  0.00    -0.050 Br
ATOM     12  H   UNL     1       2.796  -7.086  -4.112  0.00  0.00    +0.165 HD
ENDROOT
BRANCH  10  13
ATOM     13  N   UNL     1       0.318  -4.341  -1.732  0.00  0.00    -0.355 N 
ATOM     14  H   UNL     1       0.035  -3.430  -1.551  0.00  0.00    +0.142 HD
ATOM     15  H   UNL     1      -0.100  -5.080  -1.263  0.00  0.00    +0.142 HD
ENDBRANCH  10  13
BRANCH   1  16
ATOM     16  N   UNL     1       1.718  -2.210  -2.923  0.00  0.00    -0.340 N 
ATOM     17  H   UNL     1       0.976  -1.759  -3.356  0.00  0.00    +0.146 HD
BRANCH  16  18
ATOM     18  C   UNL     1       2.522  -1.503  -1.924  0.00  0.00    +0.124 C 
BRANCH  18  19
ATOM     19  C   UNL     1       3.096  -0.227  -2.541  0.00  0.00    +0.184 C 
BRANCH  19  21
ATOM     20  C   UNL     1       4.674   2.106  -2.213  0.00  0.00    +0.194 C 
ATOM     21  S   UNL     1       4.093   0.649  -1.303  0.00  0.00    -0.032 S 
ATOM     22  O   UNL     1       5.218  -0.157  -0.980  0.00  0.00    -0.175 OA
ATOM     23  O   UNL     1       3.232   1.084  -0.260  0.00  0.00    -0.175 OA
ENDBRANCH  19  21
ENDBRANCH  18  19
ENDBRANCH  16  18
ENDBRANCH   1  16
TORSDOF 5
