REMARK  Name = ZINC64051505
REMARK  6 active torsions:
REMARK  status: ('A' for Active; 'I' for Inactive)
REMARK    1  A    between atoms: C_1  and  C_2
REMARK    2  A    between atoms: C_2  and  C_3
REMARK    3  A    between atoms: C_2  and  C_4
REMARK    4  A    between atoms: C_6  and  N_10
REMARK    5  A    between atoms: C_11  and  C_13
REMARK    6  A    between atoms: C_16  and  C_21
REMARK                            x       y       z     vdW  Elec       q    Type
REMARK                         _______ _______ _______ _____ _____    ______ ____
ROOT
ATOM      1  N   UNL     1      -4.488  -1.523   1.561  0.00  0.00    -0.267 N 
ATOM      2  C   UNL     1      -4.389  -1.369   2.896  0.00  0.00    +0.255 C 
ATOM      3  O   UNL     1      -3.331  -1.032   3.393  0.00  0.00    -0.270 OA
ATOM      4  H   UNL     1      -5.309  -1.863   1.171  0.00  0.00    +0.157 HD
ENDROOT
BRANCH   2   5
ATOM      5  C   UNL     1      -5.558  -1.607   3.750  0.00  0.00    +0.101 A 
ATOM      6  C   UNL     1      -6.749  -2.095   3.200  0.00  0.00    +0.020 A 
ATOM      7  C   UNL     1      -7.837  -2.310   4.028  0.00  0.00    +0.028 A 
ATOM      8  C   UNL     1      -7.736  -2.041   5.387  0.00  0.00    +0.056 A 
ATOM      9  N   UNL     1      -6.570  -1.563   5.920  0.00  0.00    -0.321 N 
ATOM     10  H   UNL     1      -6.517  -1.381   6.871  0.00  0.00    +0.169 HD
ATOM     11  C   UNL     1      -5.492  -1.349   5.141  0.00  0.00    +0.261 A 
ATOM     12  O   UNL     1      -4.459  -0.929   5.634  0.00  0.00    -0.267 OA
BRANCH   8  13
ATOM     13  C   UNL     1      -8.890  -2.270   6.259  0.00  0.00    +0.036 A 
ATOM     14  C   UNL     1      -9.008  -2.066   7.627  0.00  0.00    +0.017 A 
ATOM     15  C   UNL     1     -10.231  -2.376   8.173  0.00  0.00    +0.008 A 
ATOM     16  C   UNL     1     -11.213  -2.847   7.365  0.00  0.00    +0.046 A 
ATOM     17  S   UNL     1     -10.512  -2.878   5.839  0.00  0.00    -0.095 S 
ENDBRANCH   8  13
ENDBRANCH   2   5
BRANCH   1  20
ATOM     18  C   UNL     1      -1.415  -0.515   0.012  0.00  0.00    +0.067 A 
ATOM     19  C   UNL     1      -2.206  -0.709   1.148  0.00  0.00    +0.068 A 
ATOM     20  C   UNL     1      -3.411  -1.194   0.740  0.00  0.00    +0.121 A 
ATOM     21  N   UNL     1      -3.371  -1.299  -0.614  0.00  0.00    -0.264 N 
ATOM     22  H   UNL     1      -4.089  -1.617  -1.184  0.00  0.00    +0.190 HD
ATOM     23  N   UNL     1      -2.111  -0.862  -1.041  0.00  0.00    -0.177 NA
BRANCH  18  25
ATOM     24  C   UNL     1      -0.027   1.540   0.011  0.00  0.00    +0.014 C 
ATOM     25  C   UNL     1      -0.003   0.010   0.001  0.00  0.00    +0.033 C 
ATOM     26  C   UNL     1       0.739  -0.497   1.240  0.00  0.00    +0.014 C 
ENDBRANCH  18  25
ENDBRANCH   1  20
TORSDOF 4
