REMARK  Name = ZINC63506044
REMARK  11 active torsions:
REMARK  status: ('A' for Active; 'I' for Inactive)
REMARK    1  A    between atoms: C_1  and  O_2
REMARK    2  A    between atoms: O_2  and  C_3
REMARK    3  A    between atoms: C_6  and  C_9
REMARK    4  A    between atoms: C_9  and  N_10
REMARK    5  A    between atoms: C_18  and  S_20
REMARK    6  A    between atoms: S_20  and  C_21
REMARK    7  A    between atoms: C_21  and  C_22
REMARK    8  A    between atoms: C_25  and  C_28
REMARK    9  A    between atoms: N_30  and  C_31
REMARK   10  A    between atoms: C_31  and  C_32
REMARK   11  A    between atoms: C_32  and  C_33
REMARK                            x       y       z     vdW  Elec       q    Type
REMARK                         _______ _______ _______ _____ _____    ______ ____
ROOT
ATOM      1  S   UNL     1      -5.818  -5.524  -1.385  0.00  0.00    -0.115 S 
ENDROOT
BRANCH   1  10
ATOM      2  N   UNL     1      -5.423  -2.855  -1.343  0.00  0.00    -0.284 N 
ATOM      3  C   UNL     1      -6.191  -1.984  -2.116  0.00  0.00    +0.122 A 
ATOM      4  C   UNL     1      -6.411  -2.543  -3.375  0.00  0.00    +0.068 A 
ATOM      5  C   UNL     1      -7.159  -1.837  -4.309  0.00  0.00    +0.028 A 
ATOM      6  C   UNL     1      -7.663  -0.593  -3.952  0.00  0.00    +0.019 A 
ATOM      7  C   UNL     1      -7.407  -0.101  -2.689  0.00  0.00    +0.084 A 
ATOM      8  N   UNL     1      -6.693  -0.792  -1.821  0.00  0.00    -0.348 N 
ATOM      9  N   UNL     1      -5.791  -3.796  -3.455  0.00  0.00    -0.315 N 
ATOM     10  C   UNL     1      -5.133  -4.036  -2.165  0.00  0.00    +0.221 C 
ATOM     11  H   UNL     1      -5.792  -4.391  -4.221  0.00  0.00    +0.149 HD
ATOM     12  H   UNL     1      -6.531  -0.417  -0.941  0.00  0.00    +0.167 HD
BRANCH   2  13
ATOM     13  C   UNL     1      -4.981  -2.629   0.035  0.00  0.00    +0.144 C 
BRANCH  13  17
ATOM     14  C   UNL     1      -1.200  -0.637   0.010  0.00  0.00    +0.120 A 
ATOM     15  C   UNL     1      -2.375   0.101   0.019  0.00  0.00    +0.046 A 
ATOM     16  C   UNL     1      -3.596  -0.545   0.027  0.00  0.00    +0.009 A 
ATOM     17  C   UNL     1      -3.648  -1.927   0.026  0.00  0.00    -0.030 A 
ATOM     18  C   UNL     1      -2.479  -2.665   0.017  0.00  0.00    +0.009 A 
ATOM     19  C   UNL     1      -1.255  -2.024   0.003  0.00  0.00    +0.046 A 
BRANCH  14  21
ATOM     20  C   UNL     1      -0.017   1.425   0.010  0.00  0.00    +0.277 C 
ATOM     21  O   UNL     1       0.002  -0.004   0.002  0.00  0.00    -0.495 OA
ENDBRANCH  14  21
ENDBRANCH  13  17
ENDBRANCH   2  13
ENDBRANCH   1  10
BRANCH   1  22
ATOM     22  C   UNL     1      -7.598  -5.190  -1.289  0.00  0.00    +0.107 C 
BRANCH  22  23
ATOM     23  C   UNL     1      -8.296  -6.364  -0.652  0.00  0.00    -0.037 A 
ATOM     24  C   UNL     1      -8.762  -7.400  -1.442  0.00  0.00    +0.005 A 
ATOM     25  C   UNL     1      -9.402  -8.477  -0.865  0.00  0.00    +0.013 A 
ATOM     26  C   UNL     1      -9.579  -8.521   0.519  0.00  0.00    +0.037 A 
ATOM     27  C   UNL     1      -9.107  -7.473   1.310  0.00  0.00    +0.013 A 
ATOM     28  C   UNL     1      -8.463  -6.403   0.721  0.00  0.00    +0.005 A 
BRANCH  26  29
ATOM     29  C   UNL     1     -10.264  -9.672   1.144  0.00  0.00    +0.244 C 
ATOM     30  O   UNL     1     -10.675 -10.584   0.452  0.00  0.00    -0.270 OA
ATOM     31  N   UNL     1     -10.433  -9.711   2.480  0.00  0.00    -0.311 N 
ATOM     32  H   UNL     1     -10.106  -8.984   3.032  0.00  0.00    +0.149 HD
BRANCH  31  33
ATOM     33  C   UNL     1     -11.112 -10.852   3.099  0.00  0.00    +0.110 C 
BRANCH  33  34
ATOM     34  C   UNL     1     -11.172 -10.649   4.615  0.00  0.00    +0.073 C 
BRANCH  34  35
ATOM     35  C   UNL     1     -11.870 -11.823   5.252  0.00  0.00    +0.035 A 
ATOM     36  H   UNL     1     -12.180 -14.668   6.494  0.00  0.00    +0.166 HD
ATOM     37  C   UNL     1     -11.296 -12.988   5.606  0.00  0.00    +0.105 A 
ATOM     38  N   UNL     1     -12.283 -13.768   6.145  0.00  0.00    -0.352 N 
ATOM     39  C   UNL     1     -13.427 -13.052   6.101  0.00  0.00    +0.171 A 
ATOM     40  N   UNL     1     -13.172 -11.888   5.570  0.00  0.00    -0.350 N 
ATOM     41  H   UNL     1     -13.821 -11.181   5.426  0.00  0.00    +0.166 HD
ENDBRANCH  34  35
ENDBRANCH  33  34
ENDBRANCH  31  33
ENDBRANCH  26  29
ENDBRANCH  22  23
ENDBRANCH   1  22
TORSDOF 10
