REMARK  Name = ZINC39685466
REMARK  7 active torsions:
REMARK  status: ('A' for Active; 'I' for Inactive)
REMARK    1  A    between atoms: C_3  and  O_8
REMARK    2  A    between atoms: O_8  and  C_9
REMARK    3  A    between atoms: C_9  and  C_10
REMARK    4  A    between atoms: C_10  and  N_11
REMARK    5  A    between atoms: C_12  and  C_14
REMARK    6  A    between atoms: C_25  and  C_27
REMARK    7  A    between atoms: C_30  and  C_32
REMARK                            x       y       z     vdW  Elec       q    Type
REMARK                         _______ _______ _______ _____ _____    ______ ____
ROOT
ATOM      1  C   UNL     1       7.002   4.728   2.721  0.00  0.00    +0.100 C 
ATOM      2  C   UNL     1       7.076   3.764   3.927  0.00  0.00    +0.121 C 
ATOM      3  N   UNL     1       8.521   3.665   4.238  0.00  0.00    -0.294 N 
ATOM      4  C   UNL     1       9.034   5.043   4.050  0.00  0.00    +0.115 C 
ATOM      5  C   UNL     1       8.287   5.568   2.808  0.00  0.00    -0.004 C 
ATOM      6  C   UNL     1       9.136   5.364   1.557  0.00  0.00    -0.010 C 
ATOM      7  C   UNL     1      10.381   6.252   1.640  0.00  0.00    -0.082 C 
ATOM      8  N   UNL     1       9.974   7.658   1.756  0.00  0.00    +0.379 N 
ATOM      9  C   UNL     1       9.236   7.864   3.008  0.00  0.00    -0.082 C 
ATOM     10  C   UNL     1       7.944   7.044   2.983  0.00  0.00    -0.010 C 
ATOM     11  C   UNL     1       9.213   2.569   4.609  0.00  0.00    +0.282 C 
ATOM     12  O   UNL     1      10.407   2.650   4.833  0.00  0.00    -0.267 OA
ATOM     13  H   UNL     1      10.794   8.246   1.750  0.00  0.00    -0.086 HD
ATOM     14  H   UNL     1       9.383   7.901   0.975  0.00  0.00    -0.086 HD
ENDROOT
BRANCH  11  15
ATOM     15  C   UNL     1       8.528   1.282   4.744  0.00  0.00    +0.190 A 
ATOM     16  C   UNL     1       9.111   0.091   5.119  0.00  0.00    +0.055 A 
ATOM     17  C   UNL     1       8.098  -0.873   5.117  0.00  0.00    +0.050 A 
ATOM     18  C   UNL     1       6.945  -0.243   4.744  0.00  0.00    +0.136 A 
ATOM     19  O   UNL     1       7.215   1.056   4.528  0.00  0.00    -0.450 OA
BRANCH  18  20
ATOM     20  C   UNL     1       5.621  -0.881   4.607  0.00  0.00    +0.017 A 
ATOM     21  C   UNL     1       5.469  -2.244   4.873  0.00  0.00    +0.014 A 
ATOM     22  C   UNL     1       4.229  -2.834   4.744  0.00  0.00    +0.039 A 
ATOM     23  C   UNL     1       3.136  -2.078   4.351  0.00  0.00    +0.123 A 
ATOM     24  C   UNL     1       3.281  -0.726   4.085  0.00  0.00    +0.039 A 
ATOM     25  C   UNL     1       4.514  -0.123   4.216  0.00  0.00    +0.014 A 
ATOM     26  F   UNL     1       1.924  -2.662   4.226  0.00  0.00    -0.205 F 
ENDBRANCH  18  20
ENDBRANCH  11  15
BRANCH   1  28
ATOM     27  N   UNL     1       6.357   4.472   0.347  0.00  0.00    -0.312 N 
ATOM     28  C   UNL     1       6.968   3.952   1.430  0.00  0.00    +0.218 C 
ATOM     29  O   UNL     1       7.490   2.859   1.365  0.00  0.00    -0.275 OA
ATOM     30  H   UNL     1       5.939   5.346   0.399  0.00  0.00    +0.149 HD
BRANCH  27  31
ATOM     31  C   UNL     1       6.324   3.718  -0.908  0.00  0.00    +0.145 C 
BRANCH  31  32
ATOM     32  C   UNL     1       5.576   4.527  -1.970  0.00  0.00    +0.247 C 
BRANCH  32  33
ATOM     33  O   UNL     1       6.308   5.718  -2.264  0.00  0.00    -0.490 OA
BRANCH  33  36
ATOM     34  C   UNL     1       5.895   8.579  -4.474  0.00  0.00    +0.006 A 
ATOM     35  C   UNL     1       6.436   7.729  -3.528  0.00  0.00    +0.046 A 
ATOM     36  C   UNL     1       5.777   6.555  -3.194  0.00  0.00    +0.123 A 
ATOM     37  C   UNL     1       4.577   6.235  -3.811  0.00  0.00    +0.084 A 
ATOM     38  C   UNL     1       4.039   7.089  -4.758  0.00  0.00    +0.127 A 
ATOM     39  C   UNL     1       4.699   8.261  -5.089  0.00  0.00    +0.038 A 
ATOM     40  F   UNL     1       2.870   6.779  -5.360  0.00  0.00    -0.205 F 
ENDBRANCH  33  36
ENDBRANCH  32  33
ENDBRANCH  31  32
ENDBRANCH  27  31
ENDBRANCH   1  28
TORSDOF 7
