REMARK  Name = ZINC39973374
REMARK  9 active torsions:
REMARK  status: ('A' for Active; 'I' for Inactive)
REMARK    1  A    between atoms: C_1  and  C_2
REMARK    2  A    between atoms: C_3  and  N_17
REMARK    3  A    between atoms: C_4  and  C_16
REMARK    4  A    between atoms: N_5  and  C_7
REMARK    5  A    between atoms: C_7  and  C_8
REMARK    6  A    between atoms: N_17  and  S_18
REMARK    7  A    between atoms: S_18  and  C_21
REMARK    8  A    between atoms: C_22  and  C_27
REMARK    9  A    between atoms: C_25  and  C_26
REMARK                            x       y       z     vdW  Elec       q    Type
REMARK                         _______ _______ _______ _____ _____    ______ ____
ROOT
ATOM      1  C   UNL     1       0.423   0.601   0.401  0.00  0.00    +0.069 C 
ATOM      2  C   UNL     1       0.414  -0.897   0.230  0.00  0.00    +0.082 A 
ATOM      3  C   UNL     1       0.107  -1.587  -0.951  0.00  0.00    +0.091 A 
ATOM      4  C   UNL     1       0.210  -2.915  -0.696  0.00  0.00    +0.059 A 
ATOM      5  N   UNL     1       0.571  -3.056   0.607  0.00  0.00    -0.262 N 
ATOM      6  N   UNL     1       0.696  -1.775   1.159  0.00  0.00    -0.174 NA
ATOM      7  C   UNL     1      -0.031  -4.032  -1.679  0.00  0.00    +0.067 C 
ENDROOT
BRANCH   3   8
ATOM      8  N   UNL     1      -0.246  -1.004  -2.183  0.00  0.00    -0.213 N 
ATOM      9  H   UNL     1      -1.089  -1.232  -2.604  0.00  0.00    +0.174 HD
BRANCH   8  10
ATOM     10  S   UNL     1       0.779   0.072  -2.915  0.00  0.00    +0.078 S 
ATOM     11  O   UNL     1       0.172   0.439  -4.146  0.00  0.00    -0.150 OA
ATOM     12  O   UNL     1       1.137   1.028  -1.926  0.00  0.00    -0.150 OA
BRANCH  10  13
ATOM     13  C   UNL     1       2.252  -0.806  -3.321  0.00  0.00    +0.173 A 
ATOM     14  C   UNL     1       3.433  -0.836  -2.557  0.00  0.00    +0.107 A 
ATOM     15  N   UNL     1       4.297  -1.588  -3.178  0.00  0.00    -0.081 NA
ATOM     16  O   UNL     1       3.688  -2.063  -4.365  0.00  0.00    -0.358 OA
ATOM     17  C   UNL     1       2.441  -1.570  -4.414  0.00  0.00    +0.161 A 
ATOM     18  C   UNL     1       1.431  -1.822  -5.504  0.00  0.00    +0.091 C 
ATOM     19  C   UNL     1       3.659  -0.123  -1.249  0.00  0.00    +0.071 C 
ENDBRANCH  10  13
ENDBRANCH   8  10
ENDBRANCH   3   8
BRANCH   5  20
ATOM     20  C   UNL     1       0.795  -4.323   1.308  0.00  0.00    +0.179 C 
BRANCH  20  21
ATOM     21  C   UNL     1       2.242  -4.723   1.173  0.00  0.00    -0.025 A 
ATOM     22  C   UNL     1       2.646  -5.503   0.105  0.00  0.00    +0.007 A 
ATOM     23  C   UNL     1       3.973  -5.870  -0.020  0.00  0.00    +0.022 A 
ATOM     24  C   UNL     1       4.896  -5.458   0.923  0.00  0.00    +0.059 A 
ATOM     25  C   UNL     1       4.492  -4.677   1.992  0.00  0.00    +0.060 A 
ATOM     26  C   UNL     1       3.165  -4.305   2.113  0.00  0.00    +0.027 A 
ATOM     27 CL   UNL     1       5.650  -4.160   3.178  0.00  0.00    -0.082 Cl
ATOM     28 CL   UNL     1       6.562  -5.920   0.767  0.00  0.00    -0.082 Cl
ENDBRANCH  20  21
ENDBRANCH   5  20
TORSDOF 5
