REMARK  Name = ZINC65192216
REMARK  6 active torsions:
REMARK  status: ('A' for Active; 'I' for Inactive)
REMARK    1  A    between atoms: C_9  and  O_12
REMARK    2  A    between atoms: O_12  and  C_13
REMARK    3  A    between atoms: C_13  and  C_14
REMARK    4  A    between atoms: N_16  and  N_17
REMARK    5  A    between atoms: N_20  and  C_21
REMARK    6  A    between atoms: C_21  and  C_22
REMARK                            x       y       z     vdW  Elec       q    Type
REMARK                         _______ _______ _______ _____ _____    ______ ____
ROOT
ATOM      1  C   UNL     1       6.229  -4.626  -0.074  0.00  0.00    +0.267 C 
ATOM      2  O   UNL     1       7.177  -3.869  -0.079  0.00  0.00    -0.271 OA
ATOM      3  N   UNL     1       6.431  -5.958  -0.082  0.00  0.00    -0.230 N 
ATOM      4  H   UNL     1       5.673  -6.563  -0.078  0.00  0.00    +0.173 HD
ENDROOT
BRANCH   3   5
ATOM      5  N   UNL     1       7.735  -6.470  -0.095  0.00  0.00    -0.218 N 
ATOM      6  C   UNL     1       7.936  -7.802  -0.102  0.00  0.00    +0.316 C 
ATOM      7  O   UNL     1       9.068  -8.246  -0.114  0.00  0.00    -0.251 OA
ATOM      8  N   UNL     1       6.883  -8.643  -0.097  0.00  0.00    -0.298 N 
ATOM      9  H   UNL     1       8.493  -5.865  -0.099  0.00  0.00    +0.174 HD
ATOM     10  H   UNL     1       5.980  -8.289  -0.088  0.00  0.00    +0.150 HD
BRANCH   8  11
ATOM     11  C   UNL     1       7.102 -10.092  -0.105  0.00  0.00    +0.109 C 
BRANCH  11  12
ATOM     12  C   UNL     1       5.752 -10.811  -0.097  0.00  0.00    +0.006 C 
ATOM     13  C   UNL     1       5.422 -11.681   1.118  0.00  0.00    +0.005 C 
ATOM     14  C   UNL     1       5.763 -12.336  -0.222  0.00  0.00    +0.005 C 
ENDBRANCH  11  12
ENDBRANCH   8  11
ENDBRANCH   3   5
BRANCH   1  15
ATOM     15  C   UNL     1       4.827  -4.076  -0.060  0.00  0.00    +0.326 C 
BRANCH  15  16
ATOM     16  O   UNL     1       4.875  -2.647  -0.054  0.00  0.00    -0.482 OA
BRANCH  16  25
ATOM     17  C   UNL     1      -0.016   1.357   0.009  0.00  0.00    +0.001 A 
ATOM     18  C   UNL     1       1.168   2.091   0.002  0.00  0.00    +0.001 A 
ATOM     19  C   UNL     1       2.378   1.468  -0.013  0.00  0.00    +0.010 A 
ATOM     20  C   UNL     1       2.438   0.063  -0.021  0.00  0.00    -0.000 A 
ATOM     21  C   UNL     1       1.232  -0.683  -0.013  0.00  0.00    -0.017 A 
ATOM     22  C   UNL     1       0.002  -0.004   0.002  0.00  0.00    +0.008 A 
ATOM     23  C   UNL     1       1.288  -2.088  -0.020  0.00  0.00    +0.012 A 
ATOM     24  C   UNL     1       2.493  -2.718  -0.034  0.00  0.00    +0.047 A 
ATOM     25  C   UNL     1       3.686  -1.990  -0.041  0.00  0.00    +0.136 A 
ATOM     26  C   UNL     1       3.669  -0.613  -0.036  0.00  0.00    +0.067 A 
ATOM     27 BR   UNL     1       5.290   0.359  -0.046  0.00  0.00    -0.046 Br
ENDBRANCH  16  25
ENDBRANCH  15  16
ENDBRANCH   1  15
TORSDOF 6
