REMARK  Name = ZINC05156812
REMARK  7 active torsions:
REMARK  status: ('A' for Active; 'I' for Inactive)
REMARK    1  A    between atoms: C_1  and  C_2
REMARK    2  A    between atoms: C_8  and  C_10
REMARK    3  A    between atoms: N_11  and  N_12
REMARK    4  A    between atoms: C_19  and  O_27
REMARK    5  A    between atoms: O_27  and  C_28
REMARK    6  A    between atoms: C_29  and  C_33
REMARK    7  A    between atoms: C_29  and  C_34
REMARK                            x       y       z     vdW  Elec       q    Type
REMARK                         _______ _______ _______ _____ _____    ______ ____
ROOT
ATOM      1  N   UNL     1       0.002  -0.004   0.001  0.00  0.00    -0.184 N 
ATOM      2  C   UNL     1       1.183  -0.676  -0.008  0.00  0.00    +0.227 A 
ATOM      3  N   UNL     1       2.329  -0.055  -0.016  0.00  0.00    -0.233 NA
ATOM      4  C   UNL     1       2.392   1.288  -0.016  0.00  0.00    +0.103 A 
ATOM      5  C   UNL     1       3.499   2.253  -0.023  0.00  0.00    +0.026 A 
ATOM      6  C   UNL     1       4.889   2.121  -0.033  0.00  0.00    +0.016 A 
ATOM      7  C   UNL     1       5.680   3.234  -0.039  0.00  0.00    +0.046 A 
ATOM      8  C   UNL     1       5.109   4.504  -0.035  0.00  0.00    +0.122 A 
ATOM      9  C   UNL     1       3.735   4.656  -0.025  0.00  0.00    +0.072 A 
ATOM     10  C   UNL     1       2.914   3.532  -0.018  0.00  0.00    +0.053 A 
ATOM     11  N   UNL     1       1.544   3.380  -0.009  0.00  0.00    -0.349 N 
ATOM     12  H   UNL     1       0.904   4.109  -0.004  0.00  0.00    +0.166 HD
ATOM     13  C   UNL     1       1.216   2.036  -0.007  0.00  0.00    +0.133 A 
ATOM     14  C   UNL     1      -0.016   1.346   0.001  0.00  0.00    +0.298 A 
ATOM     15  O   UNL     1      -1.073   1.956   0.004  0.00  0.00    -0.263 OA
ENDROOT
BRANCH   1  17
ATOM     16  C   UNL     1      -1.195  -1.992  -0.094  0.00  0.00    +0.110 C 
ATOM     17  N   UNL     1      -1.204  -0.717   0.010  0.00  0.00    -0.175 NA
BRANCH  16  24
ATOM     18  C   UNL     1      -2.247  -2.590  -2.690  0.00  0.00    +0.008 C 
ATOM     19  C   UNL     1      -2.535  -3.532  -1.520  0.00  0.00    -0.001 C 
ATOM     20  C   UNL     1      -3.934  -4.118  -1.660  0.00  0.00    +0.034 C 
ATOM     21  C   UNL     1      -4.353  -4.864  -0.410  0.00  0.00    -0.069 C 
ATOM     22  C   UNL     1      -3.767  -4.702   0.737  0.00  0.00    -0.064 C 
ATOM     23  C   UNL     1      -2.596  -3.761   0.935  0.00  0.00    +0.040 C 
ATOM     24  C   UNL     1      -2.493  -2.750  -0.199  0.00  0.00    +0.039 C 
ATOM     25  C   UNL     1      -4.185  -5.448   1.987  0.00  0.00    -0.014 C 
ATOM     26  C   UNL     1      -5.586  -6.031   1.847  0.00  0.00    +0.011 C 
ATOM     27  C   UNL     1      -5.630  -6.814   0.527  0.00  0.00    +0.005 C 
ATOM     28  C   UNL     1      -5.525  -5.804  -0.608  0.00  0.00    +0.031 C 
ATOM     29  C   UNL     1      -3.195  -6.585   2.247  0.00  0.00    +0.015 C 
ATOM     30  C   UNL     1      -4.161  -4.485   3.176  0.00  0.00    +0.015 C 
ENDBRANCH  16  24
ENDBRANCH   1  17
BRANCH   8  31
ATOM     31  O   UNL     1       5.909   5.603  -0.041  0.00  0.00    -0.495 OA
ATOM     32  C   UNL     1       7.320   5.378  -0.052  0.00  0.00    +0.277 C 
ENDBRANCH   8  31
TORSDOF 3
