REMARK  Name = ZINC12314750
REMARK  10 active torsions:
REMARK  status: ('A' for Active; 'I' for Inactive)
REMARK    1  A    between atoms: C_1  and  C_2
REMARK    2  A    between atoms: C_2  and  O_3
REMARK    3  A    between atoms: O_3  and  C_4
REMARK    4  A    between atoms: C_9  and  C_10
REMARK    5  A    between atoms: C_10  and  N_11
REMARK    6  A    between atoms: C_17  and  C_19
REMARK    7  A    between atoms: C_19  and  C_20
REMARK    8  A    between atoms: N_22  and  C_23
REMARK    9  A    between atoms: C_23  and  C_24
REMARK   10  A    between atoms: C_24  and  C_25
REMARK                            x       y       z     vdW  Elec       q    Type
REMARK                         _______ _______ _______ _____ _____    ______ ____
ROOT
ATOM      1  N   UNL     1      -4.165  -0.912  -1.115  0.00  0.00    +0.391 N 
ATOM      2  C   UNL     1      -2.958  -0.148  -1.465  0.00  0.00    -0.058 C 
ATOM      3  C   UNL     1      -2.949   0.096  -2.976  0.00  0.00    +0.085 C 
ATOM      4  N   UNL     1      -4.230   0.658  -3.396  0.00  0.00    -0.318 N 
ATOM      5  C   UNL     1      -5.331   0.590  -2.638  0.00  0.00    +0.200 C 
ATOM      6  O   UNL     1      -6.363   1.059  -3.067  0.00  0.00    -0.278 OA
ATOM      7  C   UNL     1      -5.340  -0.046  -1.276  0.00  0.00    +0.028 C 
ATOM      8  H   UNL     1      -4.286   1.098  -4.258  0.00  0.00    +0.149 HD
ATOM      9  H   UNL     1      -4.249  -1.712  -1.725  0.00  0.00    -0.080 HD
ENDROOT
BRANCH   1  10
ATOM     10  C   UNL     1      -4.074  -1.364   0.279  0.00  0.00    -0.038 C 
BRANCH  10  16
ATOM     11  C   UNL     1      -1.655  -1.904   0.653  0.00  0.00    +0.122 A 
ATOM     12  C   UNL     1      -0.618  -2.818   0.783  0.00  0.00    +0.046 A 
ATOM     13  C   UNL     1      -0.873  -4.170   0.669  0.00  0.00    +0.004 A 
ATOM     14  C   UNL     1      -2.159  -4.615   0.426  0.00  0.00    +0.000 A 
ATOM     15  C   UNL     1      -3.194  -3.707   0.296  0.00  0.00    +0.005 A 
ATOM     16  C   UNL     1      -2.945  -2.353   0.415  0.00  0.00    -0.022 A 
BRANCH  11  17
ATOM     17  O   UNL     1      -1.407  -0.573   0.766  0.00  0.00    -0.492 OA
BRANCH  17  19
ATOM     18  C   UNL     1       0.029   1.341   1.107  0.00  0.00    +0.048 C 
ATOM     19  C   UNL     1      -0.054  -0.183   1.011  0.00  0.00    +0.225 C 
ENDBRANCH  17  19
ENDBRANCH  11  17
ENDBRANCH  10  16
ENDBRANCH   1  10
BRANCH   7  20
ATOM     20  C   UNL     1      -6.612  -0.881  -1.115  0.00  0.00    +0.089 C 
BRANCH  20  21
ATOM     21  C   UNL     1      -6.659  -1.937  -2.188  0.00  0.00    +0.212 C 
ATOM     22  O   UNL     1      -5.821  -1.949  -3.065  0.00  0.00    -0.276 OA
ATOM     23  N   UNL     1      -7.634  -2.868  -2.175  0.00  0.00    -0.315 N 
ATOM     24  H   UNL     1      -8.304  -2.858  -1.474  0.00  0.00    +0.149 HD
BRANCH  23  25
ATOM     25  C   UNL     1      -7.680  -3.895  -3.219  0.00  0.00    +0.108 C 
BRANCH  25  26
ATOM     26  C   UNL     1      -8.874  -4.819  -2.972  0.00  0.00    +0.049 C 
BRANCH  26  27
ATOM     27  C   UNL     1      -8.922  -5.875  -4.046  0.00  0.00    -0.072 C 
ATOM     28  C   UNL     1      -8.371  -7.020  -3.796  0.00  0.00    -0.028 C 
ATOM     29  C   UNL     1      -8.329  -8.162  -4.768  0.00  0.00    +0.027 C 
ATOM     30  C   UNL     1      -9.362  -7.950  -5.877  0.00  0.00    +0.004 C 
ATOM     31  C   UNL     1      -9.197  -6.528  -6.428  0.00  0.00    +0.005 C 
ATOM     32  C   UNL     1      -9.611  -5.537  -5.335  0.00  0.00    +0.030 C 
ENDBRANCH  26  27
ENDBRANCH  25  26
ENDBRANCH  23  25
ENDBRANCH  20  21
ENDBRANCH   7  20
TORSDOF 9
