REMARK  Name = ZINC40341993
REMARK  5 active torsions:
REMARK  status: ('A' for Active; 'I' for Inactive)
REMARK    1  A    between atoms: C_1  and  C_2
REMARK    2  A    between atoms: C_5  and  C_8
REMARK    3  A    between atoms: C_11  and  C_26
REMARK    4  A    between atoms: N_18  and  C_19
REMARK    5  A    between atoms: C_19  and  C_20
REMARK                            x       y       z     vdW  Elec       q    Type
REMARK                         _______ _______ _______ _____ _____    ______ ____
ROOT
ATOM      1  C   UNL     1       0.059  -4.275  -0.021  0.00  0.00    +0.142 C 
ATOM      2  C   UNL     1      -1.319  -4.812   0.251  0.00  0.00    +0.035 A 
ATOM      3  C   UNL     1      -2.656  -4.889  -0.153  0.00  0.00    +0.099 A 
ATOM      4  N   UNL     1      -3.292  -5.638   0.727  0.00  0.00    -0.173 NA
ATOM      5  N   UNL     1      -2.489  -6.041   1.646  0.00  0.00    -0.272 N 
ATOM      6  H   UNL     1      -2.738  -6.603   2.396  0.00  0.00    +0.189 HD
ATOM      7  C   UNL     1      -1.232  -5.560   1.410  0.00  0.00    +0.126 A 
ATOM      8  C   UNL     1       0.154  -5.519   1.889  0.00  0.00    +0.266 C 
ATOM      9  O   UNL     1       0.560  -6.079   2.889  0.00  0.00    -0.268 OA
ATOM     10  N   UNL     1       0.914  -4.776   1.063  0.00  0.00    -0.281 N 
ENDROOT
BRANCH   1  15
ATOM     11  C   UNL     1      -0.018   1.503   0.010  0.00  0.00    +0.044 C 
ATOM     12  C   UNL     1       0.002  -0.004   0.002  0.00  0.00    -0.050 A 
ATOM     13  C   UNL     1       0.006  -0.689  -1.199  0.00  0.00    +0.004 A 
ATOM     14  C   UNL     1       0.025  -2.071  -1.206  0.00  0.00    +0.006 A 
ATOM     15  C   UNL     1       0.040  -2.768  -0.013  0.00  0.00    -0.022 A 
ATOM     16  C   UNL     1       0.037  -2.084   1.188  0.00  0.00    +0.006 A 
ATOM     17  C   UNL     1       0.023  -0.702   1.195  0.00  0.00    +0.004 A 
ENDBRANCH   1  15
BRANCH   3  18
ATOM     18  C   UNL     1      -3.250  -4.246  -1.352  0.00  0.00    +0.003 A 
ATOM     19  C   UNL     1      -2.790  -3.002  -1.777  0.00  0.00    +0.011 A 
ATOM     20  C   UNL     1      -3.345  -2.408  -2.892  0.00  0.00    +0.020 A 
ATOM     21  C   UNL     1      -4.358  -3.046  -3.588  0.00  0.00    +0.041 A 
ATOM     22  C   UNL     1      -4.818  -4.283  -3.169  0.00  0.00    +0.020 A 
ATOM     23  C   UNL     1      -4.265  -4.888  -2.058  0.00  0.00    +0.011 A 
ATOM     24 CL   UNL     1      -5.053  -2.294  -4.989  0.00  0.00    -0.084 Cl
ENDBRANCH   3  18
BRANCH  10  25
ATOM     25  C   UNL     1       2.347  -4.511   1.218  0.00  0.00    +0.144 C 
BRANCH  25  26
ATOM     26  C   UNL     1       2.540  -3.263   2.040  0.00  0.00    -0.030 A 
ATOM     27  C   UNL     1       2.610  -2.030   1.419  0.00  0.00    +0.005 A 
ATOM     28  C   UNL     1       2.787  -0.885   2.173  0.00  0.00    +0.000 A 
ATOM     29  C   UNL     1       2.895  -0.973   3.549  0.00  0.00    +0.000 A 
ATOM     30  C   UNL     1       2.825  -2.206   4.170  0.00  0.00    +0.000 A 
ATOM     31  C   UNL     1       2.643  -3.350   3.416  0.00  0.00    +0.005 A 
ENDBRANCH  25  26
ENDBRANCH  10  25
TORSDOF 4
