REMARK  Name = ZINC39227799
REMARK  9 active torsions:
REMARK  status: ('A' for Active; 'I' for Inactive)
REMARK    1  A    between atoms: C_1  and  C_2
REMARK    2  A    between atoms: C_2  and  C_3
REMARK    3  A    between atoms: C_6  and  N_9
REMARK    4  A    between atoms: C_10  and  C_12
REMARK    5  A    between atoms: C_27  and  O_29
REMARK    6  A    between atoms: O_29  and  C_30
REMARK    7  A    between atoms: C_30  and  C_31
REMARK    8  A    between atoms: C_30  and  C_32
REMARK    9  A    between atoms: C_30  and  C_33
REMARK                            x       y       z     vdW  Elec       q    Type
REMARK                         _______ _______ _______ _____ _____    ______ ____
ROOT
ATOM      1  C   UNL     1      -7.444  -2.522  -1.095  0.00  0.00    +0.170 C 
ATOM      2  C   UNL     1      -8.326  -1.283  -0.898  0.00  0.00    +0.069 C 
ATOM      3  C   UNL     1      -9.750  -1.635  -1.244  0.00  0.00    -0.015 A 
ATOM      4  C   UNL     1     -10.962  -0.925  -0.888  0.00  0.00    +0.003 A 
ATOM      5  C   UNL     1     -11.196   0.241  -0.152  0.00  0.00    +0.010 A 
ATOM      6  C   UNL     1     -12.504   0.633  -0.010  0.00  0.00    +0.001 A 
ATOM      7  C   UNL     1     -13.552  -0.083  -0.565  0.00  0.00    +0.002 A 
ATOM      8  C   UNL     1     -13.349  -1.241  -1.297  0.00  0.00    +0.026 A 
ATOM      9  C   UNL     1     -12.031  -1.663  -1.458  0.00  0.00    +0.047 A 
ATOM     10  N   UNL     1     -11.486  -2.733  -2.106  0.00  0.00    -0.356 N 
ATOM     11  C   UNL     1     -10.123  -2.710  -1.972  0.00  0.00    +0.038 A 
ATOM     12  H   UNL     1     -11.987  -3.409  -2.589  0.00  0.00    +0.166 HD
ATOM     13  C   UNL     1      -9.145  -3.718  -2.532  0.00  0.00    +0.165 C 
ATOM     14  N   UNL     1      -7.791  -3.159  -2.374  0.00  0.00    -0.250 N 
ATOM     15  C   UNL     1      -6.894  -3.226  -3.378  0.00  0.00    +0.404 C 
ATOM     16  O   UNL     1      -5.817  -2.675  -3.269  0.00  0.00    -0.226 OA
ENDROOT
BRANCH   1  18
ATOM     17  N   UNL     1      -5.084  -2.826  -0.421  0.00  0.00    -0.284 N 
ATOM     18  C   UNL     1      -5.994  -2.112  -1.112  0.00  0.00    +0.238 C 
ATOM     19  O   UNL     1      -5.647  -1.140  -1.748  0.00  0.00    -0.273 OA
ATOM     20  H   UNL     1      -5.348  -3.646   0.026  0.00  0.00    +0.155 HD
BRANCH  17  24
ATOM     21  C   UNL     1      -1.137  -1.512  -0.200  0.00  0.00    -0.048 A 
ATOM     22  C   UNL     1      -2.158  -0.600  -0.393  0.00  0.00    +0.005 A 
ATOM     23  C   UNL     1      -3.467  -1.032  -0.466  0.00  0.00    +0.023 A 
ATOM     24  C   UNL     1      -3.758  -2.385  -0.347  0.00  0.00    +0.033 A 
ATOM     25  C   UNL     1      -2.730  -3.298  -0.154  0.00  0.00    +0.023 A 
ATOM     26  C   UNL     1      -1.422  -2.860  -0.086  0.00  0.00    +0.005 A 
BRANCH  21  28
ATOM     27  C   UNL     1       0.904  -1.023  -1.522  0.00  0.00    +0.009 C 
ATOM     28  C   UNL     1       0.291  -1.036  -0.120  0.00  0.00    +0.032 C 
ENDBRANCH  21  28
ENDBRANCH  17  24
ENDBRANCH   1  18
BRANCH  15  29
ATOM     29  O   UNL     1      -7.193  -3.904  -4.503  0.00  0.00    -0.445 OA
BRANCH  29  30
ATOM     30  C   UNL     1      -6.196  -3.934  -5.526  0.00  0.00    +0.107 C 
ATOM     31  C   UNL     1      -4.923  -4.585  -4.979  0.00  0.00    +0.055 C 
ATOM     32  C   UNL     1      -6.711  -4.744  -6.717  0.00  0.00    +0.055 C 
ATOM     33  C   UNL     1      -5.885  -2.506  -5.977  0.00  0.00    +0.055 C 
ENDBRANCH  29  30
ENDBRANCH  15  29
TORSDOF 5
