REMARK  Name = ZINC01070292
REMARK  4 active torsions:
REMARK  status: ('A' for Active; 'I' for Inactive)
REMARK    1  A    between atoms: C_13  and  N_29
REMARK    2  A    between atoms: C_14  and  C_27
REMARK    3  A    between atoms: C_15  and  C_17
REMARK    4  A    between atoms: C_22  and  C_23
REMARK                            x       y       z     vdW  Elec       q    Type
REMARK                         _______ _______ _______ _____ _____    ______ ____
ROOT
ATOM      1  C   UNL     1       4.616   5.614   0.666  0.00  0.00    +0.001 A 
ATOM      2  C   UNL     1       5.621   4.738   0.282  0.00  0.00    +0.004 A 
ATOM      3  C   UNL     1       5.327   3.438  -0.067  0.00  0.00    +0.047 A 
ATOM      4  C   UNL     1       4.010   2.993  -0.036  0.00  0.00    +0.143 A 
ATOM      5  C   UNL     1       2.995   3.880   0.352  0.00  0.00    +0.065 A 
ATOM      6  C   UNL     1       3.305   5.192   0.703  0.00  0.00    +0.015 A 
ATOM      7  C   UNL     1       1.606   3.381   0.375  0.00  0.00    +0.200 A 
ATOM      8  O   UNL     1       0.680   4.104   0.706  0.00  0.00    -0.287 OA
ATOM      9  C   UNL     1       1.388   2.037  -0.000  0.00  0.00    +0.093 A 
ATOM     10  C   UNL     1       2.437   1.256  -0.363  0.00  0.00    +0.301 A 
ATOM     11  O   UNL     1       3.698   1.727  -0.374  0.00  0.00    -0.424 OA
ATOM     12  O   UNL     1       2.241  -0.031  -0.726  0.00  0.00    -0.410 OA
ATOM     13  C   UNL     1       1.121  -0.676  -0.361  0.00  0.00    +0.202 C 
ATOM     14  C   UNL     1       0.002  -0.004   0.002  0.00  0.00    +0.098 C 
ATOM     15  C   UNL     1      -0.018   1.499   0.010  0.00  0.00    +0.105 C 
ENDROOT
BRANCH  15  16
ATOM     16  C   UNL     1      -0.752   1.996  -1.209  0.00  0.00    -0.023 A 
ATOM     17  C   UNL     1      -0.291   1.673  -2.472  0.00  0.00    +0.005 A 
ATOM     18  C   UNL     1      -0.965   2.128  -3.590  0.00  0.00    +0.000 A 
ATOM     19  C   UNL     1      -2.099   2.906  -3.445  0.00  0.00    +0.001 A 
ATOM     20  C   UNL     1      -2.560   3.227  -2.183  0.00  0.00    +0.012 A 
ATOM     21  C   UNL     1      -1.889   2.769  -1.064  0.00  0.00    +0.059 A 
BRANCH  21  22
ATOM     22  C   UNL     1      -2.394   3.115   0.312  0.00  0.00    +0.418 C 
ATOM     23  F   UNL     1      -3.548   3.899   0.202  0.00  0.00    -0.166 F 
ATOM     24  F   UNL     1      -2.694   1.939   1.009  0.00  0.00    -0.166 F 
ATOM     25  F   UNL     1      -1.410   3.829   1.005  0.00  0.00    -0.166 F 
ENDBRANCH  21  22
ENDBRANCH  15  16
BRANCH  13  26
ATOM     26  N   UNL     1       1.110  -2.049  -0.355  0.00  0.00    -0.328 N 
ATOM     27  H   UNL     1       0.307  -2.526  -0.093  0.00  0.00    +0.145 HD
ATOM     28  H   UNL     1       1.905  -2.541  -0.613  0.00  0.00    +0.145 HD
ENDBRANCH  13  26
BRANCH  14  29
ATOM     29  C   UNL     1      -1.171  -0.732   0.382  0.00  0.00    +0.101 C 
ATOM     30  N   UNL     1      -2.102  -1.309   0.682  0.00  0.00    -0.191 NA
ENDBRANCH  14  29
TORSDOF 4
