REMARK  Name = ZINC39666585
REMARK  12 active torsions:
REMARK  status: ('A' for Active; 'I' for Inactive)
REMARK    1  A    between atoms: C_1  and  C_2
REMARK    2  A    between atoms: C_2  and  C_3
REMARK    3  A    between atoms: C_3  and  C_4
REMARK    4  A    between atoms: C_4  and  C_5
REMARK    5  A    between atoms: C_5  and  C_7
REMARK    6  A    between atoms: C_5  and  C_8
REMARK    7  A    between atoms: C_12  and  C_21
REMARK    8  A    between atoms: N_23  and  C_24
REMARK    9  A    between atoms: C_24  and  C_25
REMARK   10  A    between atoms: C_25  and  C_27
REMARK   11  A    between atoms: C_25  and  O_28
REMARK   12  A    between atoms: O_28  and  C_29
REMARK                            x       y       z     vdW  Elec       q    Type
REMARK                         _______ _______ _______ _____ _____    ______ ____
ROOT
ATOM      1  C   UNL     1       1.529  -3.898   2.132  0.00  0.00    +0.218 C 
ATOM      2  O   UNL     1       1.206  -4.494   1.126  0.00  0.00    -0.275 OA
ATOM      3  N   UNL     1       2.024  -4.574   3.187  0.00  0.00    -0.300 N 
ATOM      4  C   UNL     1       2.370  -4.043   4.526  0.00  0.00    +0.121 C 
ATOM      5  C   UNL     1       1.909  -5.139   5.513  0.00  0.00    +0.100 C 
ATOM      6  C   UNL     1       1.897  -6.434   4.683  0.00  0.00    -0.004 C 
ATOM      7  C   UNL     1       2.340  -6.021   3.272  0.00  0.00    +0.115 C 
ATOM      8  C   UNL     1       0.489  -7.019   4.637  0.00  0.00    -0.010 C 
ATOM      9  C   UNL     1       0.514  -8.335   3.855  0.00  0.00    -0.082 C 
ATOM     10  N   UNL     1       1.435  -9.275   4.505  0.00  0.00    +0.379 N 
ATOM     11  C   UNL     1       2.803  -8.745   4.462  0.00  0.00    -0.082 C 
ATOM     12  C   UNL     1       2.876  -7.447   5.269  0.00  0.00    -0.010 C 
ATOM     13  H   UNL     1       1.157  -9.407   5.465  0.00  0.00    -0.086 HD
ATOM     14  H   UNL     1       1.404 -10.162   4.023  0.00  0.00    -0.086 HD
ENDROOT
BRANCH   5  15
ATOM     15  C   UNL     1       2.881  -5.256   6.659  0.00  0.00    +0.218 C 
ATOM     16  O   UNL     1       4.065  -5.075   6.470  0.00  0.00    -0.275 OA
ATOM     17  N   UNL     1       2.434  -5.562   7.893  0.00  0.00    -0.312 N 
ATOM     18  H   UNL     1       1.487  -5.706   8.043  0.00  0.00    +0.149 HD
BRANCH  17  19
ATOM     19  C   UNL     1       3.379  -5.676   9.007  0.00  0.00    +0.148 C 
BRANCH  19  20
ATOM     20  C   UNL     1       2.618  -6.028  10.286  0.00  0.00    +0.187 C 
ATOM     21  C   UNL     1       3.605  -6.147  11.450  0.00  0.00    +0.053 C 
BRANCH  20  22
ATOM     22  O   UNL     1       1.666  -5.002  10.573  0.00  0.00    -0.486 OA
BRANCH  22  23
ATOM     23  C   UNL     1       0.584  -5.355  11.317  0.00  0.00    +0.139 A 
ATOM     24  C   UNL     1       0.500  -6.627  11.862  0.00  0.00    +0.047 A 
ATOM     25  C   UNL     1      -0.600  -6.983  12.618  0.00  0.00    +0.004 A 
ATOM     26  C   UNL     1      -1.618  -6.072  12.832  0.00  0.00    +0.002 A 
ATOM     27  C   UNL     1      -1.538  -4.802  12.290  0.00  0.00    +0.023 A 
ATOM     28  C   UNL     1      -0.436  -4.439  11.537  0.00  0.00    +0.083 A 
ATOM     29 CL   UNL     1      -0.332  -2.843  10.863  0.00  0.00    -0.080 Cl
ENDBRANCH  22  23
ENDBRANCH  20  22
ENDBRANCH  19  20
ENDBRANCH  17  19
ENDBRANCH   5  15
BRANCH   1  30
ATOM     30  C   UNL     1       1.376  -2.400   2.202  0.00  0.00    +0.072 C 
ATOM     31  C   UNL     1       0.034  -2.054   2.849  0.00  0.00    +0.017 C 
BRANCH  30  32
ATOM     32  C   UNL     1       1.426  -1.816   0.788  0.00  0.00    +0.012 C 
BRANCH  32  33
ATOM     33  C   UNL     1       1.397  -0.288   0.867  0.00  0.00    +0.000 C 
BRANCH  33  35
ATOM     34  C   UNL     1       1.418   1.823  -0.468  0.00  0.00    +0.004 C 
ATOM     35  C   UNL     1       1.447   0.296  -0.546  0.00  0.00    -0.003 C 
ENDBRANCH  33  35
ENDBRANCH  32  33
ENDBRANCH  30  32
ENDBRANCH   1  30
TORSDOF 9
