REMARK  Name = ZINC45928397
REMARK  5 active torsions:
REMARK  status: ('A' for Active; 'I' for Inactive)
REMARK    1  A    between atoms: C_1  and  C_2
REMARK    2  A    between atoms: C_11  and  O_12
REMARK    3  A    between atoms: O_12  and  C_13
REMARK    4  A    between atoms: C_13  and  C_15
REMARK    5  A    between atoms: C_13  and  C_16
REMARK                            x       y       z     vdW  Elec       q    Type
REMARK                         _______ _______ _______ _____ _____    ______ ____
ROOT
ATOM      1  C   UNL     1      -0.440   1.498   0.051  0.00  0.00    +0.047 C 
ATOM      2  C   UNL     1      -0.426  -0.009   0.044  0.00  0.00    -0.006 A 
ATOM      3  C   UNL     1      -0.641  -0.689  -1.117  0.00  0.00    +0.046 A 
ATOM      4  C   UNL     1      -0.632  -2.083  -1.146  0.00  0.00    +0.021 A 
ATOM      5  C   UNL     1      -0.407  -2.802  -0.011  0.00  0.00    +0.015 A 
ATOM      6  C   UNL     1      -0.182  -2.134   1.201  0.00  0.00    +0.042 A 
ATOM      7  C   UNL     1      -0.186  -0.718   1.233  0.00  0.00    +0.079 A 
ATOM      8  N   UNL     1       0.033  -0.075   2.385  0.00  0.00    -0.254 NA
ATOM      9  C   UNL     1       0.259  -0.725   3.503  0.00  0.00    +0.115 A 
ATOM     10  C   UNL     1       0.284  -2.113   3.552  0.00  0.00    +0.066 A 
ATOM     11  C   UNL     1       0.054  -2.844   2.400  0.00  0.00    +0.132 A 
ATOM     12 CL   UNL     1      -0.932   0.194  -2.584  0.00  0.00    -0.083 Cl
ENDROOT
BRANCH  11  13
ATOM     13  O   UNL     1       0.071  -4.200   2.417  0.00  0.00    -0.477 OA
BRANCH  13  14
ATOM     14  C   UNL     1       0.215  -4.830   3.692  0.00  0.00    +0.282 C 
ATOM     15  C   UNL     1       1.699  -4.925   4.050  0.00  0.00    +0.064 C 
BRANCH  14  16
ATOM     16  C   UNL     1      -0.378  -6.215   3.637  0.00  0.00    +0.395 C 
ATOM     17  O   UNL     1      -0.794  -6.658   2.580  0.00  0.00    -0.242 OA
ATOM     18  O   UNL     1      -0.441  -6.891   4.649  0.00  0.00    -0.242 OA
ENDBRANCH  14  16
ENDBRANCH  13  14
ENDBRANCH  11  13
TORSDOF 3
