REMARK  Name = ZINC25499497
REMARK  7 active torsions:
REMARK  status: ('A' for Active; 'I' for Inactive)
REMARK    1  A    between atoms: C_1  and  C_2
REMARK    2  A    between atoms: C_4  and  C_22
REMARK    3  A    between atoms: C_5  and  C_9
REMARK    4  A    between atoms: C_9  and  C_10
REMARK    5  A    between atoms: C_13  and  C_16
REMARK    6  A    between atoms: C_23  and  C_24
REMARK    7  A    between atoms: C_27  and  O_30
REMARK                            x       y       z     vdW  Elec       q    Type
REMARK                         _______ _______ _______ _____ _____    ______ ____
ROOT
ATOM      1  C   UNL     1      -0.018   1.503   0.010  0.00  0.00    +0.086 C 
ATOM      2  C   UNL     1       0.002  -0.004   0.002  0.00  0.00    +0.107 A 
ATOM      3  N   UNL     1       0.005  -0.632  -1.140  0.00  0.00    -0.234 NA
ATOM      4  C   UNL     1       0.023  -1.978  -1.197  0.00  0.00    +0.074 A 
ATOM      5  C   UNL     1       0.039  -2.714  -0.017  0.00  0.00    +0.047 A 
ATOM      6  C   UNL     1       0.035  -2.019   1.203  0.00  0.00    +0.256 A 
ATOM      7  N   UNL     1       0.022  -0.670   1.181  0.00  0.00    -0.311 N 
ATOM      8  O   UNL     1       0.048  -2.624   2.263  0.00  0.00    -0.267 OA
ATOM      9  H   UNL     1       0.024  -0.174   2.015  0.00  0.00    +0.170 HD
ENDROOT
BRANCH   4  10
ATOM     10  C   UNL     1       0.026  -2.664  -2.496  0.00  0.00    +0.029 C 
ATOM     11  C   UNL     1       0.010  -1.947  -3.636  0.00  0.00    +0.010 C 
BRANCH  11  12
ATOM     12  C   UNL     1       0.013  -2.634  -4.937  0.00  0.00    -0.025 A 
ATOM     13  C   UNL     1       0.026  -4.031  -4.993  0.00  0.00    +0.011 A 
ATOM     14  C   UNL     1       0.028  -4.670  -6.213  0.00  0.00    +0.046 A 
ATOM     15  C   UNL     1       0.018  -3.927  -7.388  0.00  0.00    +0.117 A 
ATOM     16  C   UNL     1       0.005  -2.538  -7.338  0.00  0.00    +0.046 A 
ATOM     17  C   UNL     1      -0.004  -1.891  -6.122  0.00  0.00    +0.011 A 
BRANCH  15  18
ATOM     18  O   UNL     1       0.021  -4.561  -8.589  0.00  0.00    -0.507 OA
ATOM     19  H   UNL     1      -0.862  -4.753  -8.934  0.00  0.00    +0.292 HD
ENDBRANCH  15  18
ENDBRANCH  11  12
ENDBRANCH   4  10
BRANCH   5  20
ATOM     20  C   UNL     1       0.059  -4.220  -0.046  0.00  0.00    +0.077 C 
BRANCH  20  21
ATOM     21  C   UNL     1       1.481  -4.706   0.061  0.00  0.00    -0.043 A 
ATOM     22  C   UNL     1       2.233  -4.899  -1.083  0.00  0.00    +0.004 A 
ATOM     23  C   UNL     1       3.538  -5.344  -0.985  0.00  0.00    +0.004 A 
ATOM     24  C   UNL     1       4.091  -5.597   0.257  0.00  0.00    -0.044 A 
ATOM     25  C   UNL     1       3.339  -5.403   1.400  0.00  0.00    +0.004 A 
ATOM     26  C   UNL     1       2.035  -4.954   1.302  0.00  0.00    +0.004 A 
BRANCH  24  27
ATOM     27  C   UNL     1       5.513  -6.084   0.363  0.00  0.00    +0.019 C 
ATOM     28  C   UNL     1       5.535  -7.448   1.056  0.00  0.00    +0.008 C 
ATOM     29  C   UNL     1       6.979  -7.942   1.164  0.00  0.00    +0.001 C 
ATOM     30  C   UNL     1       7.800  -6.943   1.981  0.00  0.00    +0.000 C 
ATOM     31  C   UNL     1       7.778  -5.578   1.289  0.00  0.00    +0.001 C 
ATOM     32  C   UNL     1       6.334  -5.084   1.181  0.00  0.00    +0.008 C 
ENDBRANCH  24  27
ENDBRANCH  20  21
ENDBRANCH   5  20
TORSDOF 6
