REMARK  Name = ZINC38903683
REMARK  14 active torsions:
REMARK  status: ('A' for Active; 'I' for Inactive)
REMARK    1  A    between atoms: C_1  and  C_2
REMARK    2  A    between atoms: C_2  and  C_3
REMARK    3  A    between atoms: C_2  and  C_4
REMARK    4  A    between atoms: C_2  and  C_5
REMARK    5  A    between atoms: C_8  and  C_11
REMARK    6  A    between atoms: C_13  and  C_16
REMARK    7  A    between atoms: C_16  and  N_17
REMARK    8  A    between atoms: C_21  and  C_24
REMARK    9  A    between atoms: N_26  and  C_27
REMARK   10  A    between atoms: C_27  and  C_28
REMARK   11  A    between atoms: C_28  and  C_29
REMARK   12  A    between atoms: C_29  and  S_30
REMARK   13  A    between atoms: S_30  and  C_31
REMARK   14  A    between atoms: C_31  and  C_32
REMARK                            x       y       z     vdW  Elec       q    Type
REMARK                         _______ _______ _______ _____ _____    ______ ____
ROOT
ATOM      1  N   UNL     1       6.448  -3.218  -6.445  0.00  0.00    +0.386 N 
ATOM      2  C   UNL     1       6.741  -3.058  -5.016  0.00  0.00    -0.078 C 
ATOM      3  C   UNL     1       7.553  -4.257  -4.520  0.00  0.00    -0.018 C 
ATOM      4  C   UNL     1       8.865  -4.337  -5.306  0.00  0.00    +0.009 C 
ATOM      5  C   UNL     1       8.548  -4.429  -6.801  0.00  0.00    +0.058 C 
ATOM      6  C   UNL     1       7.700  -3.224  -7.212  0.00  0.00    -0.065 C 
ATOM      7  H   UNL     1       5.961  -4.090  -6.591  0.00  0.00    -0.081 HD
ENDROOT
BRANCH   5   8
ATOM      8  C   UNL     1       9.834  -4.432  -7.588  0.00  0.00    +0.214 C 
ATOM      9  O   UNL     1      10.049  -3.559  -8.402  0.00  0.00    -0.276 OA
ATOM     10  N   UNL     1      10.744  -5.406  -7.388  0.00  0.00    -0.315 N 
ATOM     11  H   UNL     1      10.572  -6.105  -6.738  0.00  0.00    +0.149 HD
BRANCH  10  12
ATOM     12  C   UNL     1      11.993  -5.409  -8.153  0.00  0.00    +0.105 C 
BRANCH  12  13
ATOM     13  C   UNL     1      12.842  -6.612  -7.738  0.00  0.00    +0.029 C 
BRANCH  13  14
ATOM     14  C   UNL     1      14.147  -6.615  -8.537  0.00  0.00    +0.071 C 
BRANCH  14  15
ATOM     15  S   UNL     1      15.154  -8.041  -8.044  0.00  0.00    -0.156 S 
BRANCH  15  16
ATOM     16  C   UNL     1      16.645  -7.902  -9.069  0.00  0.00    +0.104 C 
BRANCH  16  17
ATOM     17  C   UNL     1      17.579  -9.041  -8.755  0.00  0.00    -0.037 A 
ATOM     18  C   UNL     1      18.526  -8.903  -7.757  0.00  0.00    +0.007 A 
ATOM     19  C   UNL     1      19.383  -9.947  -7.467  0.00  0.00    +0.038 A 
ATOM     20  C   UNL     1      19.294 -11.133  -8.177  0.00  0.00    +0.123 A 
ATOM     21  C   UNL     1      18.345 -11.270  -9.176  0.00  0.00    +0.038 A 
ATOM     22  C   UNL     1      17.485 -10.226  -9.460  0.00  0.00    +0.007 A 
ATOM     23  F   UNL     1      20.132 -12.154  -7.896  0.00  0.00    -0.205 F 
ENDBRANCH  16  17
ENDBRANCH  15  16
ENDBRANCH  14  15
ENDBRANCH  13  14
ENDBRANCH  12  13
ENDBRANCH  10  12
ENDBRANCH   5   8
BRANCH   1  24
ATOM     24  C   UNL     1       5.603  -2.105  -6.898  0.00  0.00    +0.022 C 
BRANCH  24  27
ATOM     25  C   UNL     1       2.698  -1.862  -4.737  0.00  0.00    +0.202 A 
ATOM     26  N   UNL     1       3.975  -1.598  -5.067  0.00  0.00    -0.193 NA
ATOM     27  C   UNL     1       4.270  -2.170  -6.200  0.00  0.00    +0.211 A 
ATOM     28  O   UNL     1       3.187  -2.825  -6.639  0.00  0.00    -0.340 OA
ATOM     29  N   UNL     1       2.172  -2.617  -5.669  0.00  0.00    -0.056 NA
BRANCH  25  33
ATOM     30  C   UNL     1       0.707  -0.490  -1.238  0.00  0.00    -0.042 A 
ATOM     31  C   UNL     1       0.033  -1.285  -2.147  0.00  0.00    +0.005 A 
ATOM     32  C   UNL     1       0.674  -1.733  -3.285  0.00  0.00    +0.012 A 
ATOM     33  C   UNL     1       2.003  -1.383  -3.516  0.00  0.00    +0.022 A 
ATOM     34  C   UNL     1       2.678  -0.582  -2.596  0.00  0.00    +0.012 A 
ATOM     35  C   UNL     1       2.025  -0.135  -1.465  0.00  0.00    +0.005 A 
BRANCH  30  37
ATOM     36  C   UNL     1      -0.019   1.526   0.010  0.00  0.00    +0.015 C 
ATOM     37  C   UNL     1       0.002  -0.004   0.002  0.00  0.00    -0.013 C 
ATOM     38  C   UNL     1       0.742  -0.511   1.242  0.00  0.00    +0.015 C 
ATOM     39  C   UNL     1      -1.433  -0.534   0.013  0.00  0.00    +0.015 C 
ENDBRANCH  30  37
ENDBRANCH  25  33
ENDBRANCH  24  27
ENDBRANCH   1  24
TORSDOF 11
