REMARK  Name = ZINC09578811
REMARK  6 active torsions:
REMARK  status: ('A' for Active; 'I' for Inactive)
REMARK    1  A    between atoms: C_4  and  C_7
REMARK    2  A    between atoms: C_18  and  C_20
REMARK    3  A    between atoms: C_20  and  N_64
REMARK    4  A    between atoms: C_23  and  C_26
REMARK    5  A    between atoms: N_28  and  C_29
REMARK    6  A    between atoms: C_34  and  O_35
REMARK                            x       y       z     vdW  Elec       q    Type
REMARK                         _______ _______ _______ _____ _____    ______ ____
ROOT
ATOM      1  C   UNL     1      -2.069   6.874   2.978  0.00  0.00    +0.019 C 
ENDROOT
BRANCH   1  12
ATOM      2  C   UNL     1      -2.602   5.736   0.402  0.00  0.00    +0.149 C 
ATOM      3  C   UNL     1      -2.759   4.394  -0.328  0.00  0.00    +0.256 C 
ATOM      4  O   UNL     1      -1.788   4.322  -1.375  0.00  0.00    -0.488 OA
ATOM      5  C   UNL     1      -0.498   4.615  -1.064  0.00  0.00    +0.142 A 
ATOM      6  C   UNL     1       0.525   4.171  -1.889  0.00  0.00    +0.047 A 
ATOM      7  C   UNL     1       1.839   4.466  -1.581  0.00  0.00    +0.004 A 
ATOM      8  C   UNL     1       2.143   5.205  -0.453  0.00  0.00    +0.002 A 
ATOM      9  C   UNL     1       1.130   5.651   0.376  0.00  0.00    +0.027 A 
ATOM     10  C   UNL     1      -0.190   5.356   0.073  0.00  0.00    +0.079 A 
ATOM     11  N   UNL     1      -1.223   5.804   0.915  0.00  0.00    -0.259 N 
ATOM     12  C   UNL     1      -0.961   6.279   2.149  0.00  0.00    +0.204 C 
ATOM     13  O   UNL     1       0.168   6.227   2.592  0.00  0.00    -0.277 OA
BRANCH   2  17
ATOM     14  C   UNL     1      -3.295   8.956  -2.319  0.00  0.00    +0.000 A 
ATOM     15  C   UNL     1      -2.073   8.309  -2.310  0.00  0.00    +0.000 A 
ATOM     16  C   UNL     1      -1.847   7.271  -1.426  0.00  0.00    +0.005 A 
ATOM     17  C   UNL     1      -2.846   6.872  -0.558  0.00  0.00    -0.023 A 
ATOM     18  C   UNL     1      -4.070   7.514  -0.571  0.00  0.00    +0.005 A 
ATOM     19  C   UNL     1      -4.295   8.556  -1.451  0.00  0.00    +0.000 A 
ENDBRANCH   2  17
ENDBRANCH   1  12
BRANCH   1  25
ATOM     20  C   UNL     1      -0.972   6.344   5.070  0.00  0.00    -0.077 C 
ATOM     21  C   UNL     1      -0.272   6.955   6.286  0.00  0.00    -0.006 C 
ATOM     22  C   UNL     1      -1.276   7.798   7.077  0.00  0.00    +0.072 C 
ATOM     23  C   UNL     1      -1.858   8.877   6.160  0.00  0.00    -0.006 C 
ATOM     24  C   UNL     1      -2.512   8.211   4.947  0.00  0.00    -0.077 C 
ATOM     25  N   UNL     1      -1.488   7.435   4.216  0.00  0.00    +0.385 N 
ATOM     26  H   UNL     1      -0.712   8.059   3.967  0.00  0.00    -0.081 HD
BRANCH  22  27
ATOM     27  C   UNL     1      -0.578   8.451   8.242  0.00  0.00    +0.220 C 
ATOM     28  O   UNL     1      -0.549   9.660   8.332  0.00  0.00    -0.275 OA
ATOM     29  N   UNL     1       0.013   7.691   9.185  0.00  0.00    -0.282 N 
ATOM     30  H   UNL     1       0.060   6.729   9.073  0.00  0.00    +0.155 HD
BRANCH  29  31
ATOM     31  C   UNL     1       0.561   8.291  10.327  0.00  0.00    +0.075 A 
ATOM     32  C   UNL     1       0.085   9.519  10.764  0.00  0.00    +0.027 A 
ATOM     33  C   UNL     1       0.626  10.108  11.890  0.00  0.00    +0.002 A 
ATOM     34  C   UNL     1       1.642   9.478  12.584  0.00  0.00    +0.004 A 
ATOM     35  C   UNL     1       2.122   8.254  12.155  0.00  0.00    +0.047 A 
ATOM     36  C   UNL     1       1.580   7.654  11.030  0.00  0.00    +0.138 A 
BRANCH  36  37
ATOM     37  O   UNL     1       2.047   6.447  10.610  0.00  0.00    -0.505 OA
ATOM     38  H   UNL     1       2.783   6.506   9.986  0.00  0.00    +0.292 HD
ENDBRANCH  36  37
ENDBRANCH  29  31
ENDBRANCH  22  27
ENDBRANCH   1  25
TORSDOF 6
