REMARK  Name = ZINC39930894
REMARK  3 active torsions:
REMARK  status: ('A' for Active; 'I' for Inactive)
REMARK    1  A    between atoms: C_4  and  C_7
REMARK    2  A    between atoms: C_16  and  S_23
REMARK    3  A    between atoms: S_23  and  N_26
REMARK                            x       y       z     vdW  Elec       q    Type
REMARK                         _______ _______ _______ _____ _____    ______ ____
ROOT
ATOM      1  C   UNL     1       3.711  -0.707  -0.038  0.00  0.00    +0.188 C 
ATOM      2  N   UNL     1       4.691   0.008  -0.899  0.00  0.00    -0.230 NA
ATOM      3  N   UNL     1       5.566  -1.074  -1.392  0.00  0.00    -0.227 NA
ATOM      4  C   UNL     1       4.620  -2.174  -1.666  0.00  0.00    +0.245 C 
ATOM      5  N   UNL     1       3.548  -2.023  -0.651  0.00  0.00    -0.283 N 
ATOM      6  C   UNL     1       2.662  -3.060  -0.372  0.00  0.00    +0.056 A 
ATOM      7  C   UNL     1       1.359  -2.865   0.030  0.00  0.00    +0.053 A 
ATOM      8  C   UNL     1       0.545  -3.960   0.267  0.00  0.00    +0.107 A 
ATOM      9  C   UNL     1       1.039  -5.241   0.100  0.00  0.00    +0.030 A 
ATOM     10  C   UNL     1       2.349  -5.443  -0.297  0.00  0.00    +0.027 A 
ATOM     11  C   UNL     1       3.175  -4.357  -0.530  0.00  0.00    +0.055 A 
ATOM     12  N   UNL     1       4.516  -4.525  -0.892  0.00  0.00    -0.281 N 
ATOM     13  C   UNL     1       5.253  -3.524  -1.449  0.00  0.00    +0.254 C 
ATOM     14  O   UNL     1       6.412  -3.708  -1.755  0.00  0.00    -0.272 OA
ATOM     15  H   UNL     1       4.227   0.475  -1.664  0.00  0.00    +0.143 HD
ATOM     16  H   UNL     1       6.048  -0.794  -2.233  0.00  0.00    +0.143 HD
ATOM     17  H   UNL     1       4.935  -5.388  -0.751  0.00  0.00    +0.155 HD
ENDROOT
BRANCH   1  21
ATOM     18  C   UNL     1      -0.018   1.376   0.012  0.00  0.00    +0.000 A 
ATOM     19  C   UNL     1       0.511   0.934  -1.186  0.00  0.00    +0.000 A 
ATOM     20  C   UNL     1       1.718   0.260  -1.202  0.00  0.00    +0.007 A 
ATOM     21  C   UNL     1       2.396   0.029  -0.020  0.00  0.00    -0.012 A 
ATOM     22  C   UNL     1       1.868   0.472   1.178  0.00  0.00    +0.007 A 
ATOM     23  C   UNL     1       0.660   1.145   1.194  0.00  0.00    +0.000 A 
ENDBRANCH   1  21
BRANCH   8  24
ATOM     24  S   UNL     1      -1.122  -3.721   0.784  0.00  0.00    +0.056 S 
ATOM     25  O   UNL     1      -1.510  -4.906   1.465  0.00  0.00    -0.153 OA
ATOM     26  O   UNL     1      -1.179  -2.439   1.393  0.00  0.00    -0.153 OA
BRANCH  24  27
ATOM     27  N   UNL     1      -2.051  -3.636  -0.585  0.00  0.00    -0.204 NA
ATOM     28  H   UNL     1      -2.974  -3.936  -0.564  0.00  0.00    +0.144 HD
ATOM     29  H   UNL     1      -1.673  -3.287  -1.407  0.00  0.00    +0.144 HD
ENDBRANCH  24  27
ENDBRANCH   8  24
TORSDOF 3
