REMARK  Name = ZINC58949206
REMARK  7 active torsions:
REMARK  status: ('A' for Active; 'I' for Inactive)
REMARK    1  A    between atoms: C_1  and  C_2
REMARK    2  A    between atoms: C_3  and  C_20
REMARK    3  A    between atoms: C_4  and  C_14
REMARK    4  A    between atoms: C_6  and  C_10
REMARK    5  A    between atoms: C_7  and  N_9
REMARK    6  A    between atoms: C_10  and  O_12
REMARK    7  A    between atoms: O_12  and  C_13
REMARK                            x       y       z     vdW  Elec       q    Type
REMARK                         _______ _______ _______ _____ _____    ______ ____
ROOT
ATOM      1  C   UNL     1      -0.021   1.503  -0.010  0.00  0.00    +0.087 C 
ATOM      2  C   UNL     1       0.001  -0.004  -0.008  0.00  0.00    +0.113 C 
ATOM      3  C   UNL     1      -1.159  -0.669   0.028  0.00  0.00    +0.064 C 
ATOM      4  C   UNL     1      -1.196  -2.173   0.032  0.00  0.00    +0.106 C 
ATOM      5  C   UNL     1       0.161  -2.718   0.388  0.00  0.00    +0.106 C 
ATOM      6  C   UNL     1       1.264  -1.927   0.331  0.00  0.00    +0.195 C 
ATOM      7  O   UNL     1       1.184  -0.638  -0.047  0.00  0.00    -0.446 OA
ENDROOT
BRANCH   4   8
ATOM      8  C   UNL     1      -1.589  -2.668  -1.336  0.00  0.00    +0.003 A 
ATOM      9  C   UNL     1      -2.658  -3.419  -1.697  0.00  0.00    +0.013 A 
ATOM     10  C   UNL     1      -2.820  -3.758  -3.027  0.00  0.00    +0.023 A 
ATOM     11  C   UNL     1      -1.904  -3.329  -3.931  0.00  0.00    +0.055 A 
ATOM     12  S   UNL     1      -0.771  -2.410  -2.902  0.00  0.00    -0.085 S 
ATOM     13 BR   UNL     1      -1.846  -3.623  -5.799  0.00  0.00    -0.043 Br
ENDBRANCH   4   8
BRANCH   3  14
ATOM     14  C   UNL     1      -2.415   0.078   0.065  0.00  0.00    +0.242 C 
ATOM     15  O   UNL     1      -2.398   1.296   0.063  0.00  0.00    -0.271 OA
ATOM     16  N   UNL     1      -3.590  -0.580   0.101  0.00  0.00    -0.325 N 
ATOM     17  H   UNL     1      -3.603  -1.550   0.103  0.00  0.00    +0.145 HD
ATOM     18  H   UNL     1      -4.423  -0.083   0.126  0.00  0.00    +0.145 HD
ENDBRANCH   3  14
BRANCH   6  19
ATOM     19  N   UNL     1       2.484  -2.454   0.660  0.00  0.00    -0.329 N 
ATOM     20  H   UNL     1       2.566  -3.401   0.858  0.00  0.00    +0.145 HD
ATOM     21  H   UNL     1       3.266  -1.882   0.697  0.00  0.00    +0.145 HD
ENDBRANCH   6  19
BRANCH   5  22
ATOM     22  C   UNL     1       0.288  -4.059   0.783  0.00  0.00    +0.341 C 
ATOM     23  O   UNL     1      -0.007  -4.390   1.917  0.00  0.00    -0.245 OA
BRANCH  22  24
ATOM     24  O   UNL     1       0.738  -4.982  -0.094  0.00  0.00    -0.465 OA
ATOM     25  C   UNL     1       0.843  -6.327   0.376  0.00  0.00    +0.280 C 
ENDBRANCH  22  24
ENDBRANCH   5  22
TORSDOF 5
