REMARK  Name = ZINC09934808
REMARK  9 active torsions:
REMARK  status: ('A' for Active; 'I' for Inactive)
REMARK    1  A    between atoms: C_1  and  C_2
REMARK    2  A    between atoms: C_5  and  N_8
REMARK    3  A    between atoms: N_8  and  C_9
REMARK    4  A    between atoms: C_9  and  C_10
REMARK    5  A    between atoms: N_12  and  N_13
REMARK    6  A    between atoms: C_14  and  C_15
REMARK    7  A    between atoms: C_17  and  N_22
REMARK    8  A    between atoms: C_20  and  O_21
REMARK    9  A    between atoms: N_23  and  C_24
REMARK                            x       y       z     vdW  Elec       q    Type
REMARK                         _______ _______ _______ _____ _____    ______ ____
ROOT
ATOM      1  C   UNL     1       7.098  -0.171  -0.067  0.00  0.00    +0.038 A 
ATOM      2  C   UNL     1       8.406   0.309  -0.082  0.00  0.00    +0.042 A 
ATOM      3  C   UNL     1       9.473  -0.591  -0.092  0.00  0.00    +0.087 A 
ATOM      4  C   UNL     1       9.225  -1.969  -0.098  0.00  0.00    +0.033 A 
ATOM      5  C   UNL     1       7.931  -2.441  -0.087  0.00  0.00    +0.048 A 
ATOM      6  C   UNL     1       6.863  -1.554  -0.072  0.00  0.00    +0.126 A 
ENDROOT
BRANCH   1   8
ATOM      7  N   UNL     1       4.748   0.323  -0.042  0.00  0.00    -0.188 NA
ATOM      8  C   UNL     1       5.965   0.772  -0.051  0.00  0.00    +0.142 C 
BRANCH   7  11
ATOM      9  C   UNL     1       2.406   0.752  -0.017  0.00  0.00    +0.249 C 
ATOM     10  O   UNL     1       2.201  -0.444  -0.021  0.00  0.00    -0.272 OA
ATOM     11  N   UNL     1       3.671   1.218  -0.026  0.00  0.00    -0.206 N 
ATOM     12  H   UNL     1       3.835   2.174  -0.023  0.00  0.00    +0.177 HD
BRANCH   9  13
ATOM     13  C   UNL     1       1.248   1.716  -0.001  0.00  0.00    +0.199 C 
BRANCH  13  14
ATOM     14  N   UNL     1      -0.011   0.966   0.007  0.00  0.00    -0.335 N 
ATOM     15  H   UNL     1       0.002  -0.004   0.002  0.00  0.00    +0.147 HD
BRANCH  14  20
ATOM     16  C   UNL     1      -4.960   3.734   0.047  0.00  0.00    +0.044 C 
ATOM     17  C   UNL     1      -3.645   2.998   0.037  0.00  0.00    -0.050 A 
ATOM     18  C   UNL     1      -3.628   1.616   0.029  0.00  0.00    +0.005 A 
ATOM     19  C   UNL     1      -2.424   0.938   0.019  0.00  0.00    +0.023 A 
ATOM     20  C   UNL     1      -1.230   1.648   0.017  0.00  0.00    +0.028 A 
ATOM     21  C   UNL     1      -1.251   3.037   0.030  0.00  0.00    +0.023 A 
ATOM     22  C   UNL     1      -2.458   3.708   0.035  0.00  0.00    +0.005 A 
ENDBRANCH  14  20
ENDBRANCH  13  14
ENDBRANCH   9  13
ENDBRANCH   7  11
ENDBRANCH   1   8
BRANCH   6  23
ATOM     23  O   UNL     1       5.591  -2.026  -0.062  0.00  0.00    -0.506 OA
ATOM     24  H   UNL     1       5.214  -2.158  -0.943  0.00  0.00    +0.292 HD
ENDBRANCH   6  23
BRANCH   3  25
ATOM     25  N   UNL     1      10.757  -0.127  -0.103  0.00  0.00    -0.149 NA
ATOM     26  N   UNL     1      11.743  -0.959  -0.118  0.00  0.00    -0.149 NA
BRANCH  26  27
ATOM     27  C   UNL     1      13.024  -0.497  -0.129  0.00  0.00    +0.094 A 
ATOM     28  C   UNL     1      13.286   0.869  -0.124  0.00  0.00    +0.030 A 
ATOM     29  C   UNL     1      14.593   1.336  -0.135  0.00  0.00    +0.003 A 
ATOM     30  C   UNL     1      15.659   0.489  -0.150  0.00  0.00    +0.008 A 
ATOM     31  C   UNL     1      15.469  -0.903  -0.155  0.00  0.00    -0.016 A 
ATOM     32  C   UNL     1      14.153  -1.426  -0.139  0.00  0.00    +0.009 A 
ATOM     33  C   UNL     1      13.960  -2.812  -0.150  0.00  0.00    +0.010 A 
ATOM     34  C   UNL     1      15.040  -3.643  -0.166  0.00  0.00    +0.001 A 
ATOM     35  C   UNL     1      16.336  -3.132  -0.176  0.00  0.00    +0.001 A 
ATOM     36  C   UNL     1      16.560  -1.789  -0.171  0.00  0.00    +0.008 A 
ENDBRANCH  26  27
ENDBRANCH   3  25
TORSDOF 8
