REMARK  Name = ZINC09617374
REMARK  12 active torsions:
REMARK  status: ('A' for Active; 'I' for Inactive)
REMARK    1  A    between atoms: C_1  and  C_2
REMARK    2  A    between atoms: C_2  and  O_3
REMARK    3  A    between atoms: O_3  and  C_4
REMARK    4  A    between atoms: C_6  and  C_13
REMARK    5  A    between atoms: C_9  and  O_10
REMARK    6  A    between atoms: O_10  and  C_11
REMARK    7  A    between atoms: C_14  and  C_15
REMARK    8  A    between atoms: C_15  and  O_17
REMARK    9  A    between atoms: O_17  and  C_18
REMARK   10  A    between atoms: C_18  and  C_19
REMARK   11  A    between atoms: N_21  and  C_22
REMARK   12  A    between atoms: C_23  and  C_31
REMARK                            x       y       z     vdW  Elec       q    Type
REMARK                         _______ _______ _______ _____ _____    ______ ____
ROOT
ATOM      1  C   UNL     1      -2.554   4.019   0.036  0.00  0.00    +0.328 C 
ENDROOT
BRANCH   1   2
ATOM      2  C   UNL     1      -2.377   5.516   0.043  0.00  0.00    +0.255 C 
ATOM      3  O   UNL     1      -1.262   5.995   0.041  0.00  0.00    -0.272 OA
ATOM      4  N   UNL     1      -3.457   6.322   0.053  0.00  0.00    -0.277 N 
ATOM      5  H   UNL     1      -4.348   5.939   0.055  0.00  0.00    +0.155 HD
BRANCH   4   6
ATOM      6  C   UNL     1      -3.293   7.699   0.059  0.00  0.00    +0.084 A 
ATOM      7  C   UNL     1      -4.272   8.684   0.064  0.00  0.00    +0.068 A 
ATOM      8  C   UNL     1      -3.832  10.068   0.074  0.00  0.00    -0.023 A 
ATOM      9  C   UNL     1      -2.493  10.246   0.068  0.00  0.00    -0.004 A 
ATOM     10  S   UNL     1      -1.819   8.609   0.057  0.00  0.00    -0.077 S 
ATOM     11  C   UNL     1      -1.755  11.549   0.070  0.00  0.00    +0.043 C 
ATOM     12  C   UNL     1      -2.743  12.665  -0.298  0.00  0.00    +0.005 C 
ATOM     13  C   UNL     1      -4.011  12.499   0.544  0.00  0.00    +0.005 C 
ATOM     14  C   UNL     1      -4.781  11.259   0.085  0.00  0.00    +0.037 C 
BRANCH   7  15
ATOM     15  C   UNL     1      -5.697   8.339   0.062  0.00  0.00    +0.244 C 
ATOM     16  O   UNL     1      -6.289   8.191   1.116  0.00  0.00    -0.270 OA
ATOM     17  N   UNL     1      -6.352   8.185  -1.106  0.00  0.00    -0.325 N 
ATOM     18  H   UNL     1      -5.880   8.302  -1.945  0.00  0.00    +0.145 HD
ATOM     19  H   UNL     1      -7.295   7.957  -1.107  0.00  0.00    +0.145 HD
ENDBRANCH   7  15
ENDBRANCH   4   6
ENDBRANCH   1   2
BRANCH   1  20
ATOM     20  O   UNL     1      -1.272   3.388   0.026  0.00  0.00    -0.452 OA
BRANCH  20  21
ATOM     21  C   UNL     1      -1.254   2.039   0.019  0.00  0.00    +0.332 C 
ATOM     22  O   UNL     1      -2.299   1.416   0.021  0.00  0.00    -0.246 OA
BRANCH  21  24
ATOM     23  C   UNL     1       0.002  -0.004   0.002  0.00  0.00    +0.015 C 
ATOM     24  C   UNL     1      -0.016   1.347   0.009  0.00  0.00    +0.092 C 
BRANCH  23  27
ATOM     25  C   UNL     1       2.514  -2.790  -0.036  0.00  0.00    +0.164 A 
ATOM     26  C   UNL     1       1.306  -2.121  -0.016  0.00  0.00    +0.057 A 
ATOM     27  C   UNL     1       1.284  -0.721  -0.014  0.00  0.00    -0.020 A 
ATOM     28  C   UNL     1       2.488  -0.007  -0.022  0.00  0.00    +0.031 A 
ATOM     29  C   UNL     1       3.690  -0.683  -0.036  0.00  0.00    +0.087 A 
ATOM     30  C   UNL     1       3.709  -2.072  -0.044  0.00  0.00    +0.180 A 
ATOM     31 CL   UNL     1       5.182   0.204  -0.046  0.00  0.00    -0.080 Cl
BRANCH  30  32
ATOM     32  O   UNL     1       4.896  -2.733  -0.058  0.00  0.00    -0.490 OA
ATOM     33  C   UNL     1       5.474  -3.055   1.208  0.00  0.00    +0.277 C 
ENDBRANCH  30  32
BRANCH  25  34
ATOM     34  O   UNL     1       2.538  -4.150  -0.043  0.00  0.00    -0.489 OA
BRANCH  34  36
ATOM     35  C   UNL     1       1.503  -6.334  -0.045  0.00  0.00    +0.048 C 
ATOM     36  C   UNL     1       1.276  -4.821  -0.035  0.00  0.00    +0.226 C 
ENDBRANCH  34  36
ENDBRANCH  25  34
ENDBRANCH  23  27
ENDBRANCH  21  24
ENDBRANCH  20  21
ENDBRANCH   1  20
TORSDOF 10
