REMARK  Name = ZINC26548193
REMARK  2 active torsions:
REMARK  status: ('A' for Active; 'I' for Inactive)
REMARK    1  A    between atoms: C_1  and  C_2
REMARK    2  A    between atoms: C_5  and  C_7
REMARK                            x       y       z     vdW  Elec       q    Type
REMARK                         _______ _______ _______ _____ _____    ______ ____
ROOT
ATOM      1  C   UNL     1      -0.928   2.431   0.029  0.00  0.00    +0.192 A 
ATOM      2  N   UNL     1      -0.246   3.556   0.024  0.00  0.00    -0.126 NA
ATOM      3  N   UNL     1       1.016   3.301   0.010  0.00  0.00    -0.120 NA
ATOM      4  C   UNL     1       1.202   2.015   0.001  0.00  0.00    +0.220 A 
ATOM      5  N   UNL     1      -0.017   1.384   0.010  0.00  0.00    -0.184 N 
ATOM      6  N   UNL     1       0.002  -0.004   0.002  0.00  0.00    -0.140 NA
ATOM      7  C   UNL     1       1.129  -0.666  -0.012  0.00  0.00    +0.179 A 
ATOM      8  S   UNL     1       2.337   0.649  -0.017  0.00  0.00    -0.012 S 
ATOM      9  N   UNL     1       1.334  -2.036  -0.021  0.00  0.00    -0.336 N 
ATOM     10  H   UNL     1       2.357  -2.439  -0.033  0.00  0.00    +0.144 HD
ATOM     11  H   UNL     1       0.473  -2.720  -0.016  0.00  0.00    +0.144 HD
ENDROOT
BRANCH   1  16
ATOM     12  C   UNL     1      -6.373   1.007  -0.153  0.00  0.00    +0.051 C 
ATOM     13  C   UNL     1      -5.004   1.627  -0.036  0.00  0.00    -0.013 A 
ATOM     14  C   UNL     1      -4.670   2.899   0.298  0.00  0.00    +0.011 A 
ATOM     15  C   UNL     1      -3.340   3.253   0.351  0.00  0.00    +0.019 A 
ATOM     16  C   UNL     1      -2.394   2.305   0.050  0.00  0.00    +0.058 A 
ATOM     17  S   UNL     1      -3.406   0.876  -0.301  0.00  0.00    -0.090 S 
ENDBRANCH   1  16
TORSDOF 1
