REMARK  Name = ZINC61882346
REMARK  9 active torsions:
REMARK  status: ('A' for Active; 'I' for Inactive)
REMARK    1  A    between atoms: C_1  and  C_2
REMARK    2  A    between atoms: C_2  and  C_3
REMARK    3  A    between atoms: C_3  and  N_4
REMARK    4  A    between atoms: C_5  and  C_7
REMARK    5  A    between atoms: C_7  and  C_9
REMARK    6  A    between atoms: C_7  and  N_10
REMARK    7  A    between atoms: N_10  and  S_11
REMARK    8  A    between atoms: S_11  and  C_14
REMARK    9  A    between atoms: C_18  and  N_21
REMARK                            x       y       z     vdW  Elec       q    Type
REMARK                         _______ _______ _______ _____ _____    ______ ____
ROOT
ATOM      1  S   UNL     1       1.603  -6.051  -4.178  0.00  0.00    +0.060 S 
ATOM      2  O   UNL     1       2.473  -6.401  -5.246  0.00  0.00    -0.153 OA
ATOM      3  O   UNL     1       1.441  -6.870  -3.028  0.00  0.00    -0.153 OA
ENDROOT
BRANCH   1   4
ATOM      4  C   UNL     1      -0.000  -5.848  -4.881  0.00  0.00    +0.122 A 
ATOM      5  C   UNL     1      -1.090  -6.477  -4.308  0.00  0.00    +0.049 A 
ATOM      6  C   UNL     1      -2.351  -6.320  -4.857  0.00  0.00    +0.045 A 
ATOM      7  C   UNL     1      -2.524  -5.531  -5.979  0.00  0.00    +0.044 A 
ATOM      8  C   UNL     1      -1.432  -4.897  -6.556  0.00  0.00    +0.042 A 
ATOM      9  C   UNL     1      -0.168  -5.054  -5.999  0.00  0.00    +0.065 A 
ATOM     10 BR   UNL     1       1.323  -4.187  -6.776  0.00  0.00    -0.046 Br
ATOM     11 CL   UNL     1      -3.716  -7.113  -4.135  0.00  0.00    -0.083 Cl
BRANCH   8  12
ATOM     12  N   UNL     1      -1.603  -4.100  -7.690  0.00  0.00    -0.357 N 
ATOM     13  H   UNL     1      -2.487  -3.989  -8.076  0.00  0.00    +0.142 HD
ATOM     14  H   UNL     1      -0.840  -3.658  -8.093  0.00  0.00    +0.142 HD
ENDBRANCH   8  12
ENDBRANCH   1   4
BRANCH   1  15
ATOM     15  N   UNL     1       2.092  -4.565  -3.636  0.00  0.00    -0.178 NA
ATOM     16  H   UNL     1       2.859  -4.130  -4.040  0.00  0.00    +0.149 HD
BRANCH  15  17
ATOM     17  C   UNL     1       1.367  -3.908  -2.546  0.00  0.00    +0.159 C 
ATOM     18  C   UNL     1       2.067  -4.202  -1.218  0.00  0.00    +0.035 C 
BRANCH  17  20
ATOM     19  N   UNL     1       0.728  -1.606  -1.903  0.00  0.00    -0.314 N 
ATOM     20  C   UNL     1       1.344  -2.420  -2.783  0.00  0.00    +0.231 C 
ATOM     21  O   UNL     1       1.881  -1.954  -3.766  0.00  0.00    -0.274 OA
ATOM     22  H   UNL     1       0.298  -1.979  -1.117  0.00  0.00    +0.149 HD
BRANCH  19  23
ATOM     23  C   UNL     1       0.705  -0.160  -2.134  0.00  0.00    +0.104 C 
BRANCH  23  25
ATOM     24  C   UNL     1      -0.075   2.037  -1.236  0.00  0.00    +0.005 C 
ATOM     25  C   UNL     1      -0.052   0.527  -0.995  0.00  0.00    +0.015 C 
ENDBRANCH  23  25
ENDBRANCH  19  23
ENDBRANCH  17  20
ENDBRANCH  15  17
ENDBRANCH   1  15
TORSDOF 7
