REMARK  Name = ZINC11814852
REMARK  11 active torsions:
REMARK  status: ('A' for Active; 'I' for Inactive)
REMARK    1  A    between atoms: C_1  and  C_2
REMARK    2  A    between atoms: C_2  and  C_3
REMARK    3  A    between atoms: C_2  and  C_4
REMARK    4  A    between atoms: C_2  and  C_5
REMARK    5  A    between atoms: C_5  and  N_71
REMARK    6  A    between atoms: C_8  and  C_11
REMARK    7  A    between atoms: C_8  and  O_35
REMARK    8  A    between atoms: C_18  and  C_20
REMARK    9  A    between atoms: N_22  and  C_23
REMARK   10  A    between atoms: N_22  and  C_24
REMARK   11  A    between atoms: C_24  and  C_25
REMARK                            x       y       z     vdW  Elec       q    Type
REMARK                         _______ _______ _______ _____ _____    ______ ____
ROOT
ATOM      1  C   UNL     1      -3.050   8.383  -0.959  0.00  0.00    -0.015 A 
ATOM      2  C   UNL     1      -1.662   8.357  -0.932  0.00  0.00    +0.010 A 
ATOM      3  C   UNL     1      -0.981   7.160  -0.898  0.00  0.00    +0.047 A 
ATOM      4  C   UNL     1      -1.686   5.962  -0.891  0.00  0.00    +0.136 A 
ATOM      5  C   UNL     1      -3.093   5.995  -0.918  0.00  0.00    +0.021 A 
ATOM      6  C   UNL     1      -3.764   7.219  -0.953  0.00  0.00    +0.018 A 
ATOM      7  C   UNL     1      -3.522   4.596  -0.902  0.00  0.00    +0.063 A 
ATOM      8  C   UNL     1      -2.385   3.854  -0.866  0.00  0.00    +0.191 A 
ATOM      9  O   UNL     1      -1.309   4.669  -0.855  0.00  0.00    -0.450 OA
ENDROOT
BRANCH   1  12
ATOM     10  C   UNL     1      -3.644  12.120  -0.374  0.00  0.00    -0.076 C 
ATOM     11  C   UNL     1      -2.934  10.767  -0.280  0.00  0.00    +0.021 C 
ATOM     12  C   UNL     1      -3.773   9.705  -0.996  0.00  0.00    +0.088 C 
ATOM     13  C   UNL     1      -3.988  10.130  -2.452  0.00  0.00    +0.021 C 
ATOM     14  C   UNL     1      -4.666  11.502  -2.482  0.00  0.00    -0.076 C 
ATOM     15  N   UNL     1      -3.798  12.483  -1.798  0.00  0.00    +0.380 N 
ATOM     16  H   UNL     1      -2.873  12.478  -2.245  0.00  0.00    -0.082 HD
BRANCH  12  17
ATOM     17  O   UNL     1      -5.038   9.576  -0.345  0.00  0.00    -0.384 OA
ATOM     18  H   UNL     1      -5.623   8.920  -0.748  0.00  0.00    +0.211 HD
ENDBRANCH  12  17
BRANCH  15  19
ATOM     19  C   UNL     1      -4.378  13.837  -1.914  0.00  0.00    -0.073 C 
BRANCH  19  21
ATOM     20  C   UNL     1      -2.329  14.594  -3.126  0.00  0.00    +0.009 C 
ATOM     21  C   UNL     1      -3.237  14.856  -1.923  0.00  0.00    -0.052 C 
ATOM     22  C   UNL     1      -3.815  16.269  -2.019  0.00  0.00    +0.009 C 
ATOM     23  C   UNL     1      -2.425  14.723  -0.633  0.00  0.00    +0.009 C 
ENDBRANCH  19  21
ENDBRANCH  15  19
ENDBRANCH   1  12
BRANCH   8  24
ATOM     24  C   UNL     1      -2.334   2.386  -0.839  0.00  0.00    +0.282 C 
ATOM     25  O   UNL     1      -3.359   1.740  -0.951  0.00  0.00    -0.267 OA
ATOM     26  N   UNL     1      -1.153   1.755  -0.689  0.00  0.00    -0.294 N 
ATOM     27  C   UNL     1       0.065   2.531  -0.439  0.00  0.00    +0.133 C 
BRANCH  26  28
ATOM     28  C   UNL     1      -1.085   0.295  -0.782  0.00  0.00    +0.143 C 
BRANCH  28  29
ATOM     29  C   UNL     1      -1.169  -0.301   0.600  0.00  0.00    -0.021 A 
ATOM     30  C   UNL     1      -1.189   0.508   1.695  0.00  0.00    +0.006 A 
ATOM     31  C   UNL     1      -1.273  -0.027   2.978  0.00  0.00    +0.002 A 
ATOM     32  C   UNL     1      -1.327  -1.373   3.176  0.00  0.00    +0.028 A 
ATOM     33  C   UNL     1      -1.303  -2.241   2.071  0.00  0.00    +0.071 A 
ATOM     34  C   UNL     1      -1.223  -1.694   0.766  0.00  0.00    +0.005 A 
ATOM     35  C   UNL     1      -1.200  -2.566  -0.339  0.00  0.00    +0.012 A 
ATOM     36  C   UNL     1      -1.254  -3.909  -0.101  0.00  0.00    +0.020 A 
ATOM     37  C   UNL     1      -1.331  -4.381   1.207  0.00  0.00    +0.111 A 
ATOM     38  N   UNL     1      -1.354  -3.567   2.234  0.00  0.00    -0.255 NA
ENDBRANCH  28  29
ENDBRANCH  26  28
ENDBRANCH   8  24
TORSDOF 7
