REMARK  Name = ZINC02890843
REMARK  7 active torsions:
REMARK  status: ('A' for Active; 'I' for Inactive)
REMARK    1  A    between atoms: C_1  and  C_2
REMARK    2  A    between atoms: C_2  and  C_3
REMARK    3  A    between atoms: C_5  and  N_34
REMARK    4  A    between atoms: C_6  and  C_19
REMARK    5  A    between atoms: C_15  and  C_17
REMARK    6  A    between atoms: C_15  and  C_18
REMARK    7  A    between atoms: C_24  and  C_27
REMARK                            x       y       z     vdW  Elec       q    Type
REMARK                         _______ _______ _______ _____ _____    ______ ____
ROOT
ATOM      1  C   UNL     1       5.749   0.928   1.415  0.00  0.00    -0.024 A 
ATOM      2  C   UNL     1       4.548   0.604   0.748  0.00  0.00    +0.033 A 
ATOM      3  C   UNL     1       3.583   1.500   0.127  0.00  0.00    +0.054 A 
ATOM      4  C   UNL     1       2.471   0.950  -0.470  0.00  0.00    +0.097 A 
ATOM      5  S   UNL     1       2.693  -0.801  -0.227  0.00  0.00    -0.062 S 
ATOM      6  C   UNL     1       4.233  -0.774   0.658  0.00  0.00    +0.111 A 
ATOM      7  N   UNL     1       5.002  -1.716   1.164  0.00  0.00    -0.244 NA
ATOM      8  C   UNL     1       6.127  -1.438   1.796  0.00  0.00    +0.054 A 
ATOM      9  C   UNL     1       6.531  -0.102   1.933  0.00  0.00    +0.043 A 
ATOM     10  C   UNL     1       7.790   0.219   2.627  0.00  0.00    +0.166 C 
ATOM     11  O   UNL     1       8.267   1.334   2.579  0.00  0.00    -0.292 OA
ATOM     12  C   UNL     1       8.470  -0.890   3.403  0.00  0.00    +0.086 C 
ATOM     13  C   UNL     1       8.403  -2.159   2.542  0.00  0.00    -0.022 C 
ATOM     14  C   UNL     1       6.945  -2.569   2.357  0.00  0.00    +0.063 C 
ATOM     15  C   UNL     1       9.032  -1.882   1.175  0.00  0.00    +0.011 C 
ATOM     16  C   UNL     1       9.167  -3.287   3.237  0.00  0.00    +0.011 C 
ENDROOT
BRANCH   4  17
ATOM     17  C   UNL     1       1.407   1.617  -1.126  0.00  0.00    +0.259 C 
ATOM     18  O   UNL     1       1.407   2.832  -1.206  0.00  0.00    -0.269 OA
ATOM     19  N   UNL     1       0.394   0.906  -1.661  0.00  0.00    -0.250 N 
ATOM     20  C   UNL     1      -0.652   1.563  -2.313  0.00  0.00    +0.230 A 
ATOM     21  N   UNL     1      -1.637   0.874  -2.841  0.00  0.00    -0.205 NA
ATOM     22  C   UNL     1      -2.616   1.531  -3.453  0.00  0.00    +0.130 A 
ATOM     23  S   UNL     1      -2.104   3.178  -3.263  0.00  0.00    +0.035 S 
ATOM     24  N   UNL     1      -0.658   2.878  -2.397  0.00  0.00    -0.174 NA
ATOM     25  H   UNL     1       0.394  -0.062  -1.598  0.00  0.00    +0.158 HD
BRANCH  22  26
ATOM     26  C   UNL     1      -3.824   0.999  -4.120  0.00  0.00    +0.009 A 
ATOM     27  C   UNL     1      -4.048  -0.378  -4.169  0.00  0.00    +0.012 A 
ATOM     28  C   UNL     1      -5.178  -0.868  -4.789  0.00  0.00    +0.020 A 
ATOM     29  C   UNL     1      -6.084   0.002  -5.372  0.00  0.00    +0.041 A 
ATOM     30  C   UNL     1      -5.864   1.368  -5.332  0.00  0.00    +0.020 A 
ATOM     31  C   UNL     1      -4.740   1.870  -4.710  0.00  0.00    +0.012 A 
ATOM     32 CL   UNL     1      -7.501  -0.623  -6.156  0.00  0.00    -0.084 Cl
ENDBRANCH  22  26
ENDBRANCH   4  17
BRANCH   3  33
ATOM     33  N   UNL     1       3.777   2.873   0.140  0.00  0.00    -0.356 N 
ATOM     34  H   UNL     1       3.013   3.471   0.165  0.00  0.00    +0.142 HD
ATOM     35  H   UNL     1       4.677   3.236   0.126  0.00  0.00    +0.142 HD
ENDBRANCH   3  33
BRANCH   1  37
ATOM     36  C   UNL     1       7.055   2.761   0.374  0.00  0.00    +0.009 C 
ATOM     37  C   UNL     1       6.179   2.365   1.564  0.00  0.00    +0.033 C 
ENDBRANCH   1  37
TORSDOF 4
