REMARK  Name = ZINC13552484
REMARK  4 active torsions:
REMARK  status: ('A' for Active; 'I' for Inactive)
REMARK    1  A    between atoms: C_1  and  C_2
REMARK    2  A    between atoms: C_2  and  C_30
REMARK    3  A    between atoms: C_3  and  C_17
REMARK    4  A    between atoms: C_17  and  N_19
REMARK                            x       y       z     vdW  Elec       q    Type
REMARK                         _______ _______ _______ _____ _____    ______ ____
ROOT
ATOM      1  C   UNL     1      -0.049   1.540   0.005  0.00  0.00    +0.025 C 
ATOM      2  C   UNL     1      -0.021   0.010   0.005  0.00  0.00    +0.040 C 
ATOM      3  C   UNL     1       0.845  -0.529  -1.159  0.00  0.00    +0.181 C 
ATOM      4  N   UNL     1       2.096  -1.149  -0.716  0.00  0.00    -0.269 N 
ATOM      5  C   UNL     1       1.909  -1.879   0.572  0.00  0.00    +0.167 C 
ATOM      6  S   UNL     1       0.891  -0.636   1.474  0.00  0.00    -0.125 S 
ATOM      7  C   UNL     1       3.281  -1.994   1.172  0.00  0.00    -0.005 A 
ATOM      8  C   UNL     1       3.748  -2.331   2.422  0.00  0.00    +0.007 A 
ATOM      9  C   UNL     1       5.111  -2.365   2.666  0.00  0.00    +0.000 A 
ATOM     10  C   UNL     1       6.006  -2.060   1.656  0.00  0.00    +0.001 A 
ATOM     11  C   UNL     1       5.549  -1.712   0.402  0.00  0.00    +0.013 A 
ATOM     12  C   UNL     1       4.177  -1.668   0.150  0.00  0.00    +0.043 A 
ATOM     13  C   UNL     1       3.400  -1.285  -1.038  0.00  0.00    +0.249 C 
ATOM     14  O   UNL     1       3.864  -1.136  -2.151  0.00  0.00    -0.270 OA
ATOM     15  C   UNL     1      -1.439  -0.562  -0.056  0.00  0.00    +0.025 C 
ENDROOT
BRANCH   3  16
ATOM     16  C   UNL     1       1.178   0.614  -2.083  0.00  0.00    +0.260 C 
ATOM     17  O   UNL     1       2.265   1.155  -2.014  0.00  0.00    -0.272 OA
BRANCH  16  18
ATOM     18  N   UNL     1       0.283   1.031  -2.973  0.00  0.00    -0.155 NA
ATOM     19  C   UNL     1       0.536   2.105  -3.718  0.00  0.00    +0.164 A 
ATOM     20  N   UNL     1       1.686   2.822  -3.781  0.00  0.00    -0.335 N 
ATOM     21  H   UNL     1       2.450   2.566  -3.240  0.00  0.00    +0.168 HD
ATOM     22  C   UNL     1       1.768   3.918  -4.619  0.00  0.00    +0.055 A 
ATOM     23  C   UNL     1       2.845   4.788  -4.837  0.00  0.00    +0.027 A 
ATOM     24  C   UNL     1       2.732   5.835  -5.721  0.00  0.00    +0.002 A 
ATOM     25  C   UNL     1       1.558   6.061  -6.419  0.00  0.00    +0.001 A 
ATOM     26  C   UNL     1       0.479   5.216  -6.223  0.00  0.00    +0.017 A 
ATOM     27  C   UNL     1       0.591   4.169  -5.339  0.00  0.00    +0.039 A 
ATOM     28  S   UNL     1      -0.496   2.876  -4.797  0.00  0.00    -0.052 S 
ENDBRANCH  16  18
ENDBRANCH   3  16
TORSDOF 2
