REMARK  Name = ZINC35427431
REMARK  5 active torsions:
REMARK  status: ('A' for Active; 'I' for Inactive)
REMARK    1  A    between atoms: C_1  and  C_2
REMARK    2  A    between atoms: C_2  and  N_3
REMARK    3  A    between atoms: C_17  and  C_31
REMARK    4  A    between atoms: N_23  and  C_24
REMARK    5  A    between atoms: C_27  and  C_30
REMARK                            x       y       z     vdW  Elec       q    Type
REMARK                         _______ _______ _______ _____ _____    ______ ____
ROOT
ATOM      1  N   UNL     1       0.936  -0.599  -0.813  0.00  0.00    +0.383 N 
ATOM      2  C   UNL     1       0.826  -2.059  -0.933  0.00  0.00    -0.074 C 
ATOM      3  C   UNL     1       1.172  -2.503  -2.357  0.00  0.00    +0.018 C 
ATOM      4  C   UNL     1       2.534  -1.913  -2.716  0.00  0.00    -0.034 A 
ATOM      5  C   UNL     1       3.318  -2.388  -3.784  0.00  0.00    +0.004 A 
ATOM      6  C   UNL     1       4.518  -1.776  -3.979  0.00  0.00    +0.090 A 
ATOM      7  S   UNL     1       4.589  -0.527  -2.732  0.00  0.00    -0.077 S 
ATOM      8  C   UNL     1       3.021  -0.877  -1.981  0.00  0.00    -0.021 A 
ATOM      9  C   UNL     1       2.360  -0.212  -0.820  0.00  0.00    -0.035 C 
ATOM     10  N   UNL     1       5.428  -2.143  -4.963  0.00  0.00    -0.312 N 
ATOM     11  C   UNL     1       6.144  -1.404  -5.841  0.00  0.00    +0.092 A 
ATOM     12  C   UNL     1       6.833  -2.253  -6.638  0.00  0.00    +0.020 A 
ATOM     13  C   UNL     1       6.538  -3.567  -6.216  0.00  0.00    +0.025 A 
ATOM     14  C   UNL     1       5.696  -3.476  -5.176  0.00  0.00    +0.049 A 
ATOM     15  C   UNL     1       5.133  -4.561  -4.309  0.00  0.00    +0.155 C 
ATOM     16  N   UNL     1       3.675  -4.736  -4.521  0.00  0.00    -0.268 N 
ATOM     17  C   UNL     1       2.878  -3.509  -4.699  0.00  0.00    +0.148 C 
ATOM     18  C   UNL     1       3.107  -5.957  -4.551  0.00  0.00    +0.308 C 
ATOM     19  O   UNL     1       3.793  -6.950  -4.401  0.00  0.00    -0.252 OA
ATOM     20  N   UNL     1       1.779  -6.079  -4.746  0.00  0.00    -0.269 N 
ATOM     21  H   UNL     1       1.244  -5.294  -4.944  0.00  0.00    +0.156 HD
ATOM     22  H   UNL     1       0.465  -0.161  -1.591  0.00  0.00    -0.081 HD
ENDROOT
BRANCH  20  23
ATOM     23  C   UNL     1       1.171  -7.336  -4.663  0.00  0.00    +0.035 A 
ATOM     24  C   UNL     1       0.104  -7.650  -5.494  0.00  0.00    +0.023 A 
ATOM     25  C   UNL     1      -0.493  -8.893  -5.410  0.00  0.00    +0.005 A 
ATOM     26  C   UNL     1      -0.029  -9.824  -4.498  0.00  0.00    -0.050 A 
ATOM     27  C   UNL     1       1.033  -9.514  -3.669  0.00  0.00    +0.005 A 
ATOM     28  C   UNL     1       1.638  -8.275  -3.752  0.00  0.00    +0.023 A 
ATOM     29  C   UNL     1      -0.683 -11.178  -4.409  0.00  0.00    +0.044 C 
ENDBRANCH  20  23
BRANCH  15  30
ATOM     30  C   UNL     1       5.378  -4.212  -2.863  0.00  0.00    -0.021 A 
ATOM     31  C   UNL     1       4.496  -4.642  -1.889  0.00  0.00    +0.006 A 
ATOM     32  C   UNL     1       4.721  -4.322  -0.563  0.00  0.00    +0.000 A 
ATOM     33  C   UNL     1       5.828  -3.572  -0.212  0.00  0.00    +0.000 A 
ATOM     34  C   UNL     1       6.710  -3.142  -1.186  0.00  0.00    +0.000 A 
ATOM     35  C   UNL     1       6.487  -3.466  -2.511  0.00  0.00    +0.006 A 
ENDBRANCH  15  30
BRANCH   1  37
ATOM     36  C   UNL     1       0.320   1.366   0.512  0.00  0.00    -0.017 C 
ATOM     37  C   UNL     1       0.316  -0.163   0.445  0.00  0.00    -0.082 C 
ENDBRANCH   1  37
TORSDOF 3
