REMARK  Name = ZINC06149160
REMARK  13 active torsions:
REMARK  status: ('A' for Active; 'I' for Inactive)
REMARK    1  A    between atoms: C_1  and  C_2
REMARK    2  A    between atoms: C_2  and  C_3
REMARK    3  A    between atoms: C_3  and  C_4
REMARK    4  A    between atoms: C_3  and  C_5
REMARK    5  A    between atoms: C_3  and  N_6
REMARK    6  A    between atoms: C_7  and  C_11
REMARK    7  A    between atoms: C_11  and  C_13
REMARK    8  A    between atoms: C_11  and  N_70
REMARK    9  A    between atoms: C_17  and  C_25
REMARK   10  A    between atoms: C_26  and  C_27
REMARK   11  A    between atoms: C_26  and  N_70
REMARK   12  A    between atoms: C_32  and  C_33
REMARK   13  A    between atoms: C_32  and  N_70
REMARK                            x       y       z     vdW  Elec       q    Type
REMARK                         _______ _______ _______ _____ _____    ______ ____
ROOT
ATOM      1  C   UNL     1       1.582  -1.563  -0.376  0.00  0.00    +0.039 C 
ENDROOT
BRANCH   1   2
ATOM      2  C   UNL     1       1.995  -0.420  -1.266  0.00  0.00    +0.011 A 
ATOM      3  C   UNL     1       1.065   0.460  -1.711  0.00  0.00    +0.017 A 
ATOM      4  C   UNL     1       1.499   1.560  -2.575  0.00  0.00    -0.001 A 
ATOM      5  C   UNL     1       0.586   2.502  -3.060  0.00  0.00    +0.013 A 
ATOM      6  C   UNL     1       1.022   3.514  -3.868  0.00  0.00    -0.050 A 
ATOM      7  C   UNL     1       2.365   3.621  -4.203  0.00  0.00    +0.005 A 
ATOM      8  C   UNL     1       3.283   2.707  -3.732  0.00  0.00    +0.026 A 
ATOM      9  C   UNL     1       2.861   1.665  -2.912  0.00  0.00    +0.049 A 
ATOM     10  N   UNL     1       3.757   0.737  -2.427  0.00  0.00    -0.322 N 
ATOM     11  H   UNL     1       4.725   0.813  -2.668  0.00  0.00    +0.169 HD
ATOM     12  C   UNL     1       3.349  -0.270  -1.635  0.00  0.00    +0.251 A 
ATOM     13  O   UNL     1       4.169  -1.072  -1.223  0.00  0.00    -0.268 OA
ATOM     14  C   UNL     1       0.038   4.525  -4.396  0.00  0.00    +0.044 C 
ENDBRANCH   1   2
BRANCH   1  16
ATOM     15  N   UNL     1       1.582  -1.100   2.132  0.00  0.00    -0.225 N 
ATOM     16  C   UNL     1       2.214  -1.396   0.982  0.00  0.00    +0.143 A 
ATOM     17  N   UNL     1       3.488  -1.506   1.271  0.00  0.00    -0.115 NA
ATOM     18  N   UNL     1       3.630  -1.293   2.533  0.00  0.00    -0.023 NA
ATOM     19  N   UNL     1       2.479  -1.051   3.058  0.00  0.00    -0.043 NA
BRANCH  15  20
ATOM     20  C   UNL     1       0.143  -0.878   2.302  0.00  0.00    +0.061 C 
ATOM     21  C   UNL     1      -0.311   0.253   1.377  0.00  0.00    +0.036 C 
ATOM     22  C   UNL     1      -0.615  -2.159   1.952  0.00  0.00    +0.036 C 
BRANCH  20  24
ATOM     23  C   UNL     1      -1.647  -0.263   3.933  0.00  0.00    +0.006 C 
ATOM     24  C   UNL     1      -0.145  -0.495   3.755  0.00  0.00    +0.026 C 
ENDBRANCH  20  24
ENDBRANCH  15  20
ENDBRANCH   1  16
BRANCH   1  25
ATOM     25  N   UNL     1       2.053  -2.832  -0.971  0.00  0.00    +0.394 N 
ATOM     26  H   UNL     1       3.078  -2.813  -1.026  0.00  0.00    -0.080 HD
BRANCH  25  27
ATOM     27  C   UNL     1       1.638  -3.971  -0.126  0.00  0.00    -0.034 C 
BRANCH  27  28
ATOM     28  C   UNL     1       2.383  -5.203  -0.574  0.00  0.00    -0.027 A 
ATOM     29  C   UNL     1       3.627  -5.619  -0.232  0.00  0.00    +0.009 A 
ATOM     30  C   UNL     1       4.111  -6.797  -0.769  0.00  0.00    +0.008 A 
ATOM     31  C   UNL     1       3.331  -7.496  -1.629  0.00  0.00    +0.045 A 
ATOM     32  S   UNL     1       1.859  -6.487  -1.697  0.00  0.00    -0.103 S 
ENDBRANCH  27  28
ENDBRANCH  25  27
BRANCH  25  33
ATOM     33  C   UNL     1       1.502  -2.986  -2.334  0.00  0.00    -0.045 C 
BRANCH  33  34
ATOM     34  C   UNL     1      -0.022  -3.110  -2.285  0.00  0.00    +0.102 C 
ATOM     35  C   UNL     1      -0.581  -3.427  -3.689  0.00  0.00    +0.032 C 
ATOM     36  C   UNL     1      -1.903  -2.630  -3.757  0.00  0.00    +0.030 C 
ATOM     37  C   UNL     1      -1.986  -1.925  -2.385  0.00  0.00    +0.160 C 
ATOM     38  O   UNL     1      -0.619  -1.843  -1.928  0.00  0.00    -0.378 OA
ENDBRANCH  33  34
ENDBRANCH  25  33
ENDBRANCH   1  25
TORSDOF 9
