REMARK  Name = ZINC01872414
REMARK  14 active torsions:
REMARK  status: ('A' for Active; 'I' for Inactive)
REMARK    1  A    between atoms: C_1  and  C_2
REMARK    2  A    between atoms: C_2  and  C_40
REMARK    3  A    between atoms: C_9  and  C_32
REMARK    4  A    between atoms: C_9  and  C_36
REMARK    5  A    between atoms: C_10  and  C_24
REMARK    6  A    between atoms: N_11  and  C_12
REMARK    7  A    between atoms: C_12  and  C_13
REMARK    8  A    between atoms: C_13  and  C_14
REMARK    9  A    between atoms: C_17  and  O_22
REMARK   10  A    between atoms: C_18  and  O_20
REMARK   11  A    between atoms: O_20  and  C_21
REMARK   12  A    between atoms: O_22  and  C_23
REMARK   13  A    between atoms: C_27  and  O_30
REMARK   14  A    between atoms: O_30  and  C_31
REMARK                            x       y       z     vdW  Elec       q    Type
REMARK                         _______ _______ _______ _____ _____    ______ ____
ROOT
ATOM      1  C   UNL     1       0.289   2.033   2.233  0.00  0.00    +0.011 C 
ATOM      2  C   UNL     1      -0.552   2.270   0.978  0.00  0.00    -0.023 C 
ATOM      3  C   UNL     1       0.227   1.810  -0.257  0.00  0.00    +0.058 C 
ATOM      4  C   UNL     1      -0.625   1.989  -1.487  0.00  0.00    +0.022 C 
ATOM      5  C   UNL     1      -1.971   1.890  -1.427  0.00  0.00    +0.055 C 
ATOM      6  C   UNL     1      -2.624   1.631  -0.211  0.00  0.00    +0.164 C 
ATOM      7  O   UNL     1      -3.836   1.542  -0.191  0.00  0.00    -0.292 OA
ATOM      8  C   UNL     1      -1.849   1.460   1.067  0.00  0.00    +0.086 C 
ATOM      9  C   UNL     1      -2.803   2.060  -2.672  0.00  0.00    +0.260 C 
ATOM     10  C   UNL     1      -0.755   2.795  -3.721  0.00  0.00    +0.107 C 
ATOM     11  N   UNL     1      -0.018   2.263  -2.684  0.00  0.00    -0.289 N 
ATOM     12  C   UNL     1      -0.884   3.758   0.850  0.00  0.00    +0.011 C 
ATOM     13  N   UNL     1      -2.090   2.753  -3.800  0.00  0.00    -0.348 N 
ATOM     14  H   UNL     1      -2.600   3.171  -4.587  0.00  0.00    +0.162 HD
ENDROOT
BRANCH  10  15
ATOM     15  C   UNL     1      -0.059   3.467  -4.839  0.00  0.00    +0.013 A 
ATOM     16  C   UNL     1       1.017   4.318  -4.583  0.00  0.00    +0.015 A 
ATOM     17  C   UNL     1       1.667   4.939  -5.628  0.00  0.00    +0.046 A 
ATOM     18  C   UNL     1       1.245   4.726  -6.934  0.00  0.00    +0.120 A 
ATOM     19  C   UNL     1       0.171   3.884  -7.193  0.00  0.00    +0.046 A 
ATOM     20  C   UNL     1      -0.480   3.256  -6.154  0.00  0.00    +0.015 A 
BRANCH  18  21
ATOM     21  O   UNL     1       1.884   5.343  -7.961  0.00  0.00    -0.495 OA
ATOM     22  C   UNL     1       2.980   6.196  -7.624  0.00  0.00    +0.277 C 
ENDBRANCH  18  21
ENDBRANCH  10  15
BRANCH   9  23
ATOM     23  C   UNL     1      -3.257   0.683  -3.162  0.00  0.00    +0.425 C 
ATOM     24  F   UNL     1      -4.021   0.063  -2.167  0.00  0.00    -0.167 F 
ATOM     25  F   UNL     1      -4.030   0.831  -4.318  0.00  0.00    -0.167 F 
ATOM     26  F   UNL     1      -2.136  -0.104  -3.448  0.00  0.00    -0.167 F 
ENDBRANCH   9  23
BRANCH   9  27
ATOM     27  C   UNL     1      -4.034   2.904  -2.341  0.00  0.00    +0.425 C 
ATOM     28  F   UNL     1      -3.668   3.945  -1.480  0.00  0.00    -0.167 F 
ATOM     29  F   UNL     1      -4.565   3.439  -3.519  0.00  0.00    -0.167 F 
ATOM     30  F   UNL     1      -4.997   2.101  -1.719  0.00  0.00    -0.167 F 
ENDBRANCH   9  27
BRANCH  11  31
ATOM     31  C   UNL     1       1.411   1.991  -2.861  0.00  0.00    +0.117 C 
BRANCH  31  32
ATOM     32  C   UNL     1       1.607   0.524  -3.248  0.00  0.00    +0.054 C 
BRANCH  32  33
ATOM     33  C   UNL     1       3.076   0.244  -3.432  0.00  0.00    -0.042 A 
ATOM     34  C   UNL     1       3.659   0.405  -4.675  0.00  0.00    +0.007 A 
ATOM     35  C   UNL     1       5.008   0.155  -4.846  0.00  0.00    +0.049 A 
ATOM     36  C   UNL     1       5.777  -0.268  -3.774  0.00  0.00    +0.161 A 
ATOM     37  C   UNL     1       5.189  -0.435  -2.524  0.00  0.00    +0.162 A 
ATOM     38  C   UNL     1       3.837  -0.177  -2.357  0.00  0.00    +0.053 A 
BRANCH  37  39
ATOM     39  O   UNL     1       5.939  -0.849  -1.468  0.00  0.00    -0.491 OA
ATOM     40  C   UNL     1       5.268  -0.998  -0.214  0.00  0.00    +0.277 C 
ENDBRANCH  37  39
BRANCH  36  41
ATOM     41  O   UNL     1       7.102  -0.520  -3.942  0.00  0.00    -0.491 OA
ATOM     42  C   UNL     1       7.638  -0.327  -5.253  0.00  0.00    +0.277 C 
ENDBRANCH  36  41
ENDBRANCH  32  33
ENDBRANCH  31  32
ENDBRANCH  11  31
TORSDOF 9
