REMARK  Name = ZINC32845955
REMARK  6 active torsions:
REMARK  status: ('A' for Active; 'I' for Inactive)
REMARK    1  A    between atoms: C_4  and  C_7
REMARK    2  A    between atoms: C_7  and  C_9
REMARK    3  A    between atoms: C_7  and  N_18
REMARK    4  A    between atoms: C_19  and  C_21
REMARK    5  A    between atoms: C_21  and  N_22
REMARK    6  A    between atoms: C_23  and  C_25
REMARK                            x       y       z     vdW  Elec       q    Type
REMARK                         _______ _______ _______ _____ _____    ______ ____
ROOT
ATOM      1  N   UNL     1      -1.640  -1.854   0.008  0.00  0.00    -0.300 N 
ATOM      2  C   UNL     1      -1.412  -0.526   0.013  0.00  0.00    +0.231 C 
ATOM      3  O   UNL     1      -2.344   0.250   0.026  0.00  0.00    -0.274 OA
ATOM      4  H   UNL     1      -0.794  -2.557  -0.004  0.00  0.00    +0.150 HD
ENDROOT
BRANCH   1   5
ATOM      5  C   UNL     1      -3.014  -2.361   0.018  0.00  0.00    +0.169 C 
BRANCH   5   6
ATOM      6  C   UNL     1      -3.046  -3.740  -0.589  0.00  0.00    +0.131 A 
ATOM      7  C   UNL     1      -4.002  -4.195  -1.410  0.00  0.00    +0.055 A 
ATOM      8  C   UNL     1      -3.627  -5.572  -1.752  0.00  0.00    +0.020 A 
ATOM      9  C   UNL     1      -4.193  -6.568  -2.547  0.00  0.00    +0.011 A 
ATOM     10  C   UNL     1      -3.571  -7.781  -2.659  0.00  0.00    +0.001 A 
ATOM     11  C   UNL     1      -2.383  -8.026  -1.985  0.00  0.00    +0.004 A 
ATOM     12  C   UNL     1      -1.809  -7.054  -1.194  0.00  0.00    +0.047 A 
ATOM     13  C   UNL     1      -2.424  -5.814  -1.067  0.00  0.00    +0.135 A 
ATOM     14  O   UNL     1      -2.115  -4.689  -0.391  0.00  0.00    -0.457 OA
ENDBRANCH   5   6
BRANCH   5  18
ATOM     15  C   UNL     1      -4.434  -2.546   4.043  0.00  0.00    +0.000 A 
ATOM     16  C   UNL     1      -5.275  -2.119   3.033  0.00  0.00    +0.000 A 
ATOM     17  C   UNL     1      -4.815  -2.059   1.730  0.00  0.00    +0.006 A 
ATOM     18  C   UNL     1      -3.515  -2.426   1.438  0.00  0.00    -0.020 A 
ATOM     19  C   UNL     1      -2.676  -2.859   2.448  0.00  0.00    +0.006 A 
ATOM     20  C   UNL     1      -3.133  -2.914   3.751  0.00  0.00    +0.000 A 
ENDBRANCH   5  18
ENDBRANCH   1   5
BRANCH   2  21
ATOM     21  C   UNL     1       0.002  -0.004   0.002  0.00  0.00    +0.200 C 
BRANCH  21  22
ATOM     22  N   UNL     1      -0.018   1.461   0.010  0.00  0.00    -0.306 N 
ATOM     23  C   UNL     1       1.140   2.151   0.003  0.00  0.00    +0.220 C 
ATOM     24  O   UNL     1       2.199   1.558  -0.011  0.00  0.00    -0.275 OA
ATOM     25  H   UNL     1      -0.978   1.998   0.022  0.00  0.00    +0.149 HD
BRANCH  23  26
ATOM     26  C   UNL     1       1.120   3.657   0.011  0.00  0.00    +0.048 C 
ATOM     27  C   UNL     1       0.380   4.164  -1.228  0.00  0.00    +0.019 C 
ATOM     28  C   UNL     1       0.359   5.694  -1.220  0.00  0.00    -0.009 C 
ATOM     29  C   UNL     1       1.794   6.224  -1.231  0.00  0.00    +0.007 C 
ATOM     30  C   UNL     1       2.534   5.717   0.009  0.00  0.00    -0.009 C 
ATOM     31  C   UNL     1       2.555   4.187   0.000  0.00  0.00    +0.019 C 
ATOM     32  C   UNL     1       1.818   6.210   1.267  0.00  0.00    +0.007 C 
ATOM     33  C   UNL     1       0.383   5.681   1.278  0.00  0.00    -0.009 C 
ATOM     34  C   UNL     1      -0.357   6.187   0.039  0.00  0.00    +0.007 C 
ATOM     35  C   UNL     1       0.404   4.151   1.270  0.00  0.00    +0.019 C 
ENDBRANCH  23  26
ENDBRANCH  21  22
ENDBRANCH   2  21
TORSDOF 6
