REMARK  Name = ZINC12349931
REMARK  9 active torsions:
REMARK  status: ('A' for Active; 'I' for Inactive)
REMARK    1  A    between atoms: C_1  and  N_2
REMARK    2  A    between atoms: N_2  and  C_3
REMARK    3  A    between atoms: N_2  and  C_4
REMARK    4  A    between atoms: C_7  and  C_10
REMARK    5  A    between atoms: C_24  and  C_27
REMARK    6  A    between atoms: C_30  and  O_35
REMARK    7  A    between atoms: C_31  and  O_33
REMARK    8  A    between atoms: O_33  and  C_34
REMARK    9  A    between atoms: O_35  and  C_36
REMARK                            x       y       z     vdW  Elec       q    Type
REMARK                         _______ _______ _______ _____ _____    ______ ____
ROOT
ATOM      1  C   UNL     1       3.921   4.470   0.560  0.00  0.00    +0.086 C 
ATOM      2  C   UNL     1       3.273   3.159   0.217  0.00  0.00    -0.011 A 
ATOM      3  C   UNL     1       1.899   3.025   0.310  0.00  0.00    +0.056 A 
ATOM      4  C   UNL     1       1.294   1.818  -0.001  0.00  0.00    +0.167 A 
ATOM      5  C   UNL     1       2.070   0.734  -0.407  0.00  0.00    +0.168 A 
ATOM      6  C   UNL     1       3.444   0.868  -0.501  0.00  0.00    +0.073 A 
ATOM      7  C   UNL     1       4.046   2.080  -0.190  0.00  0.00    +0.039 A 
ATOM      8  N   UNL     1       5.431   2.223  -0.289  0.00  0.00    -0.317 N 
ATOM      9  C   UNL     1       5.989   3.464  -0.403  0.00  0.00    +0.016 C 
ATOM     10  C   UNL     1       5.311   4.567  -0.015  0.00  0.00    +0.024 C 
ATOM     11  C   UNL     1       5.883   5.845  -0.131  0.00  0.00    +0.162 C 
ATOM     12  O   UNL     1       5.244   6.818   0.219  0.00  0.00    -0.292 OA
ATOM     13  C   UNL     1       7.271   6.032  -0.679  0.00  0.00    +0.088 C 
ATOM     14  C   UNL     1       8.098   4.778  -0.377  0.00  0.00    +0.032 C 
ATOM     15  C   UNL     1       7.380   3.569  -0.979  0.00  0.00    +0.059 C 
ATOM     16  O   UNL     1       1.245  -0.326  -0.649  0.00  0.00    -0.453 OA
ATOM     17  C   UNL     1       0.002  -0.004   0.002  0.00  0.00    +0.466 C 
ATOM     18  O   UNL     1      -0.017   1.435   0.010  0.00  0.00    -0.453 OA
ATOM     19  H   UNL     1       6.000   1.438  -0.278  0.00  0.00    +0.152 HD
ENDROOT
BRANCH   1  23
ATOM     20  C   UNL     1       4.138   4.849   4.811  0.00  0.00    +0.029 A 
ATOM     21  C   UNL     1       3.398   5.761   4.068  0.00  0.00    +0.023 A 
ATOM     22  C   UNL     1       3.330   5.635   2.695  0.00  0.00    +0.006 A 
ATOM     23  C   UNL     1       3.997   4.604   2.059  0.00  0.00    -0.035 A 
ATOM     24  C   UNL     1       4.730   3.692   2.796  0.00  0.00    +0.006 A 
ATOM     25  C   UNL     1       4.807   3.815   4.170  0.00  0.00    +0.023 A 
BRANCH  20  27
ATOM     26  C   UNL     1       3.502   6.064   6.876  0.00  0.00    +0.129 C 
ATOM     27  N   UNL     1       4.208   4.973   6.201  0.00  0.00    -0.336 N 
ATOM     28  C   UNL     1       4.989   4.011   6.983  0.00  0.00    +0.129 C 
ENDBRANCH  20  27
ENDBRANCH   1  23
BRANCH  14  29
ATOM     29  C   UNL     1       9.467   4.913  -0.992  0.00  0.00    -0.040 A 
ATOM     30  C   UNL     1       9.595   5.097  -2.357  0.00  0.00    +0.008 A 
ATOM     31  C   UNL     1      10.849   5.222  -2.926  0.00  0.00    +0.049 A 
ATOM     32  C   UNL     1      11.981   5.164  -2.129  0.00  0.00    +0.161 A 
ATOM     33  C   UNL     1      11.852   4.979  -0.756  0.00  0.00    +0.162 A 
ATOM     34  C   UNL     1      10.592   4.859  -0.191  0.00  0.00    +0.053 A 
BRANCH  33  35
ATOM     35  O   UNL     1      12.960   4.921   0.031  0.00  0.00    -0.491 OA
ATOM     36  C   UNL     1      12.752   4.729   1.432  0.00  0.00    +0.277 C 
ENDBRANCH  33  35
BRANCH  32  37
ATOM     37  O   UNL     1      13.214   5.288  -2.687  0.00  0.00    -0.491 OA
ATOM     38  C   UNL     1      13.270   5.476  -4.103  0.00  0.00    +0.277 C 
ENDBRANCH  32  37
ENDBRANCH  14  29
TORSDOF 5
