REMARK  Name = ZINC59787836
REMARK  6 active torsions:
REMARK  status: ('A' for Active; 'I' for Inactive)
REMARK    1  A    between atoms: C_6  and  C_7
REMARK    2  A    between atoms: C_10  and  S_13
REMARK    3  A    between atoms: S_13  and  C_14
REMARK    4  A    between atoms: C_14  and  C_15
REMARK    5  A    between atoms: N_17  and  N_18
REMARK    6  A    between atoms: N_18  and  C_19
REMARK                            x       y       z     vdW  Elec       q    Type
REMARK                         _______ _______ _______ _____ _____    ______ ____
ROOT
ATOM      1  S   UNL     1      -3.282  -4.087   0.013  0.00  0.00    -0.077 S 
ENDROOT
BRANCH   1   5
ATOM      2  C   UNL     1      -1.271  -0.766   0.011  0.00  0.00    +0.182 A 
ATOM      3  N   UNL     1      -1.380  -2.102   0.004  0.00  0.00    -0.201 NA
ATOM      4  H   UNL     1      -4.355  -1.246   0.040  0.00  0.00    +0.191 HD
ATOM      5  C   UNL     1      -2.651  -2.442   0.016  0.00  0.00    +0.185 A 
ATOM      6  N   UNL     1      -3.387  -1.309   0.029  0.00  0.00    -0.253 N 
ATOM      7  N   UNL     1      -2.475  -0.241   0.031  0.00  0.00    -0.152 NA
BRANCH   2  13
ATOM      8  C   UNL     1      -0.017   1.389   0.010  0.00  0.00    +0.013 A 
ATOM      9  C   UNL     1       1.170   2.093   0.002  0.00  0.00    +0.016 A 
ATOM     10  C   UNL     1       2.378   1.417  -0.013  0.00  0.00    +0.018 A 
ATOM     11  C   UNL     1       2.402   0.034  -0.021  0.00  0.00    +0.016 A 
ATOM     12  C   UNL     1       1.221  -0.680  -0.014  0.00  0.00    +0.013 A 
ATOM     13  C   UNL     1       0.002  -0.004   0.002  0.00  0.00    +0.021 A 
ATOM     14 BR   UNL     1       4.001   2.388  -0.025  0.00  0.00    -0.050 Br
ENDBRANCH   2  13
ENDBRANCH   1   5
BRANCH   1  15
ATOM     15  C   UNL     1      -1.796  -5.128  -0.007  0.00  0.00    +0.174 C 
BRANCH  15  16
ATOM     16  C   UNL     1      -2.200  -6.580  -0.010  0.00  0.00    +0.239 C 
ATOM     17  O   UNL     1      -3.374  -6.883  -0.000  0.00  0.00    -0.273 OA
ATOM     18  N   UNL     1      -1.256  -7.541  -0.025  0.00  0.00    -0.236 N 
ATOM     19  H   UNL     1      -0.317  -7.299  -0.033  0.00  0.00    +0.173 HD
BRANCH  18  20
ATOM     20  N   UNL     1      -1.631  -8.891  -0.028  0.00  0.00    -0.264 N 
ATOM     21  H   UNL     1      -2.571  -9.133  -0.020  0.00  0.00    +0.170 HD
BRANCH  20  22
ATOM     22  C   UNL     1      -0.652  -9.889  -0.043  0.00  0.00    +0.045 A 
ATOM     23  C   UNL     1       0.693  -9.543  -0.049  0.00  0.00    +0.027 A 
ATOM     24  C   UNL     1       1.659 -10.531  -0.063  0.00  0.00    +0.040 A 
ATOM     25  C   UNL     1       1.287 -11.864  -0.072  0.00  0.00    +0.124 A 
ATOM     26  C   UNL     1      -0.054 -12.211  -0.067  0.00  0.00    +0.040 A 
ATOM     27  C   UNL     1      -1.023 -11.227  -0.046  0.00  0.00    +0.027 A 
ATOM     28  F   UNL     1       2.233 -12.828  -0.087  0.00  0.00    -0.205 F 
ENDBRANCH  20  22
ENDBRANCH  18  20
ENDBRANCH  15  16
ENDBRANCH   1  15
TORSDOF 6
