REMARK  Name = ZINC65588342
REMARK  6 active torsions:
REMARK  status: ('A' for Active; 'I' for Inactive)
REMARK    1  A    between atoms: C_1  and  C_2
REMARK    2  A    between atoms: C_2  and  C_4
REMARK    3  A    between atoms: C_2  and  N_14
REMARK    4  A    between atoms: C_6  and  C_9
REMARK    5  A    between atoms: N_17  and  C_20
REMARK    6  A    between atoms: C_25  and  O_27
REMARK                            x       y       z     vdW  Elec       q    Type
REMARK                         _______ _______ _______ _____ _____    ______ ____
ROOT
ATOM      1  N   UNL     1       0.553  -0.376  -1.308  0.00  0.00    -0.295 NA
ATOM      2  C   UNL     1       1.967   0.013  -1.414  0.00  0.00    +0.066 C 
ATOM      3  C   UNL     1       2.518  -0.444  -2.767  0.00  0.00    -0.063 C 
ATOM      4  N   UNL     1       1.740   0.175  -3.847  0.00  0.00    +0.385 N 
ATOM      5  C   UNL     1       0.335  -0.243  -3.742  0.00  0.00    -0.063 C 
ATOM      6  C   UNL     1      -0.234   0.216  -2.398  0.00  0.00    +0.066 C 
ATOM      7  H   UNL     1       1.798   1.179  -3.771  0.00  0.00    -0.081 HD
ENDROOT
BRANCH   4   8
ATOM      8  C   UNL     1       2.281  -0.250  -5.145  0.00  0.00    -0.039 C 
ATOM      9  C   UNL     1       1.528   0.453  -6.303  0.00  0.00    -0.013 C 
ATOM     10  C   UNL     1       2.554   0.395  -7.462  0.00  0.00    +0.001 C 
ATOM     11  C   UNL     1       3.915   0.632  -6.775  0.00  0.00    +0.029 C 
ATOM     12  C   UNL     1       3.742   0.218  -5.301  0.00  0.00    +0.101 C 
BRANCH  12  13
ATOM     13  O   UNL     1       4.635  -0.850  -4.981  0.00  0.00    -0.393 OA
ATOM     14  H   UNL     1       5.571  -0.618  -5.059  0.00  0.00    +0.210 HD
ENDBRANCH  12  13
ENDBRANCH   4   8
BRANCH   1  16
ATOM     15  C   UNL     1       0.778  -0.725   1.106  0.00  0.00    +0.034 C 
ATOM     16  C   UNL     1       0.002  -0.004   0.002  0.00  0.00    +0.143 C 
BRANCH  16  17
ATOM     17  C   UNL     1      -1.450  -0.402   0.067  0.00  0.00    +0.245 A 
ATOM     18  N   UNL     1      -2.425   0.347   0.496  0.00  0.00    -0.190 NA
ATOM     19  C   UNL     1      -3.591  -0.323   0.416  0.00  0.00    +0.209 A 
ATOM     20  N   UNL     1      -3.353  -1.518  -0.073  0.00  0.00    -0.055 NA
ATOM     21  O   UNL     1      -1.955  -1.583  -0.312  0.00  0.00    -0.336 OA
BRANCH  19  22
ATOM     22  C   UNL     1      -4.915   0.200   0.811  0.00  0.00    +0.060 A 
ATOM     23  C   UNL     1      -6.136  -0.419   0.764  0.00  0.00    +0.019 A 
ATOM     24  C   UNL     1      -7.246   0.274   1.192  0.00  0.00    +0.008 A 
ATOM     25  C   UNL     1      -7.098   1.546   1.646  0.00  0.00    +0.046 A 
ATOM     26  S   UNL     1      -5.338   1.800   1.482  0.00  0.00    -0.093 S 
ENDBRANCH  19  22
ENDBRANCH  16  17
ENDBRANCH   1  16
TORSDOF 5
