REMARK  Name = ZINC33130292
REMARK  9 active torsions:
REMARK  status: ('A' for Active; 'I' for Inactive)
REMARK    1  A    between atoms: C_1  and  C_2
REMARK    2  A    between atoms: C_5  and  C_8
REMARK    3  A    between atoms: C_11  and  S_14
REMARK    4  A    between atoms: S_14  and  N_17
REMARK    5  A    between atoms: N_17  and  C_18
REMARK    6  A    between atoms: C_21  and  C_24
REMARK    7  A    between atoms: N_26  and  C_27
REMARK    8  A    between atoms: C_27  and  C_28
REMARK    9  A    between atoms: C_28  and  C_29
REMARK                            x       y       z     vdW  Elec       q    Type
REMARK                         _______ _______ _______ _____ _____    ______ ____
ROOT
ATOM      1  N   UNL     1       1.229  -2.079  -0.020  0.00  0.00    -0.216 N 
ATOM      2  H   UNL     1       0.610  -2.641   0.694  0.00  0.00    +0.174 HD
ENDROOT
BRANCH   1   3
ATOM      3  C   UNL     1       1.236  -0.689   0.010  0.00  0.00    +0.048 A 
ATOM      4  C   UNL     1       0.036   0.011   0.098  0.00  0.00    +0.025 A 
ATOM      5  C   UNL     1       0.040   1.387   0.129  0.00  0.00    +0.015 A 
ATOM      6  C   UNL     1       1.251   2.082   0.071  0.00  0.00    +0.037 A 
ATOM      7  C   UNL     1       2.455   1.377  -0.017  0.00  0.00    +0.015 A 
ATOM      8  C   UNL     1       2.444   0.001  -0.048  0.00  0.00    +0.025 A 
BRANCH   6   9
ATOM      9  C   UNL     1       1.259   3.557   0.103  0.00  0.00    +0.244 C 
ATOM     10  O   UNL     1       0.211   4.169   0.180  0.00  0.00    -0.270 OA
ATOM     11  N   UNL     1       2.428   4.226   0.048  0.00  0.00    -0.311 N 
ATOM     12  H   UNL     1       3.376   3.672  -0.022  0.00  0.00    +0.149 HD
BRANCH  11  13
ATOM     13  C   UNL     1       2.436   5.690   0.080  0.00  0.00    +0.109 C 
BRANCH  13  14
ATOM     14  C   UNL     1       3.878   6.194   0.004  0.00  0.00    +0.049 C 
BRANCH  14  15
ATOM     15  C   UNL     1       3.886   7.701   0.036  0.00  0.00    -0.072 C 
ATOM     16  C   UNL     1       4.058   8.282   1.180  0.00  0.00    -0.028 C 
ATOM     17  C   UNL     1       4.079   9.771   1.372  0.00  0.00    +0.027 C 
ATOM     18  C   UNL     1       4.300  10.472   0.030  0.00  0.00    +0.004 C 
ATOM     19  C   UNL     1       3.312   9.891  -0.989  0.00  0.00    +0.005 C 
ATOM     20  C   UNL     1       3.701   8.434  -1.260  0.00  0.00    +0.030 C 
ENDBRANCH  14  15
ENDBRANCH  13  14
ENDBRANCH  11  13
ENDBRANCH   6   9
ENDBRANCH   1   3
BRANCH   1  21
ATOM     21  S   UNL     1       2.152  -2.888  -1.131  0.00  0.00    +0.072 S 
ATOM     22  O   UNL     1       3.473  -2.378  -1.010  0.00  0.00    -0.150 OA
ATOM     23  O   UNL     1       1.852  -4.268  -0.981  0.00  0.00    -0.150 OA
BRANCH  21  27
ATOM     24  C   UNL     1       0.671  -1.679  -5.239  0.00  0.00    -0.018 A 
ATOM     25  C   UNL     1       1.755  -1.019  -4.664  0.00  0.00    +0.010 A 
ATOM     26  C   UNL     1       2.202  -1.391  -3.412  0.00  0.00    +0.029 A 
ATOM     27  C   UNL     1       1.576  -2.417  -2.729  0.00  0.00    +0.109 A 
ATOM     28  C   UNL     1       0.503  -3.080  -3.296  0.00  0.00    +0.029 A 
ATOM     29  C   UNL     1       0.044  -2.713  -4.545  0.00  0.00    +0.010 A 
BRANCH  24  34
ATOM     30  C   UNL     1      -1.212  -0.143 -10.460  0.00  0.00    +0.044 C 
ATOM     31  C   UNL     1      -0.719  -0.546  -9.094  0.00  0.00    -0.050 A 
ATOM     32  C   UNL     1      -1.345  -1.572  -8.411  0.00  0.00    +0.004 A 
ATOM     33  C   UNL     1      -0.898  -1.944  -7.159  0.00  0.00    +0.009 A 
ATOM     34  C   UNL     1       0.186  -1.284  -6.584  0.00  0.00    -0.018 A 
ATOM     35  C   UNL     1       0.810  -0.247  -7.275  0.00  0.00    +0.009 A 
ATOM     36  C   UNL     1       0.358   0.113  -8.529  0.00  0.00    +0.004 A 
ENDBRANCH  24  34
ENDBRANCH  21  27
ENDBRANCH   1  21
TORSDOF 8
