REMARK  Name = ZINC20797327
REMARK  9 active torsions:
REMARK  status: ('A' for Active; 'I' for Inactive)
REMARK    1  A    between atoms: C_1  and  C_2
REMARK    2  A    between atoms: C_2  and  C_4
REMARK    3  A    between atoms: C_2  and  C_28
REMARK    4  A    between atoms: C_4  and  N_5
REMARK    5  A    between atoms: C_6  and  C_8
REMARK    6  A    between atoms: C_8  and  C_10
REMARK    7  A    between atoms: C_8  and  N_11
REMARK    8  A    between atoms: N_14  and  S_17
REMARK    9  A    between atoms: S_17  and  C_20
REMARK                            x       y       z     vdW  Elec       q    Type
REMARK                         _______ _______ _______ _____ _____    ______ ____
ROOT
ATOM      1  N   UNL     1       2.786   8.221   3.673  0.00  0.00    +0.389 N 
ATOM      2  C   UNL     1       2.297   9.566   4.003  0.00  0.00    -0.060 C 
ATOM      3  C   UNL     1       2.793   9.957   5.400  0.00  0.00    +0.091 C 
ATOM      4  N   UNL     1       4.255   9.799   5.438  0.00  0.00    -0.180 NA
ATOM      5  C   UNL     1       4.829   8.521   4.989  0.00  0.00    +0.091 C 
ATOM      6  C   UNL     1       4.253   8.187   3.609  0.00  0.00    -0.060 C 
ATOM      7  H   UNL     1       2.470   7.543   4.479  0.00  0.00    -0.081 HD
ENDROOT
BRANCH   4   8
ATOM      8  S   UNL     1       5.228  11.027   5.973  0.00  0.00    +0.061 S 
ATOM      9  O   UNL     1       4.428  11.840   6.820  0.00  0.00    -0.153 OA
ATOM     10  O   UNL     1       6.437  10.424   6.415  0.00  0.00    -0.153 OA
BRANCH   8  11
ATOM     11  C   UNL     1       5.641  12.012   4.572  0.00  0.00    +0.107 A 
ATOM     12  C   UNL     1       6.772  11.721   3.831  0.00  0.00    +0.031 A 
ATOM     13  C   UNL     1       7.093  12.489   2.728  0.00  0.00    +0.042 A 
ATOM     14  C   UNL     1       6.290  13.559   2.372  0.00  0.00    +0.142 A 
ATOM     15  C   UNL     1       5.160  13.854   3.117  0.00  0.00    +0.078 A 
ATOM     16  C   UNL     1       4.837  13.079   4.217  0.00  0.00    +0.051 A 
ATOM     17 CL   UNL     1       4.151  15.194   2.672  0.00  0.00    -0.081 Cl
ATOM     18  F   UNL     1       6.607  14.314   1.297  0.00  0.00    -0.204 F 
ENDBRANCH   8  11
ENDBRANCH   4   8
BRANCH   1  19
ATOM     19  C   UNL     1       2.193   7.739   2.418  0.00  0.00    +0.016 C 
ATOM     20  C   UNL     1       2.881   8.423   1.234  0.00  0.00    -0.004 C 
BRANCH  19  22
ATOM     21  N   UNL     1       1.672   5.541   1.410  0.00  0.00    -0.316 N 
ATOM     22  C   UNL     1       2.380   6.248   2.314  0.00  0.00    +0.199 C 
ATOM     23  O   UNL     1       3.167   5.683   3.043  0.00  0.00    -0.278 OA
ATOM     24  H   UNL     1       0.959   6.054   0.748  0.00  0.00    +0.149 HD
BRANCH  21  25
ATOM     25  C   UNL     1       1.854   4.091   1.309  0.00  0.00    +0.112 C 
BRANCH  25  27
ATOM     26  C   UNL     1       1.373   4.096  -1.143  0.00  0.00    +0.014 C 
ATOM     27  C   UNL     1       0.939   3.538   0.214  0.00  0.00    +0.033 C 
BRANCH  27  28
ATOM     28  C   UNL     1       1.034   2.034   0.193  0.00  0.00    -0.043 A 
ATOM     29  C   UNL     1      -0.095   1.267   0.412  0.00  0.00    +0.004 A 
ATOM     30  C   UNL     1      -0.008  -0.113   0.393  0.00  0.00    +0.000 A 
ATOM     31  C   UNL     1       1.208  -0.725   0.152  0.00  0.00    +0.000 A 
ATOM     32  C   UNL     1       2.337   0.042  -0.068  0.00  0.00    +0.000 A 
ATOM     33  C   UNL     1       2.250   1.421  -0.048  0.00  0.00    +0.004 A 
ENDBRANCH  27  28
ENDBRANCH  25  27
ENDBRANCH  21  25
ENDBRANCH  19  22
ENDBRANCH   1  19
TORSDOF 7
