REMARK  Name = ZINC40341523
REMARK  14 active torsions:
REMARK  status: ('A' for Active; 'I' for Inactive)
REMARK    1  A    between atoms: C_1  and  C_2
REMARK    2  A    between atoms: C_2  and  C_3
REMARK    3  A    between atoms: C_3  and  C_4
REMARK    4  A    between atoms: C_4  and  O_5
REMARK    5  A    between atoms: O_5  and  C_6
REMARK    6  A    between atoms: C_9  and  C_14
REMARK    7  A    between atoms: C_11  and  O_12
REMARK    8  A    between atoms: O_12  and  C_13
REMARK    9  A    between atoms: C_17  and  C_33
REMARK   10  A    between atoms: N_24  and  C_25
REMARK   11  A    between atoms: C_25  and  C_26
REMARK   12  A    between atoms: C_26  and  C_27
REMARK   13  A    between atoms: C_27  and  N_28
REMARK   14  A    between atoms: C_36  and  C_39
REMARK                            x       y       z     vdW  Elec       q    Type
REMARK                         _______ _______ _______ _____ _____    ______ ____
ROOT
ATOM      1  C   UNL     1      -3.411  -8.156  -0.009  0.00  0.00    +0.141 C 
ATOM      2  C   UNL     1      -3.167  -8.710   1.369  0.00  0.00    +0.035 A 
ATOM      3  C   UNL     1      -3.531  -8.735   2.676  0.00  0.00    +0.072 A 
ATOM      4  N   UNL     1      -2.685  -9.605   3.302  0.00  0.00    -0.276 N 
ATOM      5  N   UNL     1      -1.851 -10.092   2.454  0.00  0.00    -0.168 NA
ATOM      6  H   UNL     1      -2.709  -9.823   4.247  0.00  0.00    +0.189 HD
ATOM      7  C   UNL     1      -2.075  -9.600   1.252  0.00  0.00    +0.153 A 
ATOM      8  C   UNL     1      -1.644  -9.605  -0.158  0.00  0.00    +0.268 C 
ATOM      9  O   UNL     1      -0.725 -10.266  -0.600  0.00  0.00    -0.268 OA
ATOM     10  N   UNL     1      -2.412  -8.775  -0.887  0.00  0.00    -0.285 N 
ENDROOT
BRANCH   3  11
ATOM     11  C   UNL     1      -4.630  -7.966   3.302  0.00  0.00    +0.000 A 
ATOM     12  C   UNL     1      -4.801  -6.615   3.000  0.00  0.00    +0.010 A 
ATOM     13  C   UNL     1      -5.829  -5.905   3.587  0.00  0.00    +0.004 A 
ATOM     14  C   UNL     1      -6.688  -6.530   4.473  0.00  0.00    -0.050 A 
ATOM     15  C   UNL     1      -6.523  -7.870   4.777  0.00  0.00    +0.004 A 
ATOM     16  C   UNL     1      -5.504  -8.592   4.192  0.00  0.00    +0.010 A 
ATOM     17  C   UNL     1      -7.808  -5.748   5.110  0.00  0.00    +0.044 C 
ENDBRANCH   3  11
BRANCH   1  21
ATOM     18  C   UNL     1      -2.913  -3.909   0.009  0.00  0.00    +0.162 A 
ATOM     19  C   UNL     1      -1.804  -4.739  -0.000  0.00  0.00    +0.050 A 
ATOM     20  C   UNL     1      -1.968  -6.112  -0.006  0.00  0.00    +0.009 A 
ATOM     21  C   UNL     1      -3.238  -6.659  -0.002  0.00  0.00    -0.019 A 
ATOM     22  C   UNL     1      -4.348  -5.836   0.006  0.00  0.00    +0.055 A 
ATOM     23  C   UNL     1      -4.191  -4.460   0.018  0.00  0.00    +0.162 A 
BRANCH  23  24
ATOM     24  O   UNL     1      -5.282  -3.649   0.033  0.00  0.00    -0.491 OA
ATOM     25  C   UNL     1      -6.562  -4.284   0.042  0.00  0.00    +0.277 C 
ENDBRANCH  23  24
BRANCH  18  26
ATOM     26  O   UNL     1      -2.753  -2.558   0.015  0.00  0.00    -0.488 OA
BRANCH  26  27
ATOM     27  C   UNL     1      -1.413  -2.063   0.004  0.00  0.00    +0.229 C 
BRANCH  27  28
ATOM     28  C   UNL     1      -1.433  -0.534   0.013  0.00  0.00    +0.041 C 
BRANCH  28  30
ATOM     29  C   UNL     1      -0.019   1.526   0.010  0.00  0.00    +0.004 C 
ATOM     30  C   UNL     1       0.002  -0.004   0.002  0.00  0.00    -0.000 C 
ENDBRANCH  28  30
ENDBRANCH  27  28
ENDBRANCH  26  27
ENDBRANCH  18  26
ENDBRANCH   1  21
BRANCH  10  31
ATOM     31  C   UNL     1      -2.273  -8.529  -2.325  0.00  0.00    +0.111 C 
BRANCH  31  32
ATOM     32  C   UNL     1      -1.313  -7.360  -2.552  0.00  0.00    +0.040 C 
BRANCH  32  33
ATOM     33  C   UNL     1      -1.169  -7.102  -4.053  0.00  0.00    +0.124 C 
BRANCH  33  34
ATOM     34  N   UNL     1      -0.249  -5.983  -4.270  0.00  0.00    -0.338 N 
ATOM     35  C   UNL     1      -0.586  -4.658  -4.346  0.00  0.00    +0.104 A 
ATOM     36  C   UNL     1       0.557  -3.977  -4.551  0.00  0.00    +0.101 A 
ATOM     37  N   UNL     1       1.565  -4.861  -4.600  0.00  0.00    -0.352 N 
ATOM     38  C   UNL     1       1.090  -6.064  -4.427  0.00  0.00    +0.173 A 
ATOM     39  H   UNL     1       2.499  -4.641  -4.738  0.00  0.00    +0.166 HD
ENDBRANCH  33  34
ENDBRANCH  32  33
ENDBRANCH  31  32
ENDBRANCH  10  31
TORSDOF 11
