REMARK  Name = ZINC45629391
REMARK  4 active torsions:
REMARK  status: ('A' for Active; 'I' for Inactive)
REMARK    1  A    between atoms: C_3  and  C_8
REMARK    2  A    between atoms: C_8  and  N_9
REMARK    3  A    between atoms: C_10  and  C_12
REMARK    4  A    between atoms: C_13  and  C_14
REMARK                            x       y       z     vdW  Elec       q    Type
REMARK                         _______ _______ _______ _____ _____    ______ ____
ROOT
ATOM      1  N   UNL     1       4.308   1.369   2.355  0.00  0.00    -0.312 N 
ATOM      2  C   UNL     1       5.551   1.787   2.666  0.00  0.00    +0.237 C 
ATOM      3  O   UNL     1       6.077   2.668   2.015  0.00  0.00    -0.271 OA
ATOM      4  H   UNL     1       3.888   0.666   2.875  0.00  0.00    +0.149 HD
ENDROOT
BRANCH   2   5
ATOM      5  C   UNL     1       6.274   1.174   3.801  0.00  0.00    +0.074 C 
ATOM      6  C   UNL     1       7.513   1.590   4.111  0.00  0.00    +0.101 C 
BRANCH   6   7
ATOM      7  C   UNL     1       8.234   0.979   5.242  0.00  0.00    +0.380 C 
ATOM      8  O   UNL     1       7.705   0.093   5.898  0.00  0.00    -0.241 OA
ATOM      9  O   UNL     1       9.362   1.358   5.524  0.00  0.00    -0.241 OA
ENDBRANCH   6   7
ENDBRANCH   2   5
BRANCH   1  10
ATOM     10  C   UNL     1       3.591   1.977   1.231  0.00  0.00    +0.108 C 
BRANCH  10  13
ATOM     11  C   UNL     1      -0.018   1.496   0.010  0.00  0.00    +0.027 C 
ATOM     12  C   UNL     1       1.411   2.043  -0.000  0.00  0.00    +0.009 C 
ATOM     13  C   UNL     1       2.213   1.327   1.094  0.00  0.00    +0.010 C 
ATOM     14  C   UNL     1       2.369  -0.143   0.695  0.00  0.00    +0.032 C 
ATOM     15  C   UNL     1       1.039  -0.717   0.304  0.00  0.00    -0.031 C 
ATOM     16  C   UNL     1       0.002  -0.004   0.002  0.00  0.00    -0.031 C 
ENDBRANCH  10  13
ENDBRANCH   1  10
TORSDOF 4
