REMARK  Name = ZINC56860331
REMARK  8 active torsions:
REMARK  status: ('A' for Active; 'I' for Inactive)
REMARK    1  A    between atoms: C_1  and  C_2
REMARK    2  A    between atoms: C_7  and  O_8
REMARK    3  A    between atoms: O_8  and  C_9
REMARK    4  A    between atoms: C_9  and  C_10
REMARK    5  A    between atoms: C_10  and  C_12
REMARK    6  A    between atoms: C_10  and  N_13
REMARK    7  A    between atoms: N_16  and  N_17
REMARK    8  A    between atoms: C_18  and  C_20
REMARK                            x       y       z     vdW  Elec       q    Type
REMARK                         _______ _______ _______ _____ _____    ______ ____
ROOT
ATOM      1  N   UNL     1      -1.214   0.848   4.843  0.00  0.00    -0.292 N 
ATOM      2  C   UNL     1      -1.674   1.318   6.019  0.00  0.00    +0.316 C 
ATOM      3  O   UNL     1      -1.042   1.125   7.039  0.00  0.00    -0.251 OA
ATOM      4  N   UNL     1      -2.834   2.002   6.064  0.00  0.00    -0.218 N 
ATOM      5  H   UNL     1      -1.719   1.001   4.028  0.00  0.00    +0.151 HD
ATOM      6  H   UNL     1      -3.165   2.341   6.911  0.00  0.00    +0.174 HD
ENDROOT
BRANCH   4   7
ATOM      7  N   UNL     1      -3.563   2.224   4.888  0.00  0.00    -0.230 N 
ATOM      8  C   UNL     1      -4.723   2.908   4.933  0.00  0.00    +0.273 C 
ATOM      9  O   UNL     1      -5.137   3.331   5.992  0.00  0.00    -0.270 OA
ATOM     10  H   UNL     1      -3.232   1.885   4.041  0.00  0.00    +0.173 HD
BRANCH   8  11
ATOM     11  C   UNL     1      -5.507   3.147   3.668  0.00  0.00    +0.297 C 
ATOM     12  C   UNL     1      -6.016   1.809   3.115  0.00  0.00    +0.283 C 
ATOM     13  O   UNL     1      -6.767   2.073   1.924  0.00  0.00    -0.484 OA
ATOM     14  C   UNL     1      -7.670   3.090   1.984  0.00  0.00    +0.162 A 
ATOM     15  C   UNL     1      -8.667   3.171   1.023  0.00  0.00    +0.049 A 
ATOM     16  C   UNL     1      -9.590   4.199   1.068  0.00  0.00    +0.004 A 
ATOM     17  C   UNL     1      -9.522   5.148   2.070  0.00  0.00    +0.004 A 
ATOM     18  C   UNL     1      -8.532   5.072   3.032  0.00  0.00    +0.049 A 
ATOM     19  C   UNL     1      -7.603   4.043   2.993  0.00  0.00    +0.163 A 
ATOM     20  O   UNL     1      -6.639   3.977   3.951  0.00  0.00    -0.472 OA
ENDBRANCH   8  11
ENDBRANCH   4   7
BRANCH   1  21
ATOM     21  C   UNL     1       0.047   0.104   4.793  0.00  0.00    +0.109 C 
ATOM     22  C   UNL     1       1.215   1.087   4.689  0.00  0.00    +0.031 C 
BRANCH  21  23
ATOM     23  C   UNL     1       0.048  -0.820   3.574  0.00  0.00    +0.251 C 
BRANCH  23  24
ATOM     24  O   UNL     1       0.025  -0.033   2.381  0.00  0.00    -0.490 OA
BRANCH  24  31
ATOM     25  C   UNL     1      -0.018   1.503   0.010  0.00  0.00    +0.047 C 
ATOM     26  C   UNL     1       0.002  -0.004   0.002  0.00  0.00    -0.009 A 
ATOM     27  C   UNL     1       0.006  -0.689  -1.198  0.00  0.00    +0.007 A 
ATOM     28  C   UNL     1       0.024  -2.071  -1.206  0.00  0.00    +0.000 A 
ATOM     29  C   UNL     1       0.039  -2.772  -0.014  0.00  0.00    +0.004 A 
ATOM     30  C   UNL     1       0.036  -2.092   1.188  0.00  0.00    +0.046 A 
ATOM     31  C   UNL     1       0.023  -0.705   1.199  0.00  0.00    +0.123 A 
ENDBRANCH  24  31
ENDBRANCH  23  24
ENDBRANCH  21  23
ENDBRANCH   1  21
TORSDOF 6
