REMARK  Name = ZINC09071912
REMARK  9 active torsions:
REMARK  status: ('A' for Active; 'I' for Inactive)
REMARK    1  A    between atoms: C_1  and  C_2
REMARK    2  A    between atoms: C_2  and  N_3
REMARK    3  A    between atoms: C_4  and  C_27
REMARK    4  A    between atoms: C_7  and  S_8
REMARK    5  A    between atoms: S_8  and  C_9
REMARK    6  A    between atoms: C_9  and  C_10
REMARK    7  A    between atoms: N_12  and  N_13
REMARK    8  A    between atoms: C_16  and  C_20
REMARK    9  A    between atoms: C_16  and  C_21
REMARK                            x       y       z     vdW  Elec       q    Type
REMARK                         _______ _______ _______ _____ _____    ______ ____
ROOT
ATOM      1  C   UNL     1      -1.207   3.267   1.217  0.00  0.00    +0.240 C 
ATOM      2  O   UNL     1      -0.639   3.073   2.270  0.00  0.00    -0.273 OA
ATOM      3  N   UNL     1      -0.651   2.846   0.063  0.00  0.00    -0.223 N 
ATOM      4  H   UNL     1      -1.105   3.002  -0.779  0.00  0.00    +0.174 HD
ENDROOT
BRANCH   3   5
ATOM      5  N   UNL     1       0.584   2.184   0.082  0.00  0.00    -0.137 N 
ATOM      6  C   UNL     1       0.733   0.856  -0.096  0.00  0.00    +0.267 C 
ATOM      7  O   UNL     1      -0.143   0.040  -0.289  0.00  0.00    -0.271 OA
ATOM      8  C   UNL     1       2.223   0.595  -0.003  0.00  0.00    +0.137 C 
ATOM      9  N   UNL     1       2.794   1.931   0.239  0.00  0.00    -0.280 N 
ATOM     10  C   UNL     1       1.760   2.792   0.272  0.00  0.00    +0.327 C 
ATOM     11  O   UNL     1       1.881   3.987   0.454  0.00  0.00    -0.251 OA
ATOM     12  C   UNL     1       2.751   0.014  -1.316  0.00  0.00    +0.047 C 
ATOM     13  H   UNL     1       3.733   2.149   0.352  0.00  0.00    +0.152 HD
BRANCH   8  14
ATOM     14  C   UNL     1       2.529  -0.328   1.148  0.00  0.00    -0.015 A 
ATOM     15  C   UNL     1       1.597  -1.269   1.546  0.00  0.00    +0.006 A 
ATOM     16  C   UNL     1       1.879  -2.119   2.598  0.00  0.00    +0.000 A 
ATOM     17  C   UNL     1       3.090  -2.023   3.259  0.00  0.00    +0.000 A 
ATOM     18  C   UNL     1       4.019  -1.079   2.865  0.00  0.00    +0.000 A 
ATOM     19  C   UNL     1       3.739  -0.232   1.809  0.00  0.00    +0.006 A 
ENDBRANCH   8  14
ENDBRANCH   3   5
BRANCH   1  20
ATOM     20  C   UNL     1      -2.534   3.980   1.197  0.00  0.00    +0.174 C 
BRANCH  20  21
ATOM     21  S   UNL     1      -3.011   4.415   2.888  0.00  0.00    -0.077 S 
BRANCH  21  26
ATOM     22  N   UNL     1      -5.387   5.754   3.511  0.00  0.00    -0.302 N 
ATOM     23  C   UNL     1      -6.454   6.260   2.806  0.00  0.00    +0.165 A 
ATOM     24  N   UNL     1      -6.233   6.006   1.537  0.00  0.00    -0.128 NA
ATOM     25  N   UNL     1      -5.113   5.390   1.402  0.00  0.00    -0.122 NA
ATOM     26  C   UNL     1      -4.551   5.212   2.576  0.00  0.00    +0.192 A 
BRANCH  23  27
ATOM     27  C   UNL     1      -7.631   6.953   3.371  0.00  0.00    +0.019 A 
ATOM     28  C   UNL     1      -8.805   7.063   2.624  0.00  0.00    +0.013 A 
ATOM     29  C   UNL     1      -9.902   7.708   3.158  0.00  0.00    +0.021 A 
ATOM     30  C   UNL     1      -9.836   8.253   4.429  0.00  0.00    +0.041 A 
ATOM     31  C   UNL     1      -8.673   8.151   5.174  0.00  0.00    +0.021 A 
ATOM     32  C   UNL     1      -7.572   7.505   4.652  0.00  0.00    +0.013 A 
ATOM     33 CL   UNL     1     -11.218   9.068   5.093  0.00  0.00    -0.084 Cl
ENDBRANCH  23  27
BRANCH  22  35
ATOM     34  C   UNL     1      -4.358   7.023   5.330  0.00  0.00    +0.027 C 
ATOM     35  C   UNL     1      -5.186   5.791   4.962  0.00  0.00    +0.122 C 
ENDBRANCH  22  35
ENDBRANCH  21  26
ENDBRANCH  20  21
ENDBRANCH   1  20
TORSDOF 7
