REMARK  Name = ZINC39635825
REMARK  5 active torsions:
REMARK  status: ('A' for Active; 'I' for Inactive)
REMARK    1  A    between atoms: C_1  and  C_2
REMARK    2  A    between atoms: C_8  and  N_10
REMARK    3  A    between atoms: C_11  and  C_13
REMARK    4  A    between atoms: C_24  and  C_26
REMARK    5  A    between atoms: C_30  and  C_32
REMARK                            x       y       z     vdW  Elec       q    Type
REMARK                         _______ _______ _______ _____ _____    ______ ____
ROOT
ATOM      1  C   UNL     1       4.099   0.018   2.474  0.00  0.00    +0.100 C 
ATOM      2  C   UNL     1       5.188  -0.716   1.661  0.00  0.00    +0.121 C 
ATOM      3  N   UNL     1       6.421  -0.571   2.469  0.00  0.00    -0.296 N 
ATOM      4  C   UNL     1       5.965  -0.734   3.870  0.00  0.00    +0.115 C 
ATOM      5  C   UNL     1       4.612   0.003   3.924  0.00  0.00    -0.004 C 
ATOM      6  C   UNL     1       3.637  -0.751   4.823  0.00  0.00    -0.010 C 
ATOM      7  C   UNL     1       4.139  -0.701   6.269  0.00  0.00    -0.082 C 
ATOM      8  N   UNL     1       4.253   0.697   6.701  0.00  0.00    +0.379 N 
ATOM      9  C   UNL     1       5.262   1.391   5.891  0.00  0.00    -0.082 C 
ATOM     10  C   UNL     1       4.807   1.429   4.429  0.00  0.00    -0.010 C 
ATOM     11  C   UNL     1       7.675  -0.341   2.029  0.00  0.00    +0.247 C 
ATOM     12  O   UNL     1       7.874  -0.120   0.851  0.00  0.00    -0.270 OA
ATOM     13  H   UNL     1       3.362   1.156   6.591  0.00  0.00    -0.086 HD
ATOM     14  H   UNL     1       4.526   0.726   7.672  0.00  0.00    -0.086 HD
ENDROOT
BRANCH  11  15
ATOM     15  C   UNL     1       8.805  -0.359   2.980  0.00  0.00    +0.038 A 
ATOM     16  C   UNL     1       8.686  -1.031   4.198  0.00  0.00    +0.016 A 
ATOM     17  C   UNL     1       9.744  -1.045   5.081  0.00  0.00    +0.039 A 
ATOM     18  C   UNL     1      10.925  -0.393   4.762  0.00  0.00    +0.135 A 
ATOM     19  C   UNL     1      11.049   0.276   3.554  0.00  0.00    +0.091 A 
ATOM     20  C   UNL     1       9.999   0.291   2.661  0.00  0.00    +0.028 A 
ATOM     21  F   UNL     1      11.959  -0.408   5.631  0.00  0.00    -0.205 F 
BRANCH  19  22
ATOM     22  C   UNL     1      12.336   0.983   3.214  0.00  0.00    +0.420 C 
ATOM     23  F   UNL     1      12.221   1.580   1.954  0.00  0.00    -0.166 F 
ATOM     24  F   UNL     1      12.595   1.968   4.174  0.00  0.00    -0.166 F 
ATOM     25  F   UNL     1      13.386   0.059   3.199  0.00  0.00    -0.166 F 
ENDBRANCH  19  22
ENDBRANCH  11  15
BRANCH   1  27
ATOM     26  N   UNL     1       1.626  -0.037   2.471  0.00  0.00    -0.312 N 
ATOM     27  C   UNL     1       2.786  -0.716   2.376  0.00  0.00    +0.218 C 
ATOM     28  O   UNL     1       2.774  -1.917   2.210  0.00  0.00    -0.275 OA
ATOM     29  H   UNL     1       1.635   0.924   2.604  0.00  0.00    +0.149 HD
BRANCH  26  36
ATOM     30  C   UNL     1      -0.351   0.206   4.575  0.00  0.00    +0.009 C 
ATOM     31  C   UNL     1      -0.736   0.046   3.103  0.00  0.00    +0.006 C 
ATOM     32  C   UNL     1      -2.068  -0.699   3.002  0.00  0.00    +0.005 C 
ATOM     33  C   UNL     1      -2.454  -0.859   1.530  0.00  0.00    +0.000 C 
ATOM     34  C   UNL     1      -1.368  -1.655   0.803  0.00  0.00    +0.002 C 
ATOM     35  C   UNL     1      -0.036  -0.910   0.903  0.00  0.00    +0.022 C 
ATOM     36  C   UNL     1       0.349  -0.750   2.375  0.00  0.00    +0.076 C 
ENDBRANCH  26  36
ENDBRANCH   1  27
TORSDOF 4
