REMARK  Name = ZINC17029377
REMARK  4 active torsions:
REMARK  status: ('A' for Active; 'I' for Inactive)
REMARK    1  A    between atoms: C_3  and  O_15
REMARK    2  A    between atoms: C_6  and  C_7
REMARK    3  A    between atoms: O_15  and  C_16
REMARK    4  A    between atoms: C_16  and  C_17
REMARK                            x       y       z     vdW  Elec       q    Type
REMARK                         _______ _______ _______ _____ _____    ______ ____
ROOT
ATOM      1  C   UNL     1      -1.545   3.020   0.235  0.00  0.00    +0.011 A 
ATOM      2  C   UNL     1      -2.792   3.540   0.500  0.00  0.00    +0.046 A 
ATOM      3  C   UNL     1      -3.842   2.695   0.839  0.00  0.00    +0.121 A 
ATOM      4  C   UNL     1      -3.642   1.321   0.906  0.00  0.00    +0.046 A 
ATOM      5  C   UNL     1      -2.401   0.790   0.638  0.00  0.00    +0.011 A 
ATOM      6  C   UNL     1      -1.339   1.637   0.296  0.00  0.00    -0.024 A 
ENDROOT
BRANCH   6   7
ATOM      7  C   UNL     1      -0.013   1.076   0.008  0.00  0.00    +0.028 C 
ATOM      8  C   UNL     1       0.098  -0.081  -0.694  0.00  0.00    +0.080 C 
ATOM      9  C   UNL     1      -0.943  -0.858  -1.397  0.00  0.00    +0.258 C 
ATOM     10  O   UNL     1      -2.106  -0.500  -1.414  0.00  0.00    -0.269 OA
ATOM     11  N   UNL     1      -0.547  -1.962  -2.006  0.00  0.00    -0.243 N 
ATOM     12  C   UNL     1       0.743  -2.356  -1.984  0.00  0.00    +0.283 C 
ATOM     13  O   UNL     1       1.242  -3.340  -2.497  0.00  0.00    -0.262 OA
ATOM     14  S   UNL     1       1.543  -1.078  -1.027  0.00  0.00    -0.026 S 
ATOM     15  H   UNL     1      -1.276  -2.583  -2.547  0.00  0.00    +0.159 HD
ENDBRANCH   6   7
BRANCH   3  16
ATOM     16  O   UNL     1      -5.069   3.214   1.105  0.00  0.00    -0.487 OA
BRANCH  16  17
ATOM     17  C   UNL     1      -5.205   4.633   1.018  0.00  0.00    +0.264 C 
BRANCH  17  18
ATOM     18  C   UNL     1      -6.625   5.022   1.344  0.00  0.00    -0.009 A 
ATOM     19  C   UNL     1      -6.982   5.300   2.650  0.00  0.00    +0.008 A 
ATOM     20  C   UNL     1      -8.283   5.657   2.951  0.00  0.00    +0.022 A 
ATOM     21  C   UNL     1      -9.228   5.736   1.944  0.00  0.00    +0.059 A 
ATOM     22  C   UNL     1      -8.870   5.459   0.635  0.00  0.00    +0.060 A 
ATOM     23  C   UNL     1      -7.566   5.107   0.336  0.00  0.00    +0.028 A 
ATOM     24 CL   UNL     1     -10.055   5.559  -0.629  0.00  0.00    -0.082 Cl
ATOM     25 CL   UNL     1     -10.863   6.185   2.320  0.00  0.00    -0.082 Cl
ENDBRANCH  17  18
ENDBRANCH  16  17
ENDBRANCH   3  16
TORSDOF 4
