REMARK  Name = ZINC02650615
REMARK  12 active torsions:
REMARK  status: ('A' for Active; 'I' for Inactive)
REMARK    1  A    between atoms: C_1  and  C_2
REMARK    2  A    between atoms: C_2  and  C_4
REMARK    3  A    between atoms: C_2  and  S_20
REMARK    4  A    between atoms: C_9  and  C_12
REMARK    5  A    between atoms: S_20  and  C_21
REMARK    6  A    between atoms: C_24  and  C_26
REMARK    7  A    between atoms: C_28  and  O_36
REMARK    8  A    between atoms: C_29  and  O_34
REMARK    9  A    between atoms: C_30  and  O_32
REMARK   10  A    between atoms: O_32  and  C_33
REMARK   11  A    between atoms: O_34  and  C_35
REMARK   12  A    between atoms: O_36  and  C_37
REMARK                            x       y       z     vdW  Elec       q    Type
REMARK                         _______ _______ _______ _____ _____    ______ ____
ROOT
ATOM      1  C   UNL     1      -0.019   1.526   0.010  0.00  0.00    +0.029 C 
ATOM      2  C   UNL     1       0.002  -0.004   0.002  0.00  0.00    +0.139 C 
ENDROOT
BRANCH   2   3
ATOM      3  C   UNL     1       0.731  -0.503   1.223  0.00  0.00    +0.232 C 
ATOM      4  O   UNL     1       1.911  -0.775   1.156  0.00  0.00    -0.274 OA
ATOM      5  N   UNL     1       0.071  -0.647   2.389  0.00  0.00    -0.264 N 
ATOM      6  C   UNL     1       0.744  -1.108   3.515  0.00  0.00    +0.165 A 
ATOM      7  N   UNL     1       0.283  -1.320   4.734  0.00  0.00    -0.225 NA
ATOM      8  C   UNL     1       1.073  -1.767   5.699  0.00  0.00    +0.080 A 
ATOM      9  C   UNL     1       2.390  -2.012   5.428  0.00  0.00    +0.076 A 
ATOM     10  S   UNL     1       2.459  -1.577   3.695  0.00  0.00    -0.060 S 
ATOM     11  H   UNL     1      -0.872  -0.430   2.443  0.00  0.00    +0.157 HD
BRANCH   8  12
ATOM     12  C   UNL     1       0.533  -1.997   7.061  0.00  0.00    +0.002 A 
ATOM     13  C   UNL     1       1.369  -2.461   8.075  0.00  0.00    +0.011 A 
ATOM     14  C   UNL     1       0.863  -2.674   9.341  0.00  0.00    +0.022 A 
ATOM     15  C   UNL     1      -0.473  -2.428   9.605  0.00  0.00    +0.059 A 
ATOM     16  C   UNL     1      -1.309  -1.967   8.601  0.00  0.00    +0.060 A 
ATOM     17  C   UNL     1      -0.810  -1.746   7.333  0.00  0.00    +0.031 A 
ATOM     18 CL   UNL     1      -2.984  -1.662   8.940  0.00  0.00    -0.082 Cl
ATOM     19 CL   UNL     1      -1.104  -2.699  11.200  0.00  0.00    -0.082 Cl
ENDBRANCH   8  12
ENDBRANCH   2   3
BRANCH   2  20
ATOM     20  S   UNL     1       0.851  -0.589  -1.490  0.00  0.00    -0.053 S 
BRANCH  20  21
ATOM     21  C   UNL     1      -0.189  -0.057  -2.809  0.00  0.00    +0.278 A 
ATOM     22  N   UNL     1      -1.311   0.614  -2.691  0.00  0.00    -0.101 NA
ATOM     23  N   UNL     1      -1.804   0.833  -3.859  0.00  0.00    -0.106 NA
ATOM     24  C   UNL     1      -1.018   0.312  -4.769  0.00  0.00    +0.249 A 
ATOM     25  O   UNL     1       0.024  -0.259  -4.124  0.00  0.00    -0.411 OA
BRANCH  24  26
ATOM     26  C   UNL     1      -1.229   0.345  -6.230  0.00  0.00    +0.046 A 
ATOM     27  C   UNL     1      -0.306  -0.261  -7.085  0.00  0.00    +0.063 A 
ATOM     28  C   UNL     1      -0.507  -0.229  -8.453  0.00  0.00    +0.166 A 
ATOM     29  C   UNL     1      -1.627   0.407  -8.978  0.00  0.00    +0.204 A 
ATOM     30  C   UNL     1      -2.548   1.013  -8.130  0.00  0.00    +0.166 A 
ATOM     31  C   UNL     1      -2.355   0.978  -6.760  0.00  0.00    +0.063 A 
BRANCH  30  32
ATOM     32  O   UNL     1      -3.642   1.634  -8.646  0.00  0.00    -0.491 OA
ATOM     33  C   UNL     1      -4.546   2.235  -7.717  0.00  0.00    +0.277 C 
ENDBRANCH  30  32
BRANCH  29  34
ATOM     34  O   UNL     1      -1.822   0.438 -10.325  0.00  0.00    -0.488 OA
ATOM     35  C   UNL     1      -2.567  -0.639 -10.897  0.00  0.00    +0.277 C 
ENDBRANCH  29  34
BRANCH  28  36
ATOM     36  O   UNL     1       0.392  -0.819  -9.286  0.00  0.00    -0.491 OA
ATOM     37  C   UNL     1       1.519  -1.454  -8.678  0.00  0.00    +0.277 C 
ENDBRANCH  28  36
ENDBRANCH  24  26
ENDBRANCH  20  21
ENDBRANCH   2  20
TORSDOF 8
