REMARK  Name = ZINC00643839
REMARK  8 active torsions:
REMARK  status: ('A' for Active; 'I' for Inactive)
REMARK    1  A    between atoms: C_1  and  O_2
REMARK    2  A    between atoms: O_2  and  C_3
REMARK    3  A    between atoms: C_5  and  C_18
REMARK    4  A    between atoms: C_8  and  O_9
REMARK    5  A    between atoms: O_9  and  C_10
REMARK    6  A    between atoms: C_10  and  C_11
REMARK    7  A    between atoms: C_20  and  C_31
REMARK    8  A    between atoms: C_21  and  N_30
REMARK                            x       y       z     vdW  Elec       q    Type
REMARK                         _______ _______ _______ _____ _____    ______ ____
ROOT
ATOM      1  C   UNL     1      -3.675   1.391   2.919  0.00  0.00    +0.162 A 
ATOM      2  C   UNL     1      -3.146   1.431   1.639  0.00  0.00    +0.054 A 
ATOM      3  C   UNL     1      -1.933   2.054   1.413  0.00  0.00    -0.031 A 
ATOM      4  C   UNL     1      -1.242   2.632   2.462  0.00  0.00    +0.008 A 
ATOM      5  C   UNL     1      -1.767   2.600   3.740  0.00  0.00    +0.050 A 
ATOM      6  C   UNL     1      -2.983   1.977   3.974  0.00  0.00    +0.162 A 
ENDROOT
BRANCH   3   7
ATOM      7  C   UNL     1      -1.358   2.097   0.020  0.00  0.00    +0.101 C 
ATOM      8  C   UNL     1      -1.205   3.529  -0.407  0.00  0.00    +0.098 C 
ATOM      9  C   UNL     1       0.012   4.125  -0.383  0.00  0.00    +0.198 C 
ATOM     10  O   UNL     1       1.106   3.465   0.026  0.00  0.00    -0.445 OA
ATOM     11  C   UNL     1       1.123   2.119   0.003  0.00  0.00    +0.115 C 
ATOM     12  C   UNL     1      -0.017   1.404   0.010  0.00  0.00    +0.046 C 
ATOM     13  C   UNL     1       0.002  -0.004   0.002  0.00  0.00    +0.163 C 
ATOM     14  O   UNL     1      -1.048  -0.615  -0.011  0.00  0.00    -0.292 OA
ATOM     15  C   UNL     1       1.299  -0.766   0.010  0.00  0.00    +0.080 C 
ATOM     16  C   UNL     1       2.371   0.086   0.699  0.00  0.00    +0.016 C 
ATOM     17  C   UNL     1       2.466   1.427  -0.029  0.00  0.00    +0.075 C 
BRANCH   9  18
ATOM     18  N   UNL     1       0.127   5.433  -0.786  0.00  0.00    -0.328 N 
ATOM     19  H   UNL     1       0.993   5.870  -0.773  0.00  0.00    +0.145 HD
ATOM     20  H   UNL     1      -0.657   5.919  -1.084  0.00  0.00    +0.145 HD
ENDBRANCH   9  18
BRANCH   8  21
ATOM     21  C   UNL     1      -2.351   4.266  -0.846  0.00  0.00    +0.101 C 
ATOM     22  N   UNL     1      -3.260   4.851  -1.194  0.00  0.00    -0.191 NA
ENDBRANCH   8  21
ENDBRANCH   3   7
BRANCH   1  24
ATOM     23  C   UNL     1      -5.524   0.199   2.014  0.00  0.00    +0.277 C 
ATOM     24  O   UNL     1      -4.869   0.779   3.144  0.00  0.00    -0.491 OA
ENDBRANCH   1  24
BRANCH   6  25
ATOM     25  O   UNL     1      -3.498   1.940   5.232  0.00  0.00    -0.484 OA
BRANCH  25  26
ATOM     26  C   UNL     1      -2.733   2.562   6.266  0.00  0.00    +0.266 C 
BRANCH  26  27
ATOM     27  C   UNL     1      -3.456   2.422   7.580  0.00  0.00    +0.008 A 
ATOM     28  C   UNL     1      -4.673   1.769   7.633  0.00  0.00    +0.008 A 
ATOM     29  C   UNL     1      -5.334   1.637   8.840  0.00  0.00    +0.000 A 
ATOM     30  C   UNL     1      -4.783   2.164   9.993  0.00  0.00    +0.001 A 
ATOM     31  C   UNL     1      -3.568   2.821   9.940  0.00  0.00    +0.020 A 
ATOM     32  C   UNL     1      -2.904   2.950   8.733  0.00  0.00    +0.047 A 
ATOM     33 CL   UNL     1      -1.378   3.776   8.666  0.00  0.00    -0.083 Cl
ENDBRANCH  26  27
ENDBRANCH  25  26
ENDBRANCH   6  25
TORSDOF 7
