REMARK  Name = ZINC35743792
REMARK  16 active torsions:
REMARK  status: ('A' for Active; 'I' for Inactive)
REMARK    1  A    between atoms: C_1  and  C_2
REMARK    2  A    between atoms: C_2  and  C_4
REMARK    3  A    between atoms: C_2  and  N_19
REMARK    4  A    between atoms: N_14  and  C_15
REMARK    5  A    between atoms: C_15  and  C_16
REMARK    6  A    between atoms: C_16  and  O_17
REMARK    7  A    between atoms: O_17  and  C_18
REMARK    8  A    between atoms: N_19  and  C_20
REMARK    9  A    between atoms: C_20  and  C_21
REMARK   10  A    between atoms: C_21  and  C_22
REMARK   11  A    between atoms: C_22  and  C_23
REMARK   12  A    between atoms: C_23  and  C_24
REMARK   13  A    between atoms: C_24  and  C_25
REMARK   14  A    between atoms: C_25  and  N_26
REMARK   15  A    between atoms: C_27  and  C_29
REMARK   16  A    between atoms: C_32  and  N_36
REMARK                            x       y       z     vdW  Elec       q    Type
REMARK                         _______ _______ _______ _____ _____    ______ ____
ROOT
ATOM      1  N   UNL     1       1.720  -0.656  -0.565  0.00  0.00    -0.288 N 
ATOM      2  C   UNL     1       2.765   0.195  -0.546  0.00  0.00    +0.249 C 
ATOM      3  O   UNL     1       3.291   0.536  -1.587  0.00  0.00    -0.270 OA
ENDROOT
BRANCH   2   4
ATOM      4  C   UNL     1       3.273   0.713   0.742  0.00  0.00    +0.055 A 
ATOM      5  C   UNL     1       2.417   0.821   1.840  0.00  0.00    +0.017 A 
ATOM      6  C   UNL     1       2.897   1.304   3.039  0.00  0.00    +0.033 A 
ATOM      7  C   UNL     1       4.223   1.683   3.156  0.00  0.00    +0.128 A 
ATOM      8  C   UNL     1       5.077   1.580   2.073  0.00  0.00    +0.053 A 
ATOM      9  C   UNL     1       4.611   1.091   0.868  0.00  0.00    +0.055 A 
ATOM     10 CL   UNL     1       5.686   0.955  -0.489  0.00  0.00    -0.083 Cl
BRANCH   7  11
ATOM     11  N   UNL     1       4.730   2.201   4.447  0.00  0.00    +0.056 N 
ATOM     12  O   UNL     1       3.986   2.293   5.395  0.00  0.00    -0.126 OA
ATOM     13  O   UNL     1       5.888   2.533   4.552  0.00  0.00    -0.126 OA
ENDBRANCH   7  11
ENDBRANCH   2   4
BRANCH   1  15
ATOM     14  C   UNL     1       0.317   1.027   0.521  0.00  0.00    +0.036 C 
ATOM     15  C   UNL     1       0.605  -0.468   0.366  0.00  0.00    +0.139 C 
BRANCH  15  16
ATOM     16  C   UNL     1       0.966  -1.052   1.707  0.00  0.00    +0.133 A 
ATOM     17  N   UNL     1       2.205  -1.373   1.925  0.00  0.00    -0.232 NA
ATOM     18  C   UNL     1       2.604  -1.904   3.108  0.00  0.00    +0.078 A 
ATOM     19  C   UNL     1       3.937  -2.248   3.344  0.00  0.00    +0.028 A 
ATOM     20  C   UNL     1       4.298  -2.784   4.560  0.00  0.00    +0.002 A 
ATOM     21  C   UNL     1       3.352  -2.987   5.557  0.00  0.00    +0.001 A 
ATOM     22  C   UNL     1       2.031  -2.655   5.348  0.00  0.00    +0.015 A 
ATOM     23  C   UNL     1       1.645  -2.111   4.124  0.00  0.00    +0.065 A 
ATOM     24  C   UNL     1       0.251  -1.738   3.844  0.00  0.00    +0.262 A 
ATOM     25  O   UNL     1      -0.624  -1.891   4.677  0.00  0.00    -0.267 OA
ATOM     26  N   UNL     1      -0.020  -1.212   2.627  0.00  0.00    -0.292 N 
BRANCH  26  27
ATOM     27  C   UNL     1      -1.392  -0.817   2.297  0.00  0.00    +0.154 C 
BRANCH  27  28
ATOM     28  C   UNL     1      -2.158  -2.029   1.764  0.00  0.00    +0.181 C 
BRANCH  28  29
ATOM     29  O   UNL     1      -2.285  -3.005   2.800  0.00  0.00    -0.381 OA
ATOM     30  C   UNL     1      -2.989  -4.184   2.405  0.00  0.00    +0.194 C 
ENDBRANCH  28  29
ENDBRANCH  27  28
ENDBRANCH  26  27
ENDBRANCH  15  16
ENDBRANCH   1  15
BRANCH   1  31
ATOM     31  C   UNL     1       1.700  -1.769  -1.518  0.00  0.00    +0.109 C 
BRANCH  31  32
ATOM     32  C   UNL     1       1.028  -1.318  -2.816  0.00  0.00    +0.019 C 
BRANCH  32  33
ATOM     33  C   UNL     1       1.006  -2.480  -3.810  0.00  0.00    +0.001 C 
BRANCH  33  34
ATOM     34  C   UNL     1       0.334  -2.028  -5.108  0.00  0.00    -0.002 C 
BRANCH  34  35
ATOM     35  C   UNL     1       0.312  -3.191  -6.103  0.00  0.00    -0.020 C 
BRANCH  35  36
ATOM     36  C   UNL     1      -0.360  -2.739  -7.401  0.00  0.00    -0.086 C 
BRANCH  36  37
ATOM     37  N   UNL     1      -0.381  -3.855  -8.356  0.00  0.00    +0.378 N 
ATOM     38  H   UNL     1       0.565  -4.148  -8.551  0.00  0.00    -0.090 HD
ATOM     39  H   UNL     1      -0.897  -4.627  -7.960  0.00  0.00    -0.090 HD
ATOM     40  H   UNL     1      -0.824  -3.558  -9.212  0.00  0.00    -0.090 HD
ENDBRANCH  36  37
ENDBRANCH  35  36
ENDBRANCH  34  35
ENDBRANCH  33  34
ENDBRANCH  32  33
ENDBRANCH  31  32
ENDBRANCH   1  31
TORSDOF 14
