REMARK  Name = ZINC02502525
REMARK  8 active torsions:
REMARK  status: ('A' for Active; 'I' for Inactive)
REMARK    1  A    between atoms: C_1  and  O_2
REMARK    2  A    between atoms: O_2  and  C_3
REMARK    3  A    between atoms: C_5  and  C_18
REMARK    4  A    between atoms: C_8  and  O_9
REMARK    5  A    between atoms: O_9  and  C_10
REMARK    6  A    between atoms: C_10  and  C_11
REMARK    7  A    between atoms: C_27  and  N_31
REMARK    8  A    between atoms: C_28  and  C_29
REMARK                            x       y       z     vdW  Elec       q    Type
REMARK                         _______ _______ _______ _____ _____    ______ ____
ROOT
ATOM      1  C   UNL     1       3.685   2.178  -0.020  0.00  0.00    +0.098 C 
ATOM      2  C   UNL     1       2.385   1.419  -0.013  0.00  0.00    +0.011 A 
ATOM      3  C   UNL     1       2.405   0.035  -0.021  0.00  0.00    +0.057 A 
ATOM      4  C   UNL     1       1.220  -0.680  -0.014  0.00  0.00    +0.167 A 
ATOM      5  C   UNL     1       0.002  -0.004   0.002  0.00  0.00    +0.170 A 
ATOM      6  C   UNL     1      -0.017   1.380   0.010  0.00  0.00    +0.096 A 
ATOM      7  C   UNL     1       1.175   2.094   0.002  0.00  0.00    +0.138 A 
ATOM      8  O   UNL     1       1.136   3.451   0.009  0.00  0.00    -0.441 OA
ATOM      9  C   UNL     1       2.212   4.154  -0.380  0.00  0.00    +0.199 C 
ATOM     10  C   UNL     1       3.450   3.608  -0.416  0.00  0.00    +0.098 C 
ATOM     11  O   UNL     1      -1.007  -0.923   0.007  0.00  0.00    -0.452 OA
ATOM     12  C   UNL     1      -0.396  -2.164   0.407  0.00  0.00    +0.466 C 
ATOM     13  O   UNL     1       0.973  -2.024  -0.019  0.00  0.00    -0.453 OA
ENDROOT
BRANCH   1  16
ATOM     14  C   UNL     1       6.106   1.531   2.807  0.00  0.00    +0.162 A 
ATOM     15  C   UNL     1       5.544   1.571   1.542  0.00  0.00    +0.054 A 
ATOM     16  C   UNL     1       4.295   2.135   1.357  0.00  0.00    -0.031 A 
ATOM     17  C   UNL     1       3.607   2.665   2.433  0.00  0.00    +0.008 A 
ATOM     18  C   UNL     1       4.160   2.623   3.700  0.00  0.00    +0.050 A 
ATOM     19  C   UNL     1       5.411   2.060   3.891  0.00  0.00    +0.162 A 
BRANCH  14  21
ATOM     20  C   UNL     1       7.989   0.454   1.833  0.00  0.00    +0.277 C 
ATOM     21  O   UNL     1       7.335   0.977   2.990  0.00  0.00    -0.491 OA
ENDBRANCH  14  21
BRANCH  19  22
ATOM     22  O   UNL     1       5.959   2.023   5.135  0.00  0.00    -0.484 OA
BRANCH  22  23
ATOM     23  C   UNL     1       5.189   2.584   6.200  0.00  0.00    +0.267 C 
BRANCH  23  24
ATOM     24  C   UNL     1       5.951   2.454   7.494  0.00  0.00    +0.025 A 
ATOM     25  C   UNL     1       7.196   1.855   7.505  0.00  0.00    +0.010 A 
ATOM     26  C   UNL     1       7.898   1.741   8.691  0.00  0.00    +0.001 A 
ATOM     27  C   UNL     1       7.350   2.216   9.868  0.00  0.00    +0.003 A 
ATOM     28  C   UNL     1       6.102   2.810   9.860  0.00  0.00    +0.039 A 
ATOM     29  C   UNL     1       5.401   2.930   8.672  0.00  0.00    +0.130 A 
ATOM     30  F   UNL     1       4.181   3.510   8.663  0.00  0.00    -0.205 F 
ENDBRANCH  23  24
ENDBRANCH  22  23
ENDBRANCH  19  22
ENDBRANCH   1  16
BRANCH   9  31
ATOM     31  N   UNL     1       2.051   5.466  -0.752  0.00  0.00    -0.328 N 
ATOM     32  H   UNL     1       2.818   5.987  -1.035  0.00  0.00    +0.145 HD
ATOM     33  H   UNL     1       1.170   5.871  -0.731  0.00  0.00    +0.145 HD
ENDBRANCH   9  31
BRANCH  10  34
ATOM     34  C   UNL     1       4.559   4.410  -0.840  0.00  0.00    +0.101 C 
ATOM     35  N   UNL     1       5.438   5.046  -1.177  0.00  0.00    -0.191 NA
ENDBRANCH  10  34
TORSDOF 7
