REMARK  Name = ZINC28059309
REMARK  9 active torsions:
REMARK  status: ('A' for Active; 'I' for Inactive)
REMARK    1  A    between atoms: C_1  and  C_2
REMARK    2  A    between atoms: C_10  and  C_13
REMARK    3  A    between atoms: C_16  and  S_19
REMARK    4  A    between atoms: S_19  and  C_20
REMARK    5  A    between atoms: C_21  and  C_29
REMARK    6  A    between atoms: C_31  and  O_37
REMARK    7  A    between atoms: C_34  and  O_35
REMARK    8  A    between atoms: O_35  and  C_36
REMARK    9  A    between atoms: O_37  and  C_38
REMARK                            x       y       z     vdW  Elec       q    Type
REMARK                         _______ _______ _______ _____ _____    ______ ____
ROOT
ATOM      1  C   UNL     1       2.230   4.708  -6.878  0.00  0.00    +0.044 C 
ATOM      2  C   UNL     1       2.686   3.332  -6.468  0.00  0.00    -0.050 A 
ATOM      3  C   UNL     1       3.819   3.187  -5.686  0.00  0.00    +0.007 A 
ATOM      4  C   UNL     1       4.251   1.931  -5.301  0.00  0.00    +0.046 A 
ATOM      5  C   UNL     1       3.545   0.811  -5.699  0.00  0.00    +0.131 A 
ATOM      6  C   UNL     1       2.400   0.956  -6.493  0.00  0.00    +0.038 A 
ATOM      7  C   UNL     1       1.973   2.221  -6.875  0.00  0.00    +0.016 A 
ATOM      8  C   UNL     1       1.670  -0.267  -6.906  0.00  0.00    +0.050 C 
ATOM      9  C   UNL     1       1.915  -1.404  -6.253  0.00  0.00    +0.026 C 
ATOM     10  C   UNL     1       2.901  -1.397  -5.106  0.00  0.00    +0.234 C 
ATOM     11  O   UNL     1       3.933  -0.439  -5.338  0.00  0.00    -0.479 OA
ATOM     12  C   UNL     1       1.239  -2.704  -6.612  0.00  0.00    +0.178 C 
ATOM     13  N   UNL     1       0.562  -2.579  -7.895  0.00  0.00    -0.201 N 
ATOM     14  C   UNL     1       0.337  -1.395  -8.521  0.00  0.00    +0.240 A 
ATOM     15  N   UNL     1      -0.294  -1.654  -9.630  0.00  0.00    -0.092 NA
ATOM     16  N   UNL     1      -0.479  -2.924  -9.750  0.00  0.00    -0.021 NA
ATOM     17  N   UNL     1       0.017  -3.551  -8.733  0.00  0.00    -0.042 NA
ATOM     18  N   UNL     1       0.765  -0.197  -7.972  0.00  0.00    -0.282 N 
ATOM     19  H   UNL     1       0.422   0.782  -8.339  0.00  0.00    +0.155 HD
ENDROOT
BRANCH  10  20
ATOM     20  C   UNL     1       2.177  -1.049  -3.831  0.00  0.00    -0.003 A 
ATOM     21  C   UNL     1       1.923  -2.033  -2.892  0.00  0.00    +0.008 A 
ATOM     22  C   UNL     1       1.260  -1.718  -1.722  0.00  0.00    +0.015 A 
ATOM     23  C   UNL     1       0.848  -0.411  -1.489  0.00  0.00    +0.008 A 
ATOM     24  C   UNL     1       1.101   0.573  -2.437  0.00  0.00    +0.015 A 
ATOM     25  C   UNL     1       1.770   0.252  -3.602  0.00  0.00    +0.008 A 
BRANCH  23  26
ATOM     26  S   UNL     1       0.002  -0.004   0.002  0.00  0.00    -0.129 S 
ATOM     27  C   UNL     1      -0.321   1.774  -0.148  0.00  0.00    +0.090 C 
ENDBRANCH  23  26
ENDBRANCH  10  20
BRANCH  12  28
ATOM     28  C   UNL     1       0.231  -3.054  -5.547  0.00  0.00    +0.026 A 
ATOM     29  C   UNL     1      -0.813  -2.191  -5.274  0.00  0.00    +0.055 A 
ATOM     30  C   UNL     1      -1.743  -2.515  -4.298  0.00  0.00    +0.121 A 
ATOM     31  C   UNL     1      -1.619  -3.700  -3.588  0.00  0.00    +0.049 A 
ATOM     32  C   UNL     1      -0.573  -4.561  -3.858  0.00  0.00    +0.049 A 
ATOM     33  C   UNL     1       0.355  -4.239  -4.838  0.00  0.00    +0.126 A 
BRANCH  33  34
ATOM     34  O   UNL     1       1.385  -5.085  -5.103  0.00  0.00    -0.495 OA
ATOM     35  C   UNL     1       1.451  -6.288  -4.333  0.00  0.00    +0.277 C 
ENDBRANCH  33  34
BRANCH  30  36
ATOM     36  O   UNL     1      -2.773  -1.668  -4.033  0.00  0.00    -0.495 OA
ATOM     37  C   UNL     1      -3.691  -2.063  -3.011  0.00  0.00    +0.277 C 
ENDBRANCH  30  36
ENDBRANCH  12  28
TORSDOF 5
