REMARK  Name = ZINC08915344
REMARK  5 active torsions:
REMARK  status: ('A' for Active; 'I' for Inactive)
REMARK    1  A    between atoms: C_4  and  C_7
REMARK    2  A    between atoms: C_7  and  C_9
REMARK    3  A    between atoms: C_11  and  C_23
REMARK    4  A    between atoms: C_17  and  C_18
REMARK    5  A    between atoms: C_17  and  O_22
REMARK                            x       y       z     vdW  Elec       q    Type
REMARK                         _______ _______ _______ _____ _____    ______ ____
ROOT
ATOM      1  C   UNL     1       3.667  -2.622   0.364  0.00  0.00    +0.144 C 
ATOM      2  C   UNL     1       5.071  -2.848   0.935  0.00  0.00    +0.120 C 
ATOM      3  N   UNL     1       6.031  -2.035   0.187  0.00  0.00    -0.292 N 
ATOM      4  C   UNL     1       5.823  -1.717  -1.099  0.00  0.00    +0.302 C 
ATOM      5  O   UNL     1       6.657  -1.048  -1.678  0.00  0.00    -0.253 OA
ATOM      6  N   UNL     1       4.731  -2.109  -1.773  0.00  0.00    -0.264 N 
ATOM      7  C   UNL     1       3.692  -2.928  -1.138  0.00  0.00    +0.243 C 
ATOM      8  H   UNL     1       6.833  -1.719   0.631  0.00  0.00    +0.151 HD
ATOM      9  H   UNL     1       4.625  -1.845  -2.701  0.00  0.00    +0.153 HD
ENDROOT
BRANCH   2  10
ATOM     10  C   UNL     1       5.093  -2.448   2.388  0.00  0.00    -0.025 A 
ATOM     11  C   UNL     1       5.297  -1.126   2.737  0.00  0.00    +0.007 A 
ATOM     12  C   UNL     1       5.318  -0.758   4.069  0.00  0.00    +0.022 A 
ATOM     13  C   UNL     1       5.136  -1.712   5.054  0.00  0.00    +0.059 A 
ATOM     14  C   UNL     1       4.932  -3.036   4.704  0.00  0.00    +0.060 A 
ATOM     15  C   UNL     1       4.906  -3.402   3.370  0.00  0.00    +0.027 A 
ATOM     16 CL   UNL     1       4.704  -4.235   5.939  0.00  0.00    -0.082 Cl
ATOM     17 CL   UNL     1       5.164  -1.250   6.727  0.00  0.00    -0.082 Cl
ENDBRANCH   2  10
BRANCH   7  18
ATOM     18  C   UNL     1       2.329  -2.600  -1.749  0.00  0.00    +0.436 C 
ATOM     19  F   UNL     1       2.103  -1.222  -1.674  0.00  0.00    -0.166 F 
ATOM     20  F   UNL     1       2.309  -3.003  -3.089  0.00  0.00    -0.166 F 
ATOM     21  F   UNL     1       1.327  -3.276  -1.044  0.00  0.00    -0.166 F 
ENDBRANCH   7  18
BRANCH   1  22
ATOM     22  C   UNL     1       3.257  -1.188   0.581  0.00  0.00    +0.173 C 
ATOM     23  O   UNL     1       3.865  -0.294   0.033  0.00  0.00    -0.292 OA
BRANCH  22  27
ATOM     24  C   UNL     1      -0.026  -0.281   3.109  0.00  0.00    +0.000 A 
ATOM     25  C   UNL     1       0.737   0.744   2.577  0.00  0.00    +0.001 A 
ATOM     26  C   UNL     1       1.805   0.457   1.754  0.00  0.00    +0.011 A 
ATOM     27  C   UNL     1       2.118  -0.874   1.459  0.00  0.00    +0.018 A 
ATOM     28  C   UNL     1       1.343  -1.904   2.001  0.00  0.00    +0.011 A 
ATOM     29  C   UNL     1       0.277  -1.601   2.821  0.00  0.00    +0.001 A 
ENDBRANCH  22  27
ENDBRANCH   1  22
BRANCH   7  30
ATOM     30  O   UNL     1       3.987  -4.312  -1.338  0.00  0.00    -0.364 OA
ATOM     31  H   UNL     1       4.019  -4.576  -2.268  0.00  0.00    +0.212 HD
ENDBRANCH   7  30
TORSDOF 5
