REMARK  Name = ZINC65298121
REMARK  7 active torsions:
REMARK  status: ('A' for Active; 'I' for Inactive)
REMARK    1  A    between atoms: C_1  and  C_2
REMARK    2  A    between atoms: C_2  and  O_3
REMARK    3  A    between atoms: O_3  and  C_4
REMARK    4  A    between atoms: C_7  and  C_10
REMARK    5  A    between atoms: C_18  and  C_20
REMARK    6  A    between atoms: C_22  and  C_25
REMARK    7  A    between atoms: C_30  and  O_31
REMARK                            x       y       z     vdW  Elec       q    Type
REMARK                         _______ _______ _______ _____ _____    ______ ____
ROOT
ATOM      1  C   UNL     1       1.112  -6.040  -1.863  0.00  0.00    +0.040 C 
ATOM      2  N   UNL     1       0.603  -6.800  -0.966  0.00  0.00    -0.300 NA
ATOM      3  C   UNL     1       0.649  -8.258  -1.007  0.00  0.00    +0.032 C 
ATOM      4  C   UNL     1      -0.697  -8.824  -0.542  0.00  0.00    +0.029 C 
ATOM      5  C   UNL     1      -0.994  -8.324   0.875  0.00  0.00    +0.108 C 
ATOM      6  N   UNL     1       0.137  -8.672   1.746  0.00  0.00    -0.302 N 
ATOM      7  C   UNL     1       1.489  -8.259   1.346  0.00  0.00    +0.108 C 
ATOM      8  C   UNL     1       1.757  -8.761  -0.076  0.00  0.00    +0.029 C 
ATOM      9  C   UNL     1      -0.062  -9.356   2.890  0.00  0.00    +0.212 C 
ATOM     10  O   UNL     1      -1.190  -9.613   3.255  0.00  0.00    -0.276 OA
ATOM     11  C   UNL     1       1.117  -9.802   3.717  0.00  0.00    +0.109 C 
ATOM     12  N   UNL     1       0.921  -8.725  -2.374  0.00  0.00    +0.401 N 
ATOM     13  C   UNL     1       2.134  -8.057  -2.872  0.00  0.00    -0.028 C 
ATOM     14  C   UNL     1       1.809  -6.574  -3.084  0.00  0.00    +0.044 C 
ATOM     15  H   UNL     1       1.062  -9.724  -2.367  0.00  0.00    -0.081 HD
ATOM     16  H   UNL     1       0.140  -8.496  -2.970  0.00  0.00    -0.081 HD
ENDROOT
BRANCH  13  17
ATOM     17  C   UNL     1       2.553  -8.677  -4.181  0.00  0.00    -0.018 A 
ATOM     18  C   UNL     1       1.617  -9.304  -4.980  0.00  0.00    +0.020 A 
ATOM     19  C   UNL     1       2.002  -9.873  -6.181  0.00  0.00    +0.018 A 
ATOM     20  C   UNL     1       3.324  -9.815  -6.584  0.00  0.00    +0.019 A 
ATOM     21  C   UNL     1       4.263  -9.188  -5.788  0.00  0.00    +0.047 A 
ATOM     22  C   UNL     1       3.878  -8.613  -4.586  0.00  0.00    +0.119 A 
ATOM     23 BR   UNL     1       0.718 -10.731  -7.273  0.00  0.00    -0.050 Br
BRANCH  22  24
ATOM     24  O   UNL     1       4.800  -7.992  -3.803  0.00  0.00    -0.507 OA
ATOM     25  H   UNL     1       5.230  -8.575  -3.163  0.00  0.00    +0.292 HD
ENDBRANCH  22  24
ENDBRANCH  13  17
BRANCH   1  29
ATOM     26  C   UNL     1       0.800  -1.835  -1.377  0.00  0.00    +0.121 A 
ATOM     27  C   UNL     1       0.263  -2.684  -0.418  0.00  0.00    +0.046 A 
ATOM     28  C   UNL     1       0.362  -4.050  -0.572  0.00  0.00    +0.013 A 
ATOM     29  C   UNL     1       1.003  -4.580  -1.694  0.00  0.00    -0.004 A 
ATOM     30  C   UNL     1       1.542  -3.721  -2.657  0.00  0.00    +0.013 A 
ATOM     31  C   UNL     1       1.434  -2.357  -2.498  0.00  0.00    +0.046 A 
BRANCH  26  32
ATOM     32  O   UNL     1       0.701  -0.489  -1.222  0.00  0.00    -0.492 OA
BRANCH  32  34
ATOM     33  C   UNL     1       0.024   1.510  -0.046  0.00  0.00    +0.048 C 
ATOM     34  C   UNL     1       0.037  -0.020  -0.047  0.00  0.00    +0.225 C 
ENDBRANCH  32  34
ENDBRANCH  26  32
ENDBRANCH   1  29
TORSDOF 5
