REMARK  Name = ZINC22087703
REMARK  8 active torsions:
REMARK  status: ('A' for Active; 'I' for Inactive)
REMARK    1  A    between atoms: C_1  and  O_2
REMARK    2  A    between atoms: O_2  and  C_3
REMARK    3  A    between atoms: C_3  and  C_5
REMARK    4  A    between atoms: C_5  and  C_7
REMARK    5  A    between atoms: C_5  and  N_14
REMARK    6  A    between atoms: N_17  and  C_20
REMARK    7  A    between atoms: N_23  and  C_28
REMARK    8  A    between atoms: C_28  and  C_29
REMARK                            x       y       z     vdW  Elec       q    Type
REMARK                         _______ _______ _______ _____ _____    ______ ____
ROOT
ATOM      1  N   UNL     1       5.220   1.617  -0.001  0.00  0.00    +0.393 N 
ATOM      2  C   UNL     1       4.457   1.342  -1.226  0.00  0.00    -0.058 C 
ATOM      3  C   UNL     1       3.156   2.150  -1.205  0.00  0.00    +0.086 C 
ATOM      4  N   UNL     1       2.378   1.790  -0.011  0.00  0.00    -0.331 N 
ATOM      5  C   UNL     1       3.142   2.065   1.214  0.00  0.00    +0.086 C 
ATOM      6  C   UNL     1       4.442   1.258   1.193  0.00  0.00    -0.058 C 
ATOM      7  H   UNL     1       5.423   2.698   0.038  0.00  0.00    -0.080 HD
ENDROOT
BRANCH   4   8
ATOM      8  C   UNL     1       1.161   2.450   0.004  0.00  0.00    +0.073 A 
ATOM      9  C   UNL     1       1.115   3.860   0.012  0.00  0.00    +0.157 A 
ATOM     10  N   UNL     1      -0.030   4.483   0.026  0.00  0.00    -0.174 NA
ATOM     11  N   UNL     1      -1.236   3.775   0.034  0.00  0.00    -0.224 N 
ATOM     12  C   UNL     1      -1.240   2.427   0.021  0.00  0.00    +0.288 A 
ATOM     13  O   UNL     1      -2.297   1.815   0.023  0.00  0.00    -0.265 OA
ATOM     14  C   UNL     1      -0.021   1.732   0.012  0.00  0.00    +0.129 A 
ATOM     15 CL   UNL     1       0.002  -0.004   0.002  0.00  0.00    -0.076 Cl
BRANCH  11  16
ATOM     16  C   UNL     1      -2.507   4.504   0.049  0.00  0.00    +0.182 C 
BRANCH  16  17
ATOM     17  C   UNL     1      -2.929   4.747   1.476  0.00  0.00    -0.026 A 
ATOM     18  C   UNL     1      -3.724   3.822   2.128  0.00  0.00    +0.005 A 
ATOM     19  C   UNL     1      -4.107   4.043   3.438  0.00  0.00    +0.000 A 
ATOM     20  C   UNL     1      -3.705   5.192   4.091  0.00  0.00    +0.000 A 
ATOM     21  C   UNL     1      -2.915   6.119   3.437  0.00  0.00    +0.000 A 
ATOM     22  C   UNL     1      -2.527   5.896   2.129  0.00  0.00    +0.005 A 
ENDBRANCH  16  17
ENDBRANCH  11  16
ENDBRANCH   4   8
BRANCH   1  23
ATOM     23  C   UNL     1       6.512   0.918  -0.017  0.00  0.00    +0.075 C 
BRANCH  23  24
ATOM     24  C   UNL     1       7.265   1.223   1.252  0.00  0.00    -0.032 A 
ATOM     25  C   UNL     1       6.936   2.339   1.999  0.00  0.00    +0.004 A 
ATOM     26  C   UNL     1       7.624   2.617   3.166  0.00  0.00    +0.000 A 
ATOM     27  C   UNL     1       8.647   1.784   3.581  0.00  0.00    +0.001 A 
ATOM     28  C   UNL     1       8.979   0.671   2.832  0.00  0.00    +0.020 A 
ATOM     29  C   UNL     1       8.288   0.390   1.667  0.00  0.00    +0.043 A 
ATOM     30 CL   UNL     1       8.706  -1.008   0.725  0.00  0.00    -0.083 Cl
ENDBRANCH  23  24
BRANCH  23  31
ATOM     31  C   UNL     1       7.318   1.381  -1.203  0.00  0.00    +0.297 C 
ATOM     32  O   UNL     1       6.864   2.208  -1.957  0.00  0.00    -0.252 OA
BRANCH  31  34
ATOM     33  C   UNL     1       9.261   1.365  -2.583  0.00  0.00    +0.280 C 
ATOM     34  O   UNL     1       8.542   0.874  -1.422  0.00  0.00    -0.469 OA
ENDBRANCH  31  34
ENDBRANCH  23  31
ENDBRANCH   1  23
TORSDOF 7
