REMARK  Name = ZINC36629333
REMARK  11 active torsions:
REMARK  status: ('A' for Active; 'I' for Inactive)
REMARK    1  A    between atoms: C_1  and  C_2
REMARK    2  A    between atoms: C_2  and  N_3
REMARK    3  A    between atoms: C_9  and  N_16
REMARK    4  A    between atoms: C_10  and  C_11
REMARK    5  A    between atoms: C_11  and  O_13
REMARK    6  A    between atoms: O_13  and  C_14
REMARK    7  A    between atoms: C_14  and  C_15
REMARK    8  A    between atoms: C_17  and  C_19
REMARK    9  A    between atoms: C_28  and  O_29
REMARK   10  A    between atoms: O_29  and  C_30
REMARK   11  A    between atoms: C_30  and  C_31
REMARK                            x       y       z     vdW  Elec       q    Type
REMARK                         _______ _______ _______ _____ _____    ______ ____
ROOT
ATOM      1  N   UNL     1       0.690  -0.478  -1.207  0.00  0.00    +0.383 N 
ATOM      2  C   UNL     1       0.601  -1.942  -1.277  0.00  0.00    -0.074 C 
ATOM      3  C   UNL     1       1.029  -2.431  -2.665  0.00  0.00    +0.018 C 
ATOM      4  C   UNL     1       2.386  -1.818  -2.979  0.00  0.00    -0.025 A 
ATOM      5  C   UNL     1       2.832  -0.755  -2.272  0.00  0.00    -0.021 A 
ATOM      6  S   UNL     1       4.416  -0.390  -2.963  0.00  0.00    -0.079 S 
ATOM      7  C   UNL     1       4.498  -1.585  -4.141  0.00  0.00    +0.086 A 
ATOM      8  C   UNL     1       3.300  -2.275  -4.008  0.00  0.00    +0.091 A 
ATOM      9  C   UNL     1       2.106  -0.068  -1.158  0.00  0.00    -0.035 C 
ATOM     10  H   UNL     1       0.251  -0.076  -2.022  0.00  0.00    -0.081 HD
ENDROOT
BRANCH   7  11
ATOM     11  N   UNL     1       5.524  -1.827  -5.039  0.00  0.00    -0.275 N 
ATOM     12  C   UNL     1       6.626  -1.051  -5.027  0.00  0.00    +0.253 C 
ATOM     13  O   UNL     1       6.719  -0.138  -4.229  0.00  0.00    -0.270 OA
ATOM     14  H   UNL     1       5.449  -2.554  -5.676  0.00  0.00    +0.156 HD
BRANCH  12  15
ATOM     15  C   UNL     1       7.715  -1.307  -5.981  0.00  0.00    +0.086 A 
ATOM     16  C   UNL     1       7.732  -0.654  -7.289  0.00  0.00    -0.002 A 
ATOM     17  C   UNL     1       6.720   0.231  -7.676  0.00  0.00    +0.009 A 
ATOM     18  C   UNL     1       6.773   0.820  -8.905  0.00  0.00    +0.001 A 
ATOM     19  C   UNL     1       7.821   0.551  -9.781  0.00  0.00    +0.001 A 
ATOM     20  C   UNL     1       8.822  -0.306  -9.436  0.00  0.00    +0.008 A 
ATOM     21  C   UNL     1       8.799  -0.929  -8.177  0.00  0.00    -0.017 A 
ATOM     22  C   UNL     1       9.817  -1.819  -7.786  0.00  0.00    +0.012 A 
ATOM     23  C   UNL     1       9.787  -2.417  -6.567  0.00  0.00    +0.047 A 
ATOM     24  C   UNL     1       8.758  -2.175  -5.654  0.00  0.00    +0.133 A 
BRANCH  24  25
ATOM     25  O   UNL     1       8.771  -2.789  -4.446  0.00  0.00    -0.491 OA
BRANCH  25  26
ATOM     26  C   UNL     1       9.868  -3.665  -4.175  0.00  0.00    +0.226 C 
ATOM     27  C   UNL     1       9.710  -4.261  -2.775  0.00  0.00    +0.048 C 
ENDBRANCH  25  26
ENDBRANCH  24  25
ENDBRANCH  12  15
ENDBRANCH   7  11
BRANCH   1  29
ATOM     28  C   UNL     1      -0.019   1.526   0.010  0.00  0.00    -0.017 C 
ATOM     29  C   UNL     1       0.002  -0.004   0.002  0.00  0.00    -0.082 C 
ENDBRANCH   1  29
BRANCH   8  30
ATOM     30  C   UNL     1       2.975  -3.415  -4.867  0.00  0.00    +0.342 C 
ATOM     31  O   UNL     1       2.386  -3.236  -5.917  0.00  0.00    -0.245 OA
BRANCH  30  32
ATOM     32  O   UNL     1       3.327  -4.663  -4.495  0.00  0.00    -0.461 OA
BRANCH  32  33
ATOM     33  C   UNL     1       2.978  -5.727  -5.382  0.00  0.00    +0.229 C 
ATOM     34  C   UNL     1       3.456  -7.057  -4.796  0.00  0.00    +0.048 C 
ENDBRANCH  32  33
ENDBRANCH  30  32
ENDBRANCH   8  30
TORSDOF 8
