REMARK  Name = ZINC60090410
REMARK  8 active torsions:
REMARK  status: ('A' for Active; 'I' for Inactive)
REMARK    1  A    between atoms: C_1  and  C_2
REMARK    2  A    between atoms: C_2  and  C_3
REMARK    3  A    between atoms: C_3  and  N_4
REMARK    4  A    between atoms: N_4  and  C_5
REMARK    5  A    between atoms: N_4  and  C_22
REMARK    6  A    between atoms: C_5  and  C_6
REMARK    7  A    between atoms: C_6  and  C_7
REMARK    8  A    between atoms: N_9  and  N_10
REMARK                            x       y       z     vdW  Elec       q    Type
REMARK                         _______ _______ _______ _____ _____    ______ ____
ROOT
ATOM      1  C   UNL     1       0.416  -1.878   1.501  0.00  0.00    +0.079 C 
ENDROOT
BRANCH   1   2
ATOM      2  C   UNL     1       0.966  -2.433   2.790  0.00  0.00    +0.228 C 
ATOM      3  O   UNL     1       0.298  -3.196   3.456  0.00  0.00    -0.274 OA
ATOM      4  N   UNL     1       2.199  -2.080   3.204  0.00  0.00    -0.224 N 
ATOM      5  H   UNL     1       2.733  -1.470   2.671  0.00  0.00    +0.174 HD
BRANCH   4   6
ATOM      6  N   UNL     1       2.711  -2.595   4.402  0.00  0.00    -0.137 N 
ATOM      7  C   UNL     1       2.808  -1.892   5.549  0.00  0.00    +0.263 C 
ATOM      8  O   UNL     1       2.482  -0.739   5.733  0.00  0.00    -0.271 OA
ATOM      9  C   UNL     1       3.408  -2.845   6.557  0.00  0.00    +0.114 C 
ATOM     10  C   UNL     1       4.745  -2.314   7.061  0.00  0.00    +0.035 C 
ATOM     11  C   UNL     1       5.349  -3.308   8.057  0.00  0.00    +0.003 C 
ATOM     12  C   UNL     1       4.385  -3.503   9.229  0.00  0.00    +0.000 C 
ATOM     13  C   UNL     1       3.057  -4.058   8.711  0.00  0.00    +0.003 C 
ATOM     14  C   UNL     1       2.443  -3.067   7.718  0.00  0.00    +0.035 C 
ATOM     15  N   UNL     1       3.599  -4.089   5.802  0.00  0.00    -0.284 N 
ATOM     16  C   UNL     1       3.158  -3.848   4.552  0.00  0.00    +0.326 C 
ATOM     17  O   UNL     1       3.168  -4.673   3.661  0.00  0.00    -0.251 OA
ATOM     18  H   UNL     1       3.968  -4.921   6.137  0.00  0.00    +0.151 HD
ENDBRANCH   4   6
ENDBRANCH   1   2
BRANCH   1  19
ATOM     19  C   UNL     1      -0.991  -2.433   1.267  0.00  0.00    -0.069 C 
BRANCH  19  20
ATOM     20  N   UNL     1      -1.475  -1.997  -0.050  0.00  0.00    +0.382 N 
ATOM     21  H   UNL     1      -2.432  -2.293  -0.171  0.00  0.00    -0.081 HD
BRANCH  20  22
ATOM     22  C   UNL     1      -1.401  -0.533  -0.139  0.00  0.00    -0.064 C 
ATOM     23  C   UNL     1      -2.333   0.096   0.902  0.00  0.00    -0.010 C 
ATOM     24  C   UNL     1      -2.059   1.598   0.951  0.00  0.00    +0.034 C 
ATOM     25  C   UNL     1      -2.102   2.188  -0.434  0.00  0.00    -0.044 A 
ATOM     26  C   UNL     1      -2.253   3.565  -0.546  0.00  0.00    +0.004 A 
ATOM     27  C   UNL     1      -2.294   4.167  -1.786  0.00  0.00    +0.000 A 
ATOM     28  C   UNL     1      -2.183   3.396  -2.928  0.00  0.00    +0.000 A 
ATOM     29  C   UNL     1      -2.036   2.028  -2.819  0.00  0.00    +0.004 A 
ATOM     30  C   UNL     1      -1.998   1.419  -1.571  0.00  0.00    -0.046 A 
ATOM     31  C   UNL     1      -1.850  -0.079  -1.527  0.00  0.00    +0.020 C 
ENDBRANCH  20  22
BRANCH  20  32
ATOM     32  C   UNL     1      -0.641  -2.595  -1.101  0.00  0.00    -0.079 C 
BRANCH  32  34
ATOM     33  C   UNL     1      -0.054  -4.727  -2.264  0.00  0.00    +0.002 C 
ATOM     34  C   UNL     1      -0.808  -4.116  -1.081  0.00  0.00    -0.022 C 
ENDBRANCH  32  34
ENDBRANCH  20  32
ENDBRANCH  19  20
ENDBRANCH   1  19
TORSDOF 7
