REMARK  Name = ZINC13643359
REMARK  8 active torsions:
REMARK  status: ('A' for Active; 'I' for Inactive)
REMARK    1  A    between atoms: C_6  and  C_7
REMARK    2  A    between atoms: C_7  and  C_8
REMARK    3  A    between atoms: C_8  and  O_9
REMARK    4  A    between atoms: O_9  and  C_10
REMARK    5  A    between atoms: C_12  and  C_17
REMARK    6  A    between atoms: N_19  and  C_20
REMARK    7  A    between atoms: C_20  and  C_21
REMARK    8  A    between atoms: N_24  and  C_27
REMARK                            x       y       z     vdW  Elec       q    Type
REMARK                         _______ _______ _______ _____ _____    ______ ____
ROOT
ATOM      1  C   UNL     1       3.693  -0.692  -0.037  0.00  0.00    +0.244 C 
ATOM      2  O   UNL     1       4.739  -0.071  -0.044  0.00  0.00    -0.270 OA
ATOM      3  N   UNL     1       3.710  -2.040  -0.045  0.00  0.00    -0.311 N 
ATOM      4  H   UNL     1       2.876  -2.535  -0.039  0.00  0.00    +0.149 HD
ENDROOT
BRANCH   1   7
ATOM      5  C   UNL     1       1.176   2.097   0.002  0.00  0.00    +0.156 A 
ATOM      6  C   UNL     1       2.385   1.426  -0.013  0.00  0.00    +0.061 A 
ATOM      7  C   UNL     1       2.405   0.030  -0.021  0.00  0.00    +0.040 A 
ATOM      8  C   UNL     1       1.203  -0.681  -0.013  0.00  0.00    +0.016 A 
ATOM      9  C   UNL     1       0.002  -0.004   0.002  0.00  0.00    +0.043 A 
ATOM     10  C   UNL     1      -0.017   1.381   0.010  0.00  0.00    +0.165 A 
ATOM     11  F   UNL     1      -1.197   2.039   0.019  0.00  0.00    -0.202 F 
BRANCH   5  12
ATOM     12  O   UNL     1       1.152   3.456   0.010  0.00  0.00    -0.489 OA
BRANCH  12  13
ATOM     13  C   UNL     1       2.414   4.127   0.001  0.00  0.00    +0.234 C 
BRANCH  13  14
ATOM     14  C   UNL     1       2.188   5.640   0.011  0.00  0.00    +0.076 C 
BRANCH  14  20
ATOM     15  C   UNL     1       4.138   6.670   1.196  0.00  0.00    +0.005 A 
ATOM     16  C   UNL     1       5.360   7.314   1.188  0.00  0.00    +0.015 A 
ATOM     17  C   UNL     1       5.960   7.645  -0.014  0.00  0.00    +0.018 A 
ATOM     18  C   UNL     1       5.338   7.327  -1.208  0.00  0.00    +0.015 A 
ATOM     19  C   UNL     1       4.117   6.678  -1.199  0.00  0.00    +0.005 A 
ATOM     20  C   UNL     1       3.519   6.347   0.003  0.00  0.00    -0.044 A 
ATOM     21 BR   UNL     1       7.630   8.533  -0.025  0.00  0.00    -0.050 Br
ENDBRANCH  14  20
ENDBRANCH  13  14
ENDBRANCH  12  13
ENDBRANCH   5  12
ENDBRANCH   1   7
BRANCH   3  22
ATOM     22  C   UNL     1       4.988  -2.757  -0.061  0.00  0.00    +0.108 C 
BRANCH  22  23
ATOM     23  C   UNL     1       4.727  -4.264  -0.066  0.00  0.00    +0.009 C 
ATOM     24  C   UNL     1       4.059  -4.673   1.249  0.00  0.00    +0.024 C 
ATOM     25  C   UNL     1       3.856  -6.189   1.263  0.00  0.00    +0.105 C 
ATOM     26  N   UNL     1       5.155  -6.860   1.125  0.00  0.00    -0.330 N 
ATOM     27  C   UNL     1       5.794  -6.520  -0.153  0.00  0.00    +0.105 C 
ATOM     28  C   UNL     1       6.055  -5.013  -0.209  0.00  0.00    +0.024 C 
BRANCH  26  29
ATOM     29  C   UNL     1       5.022  -8.238   1.265  0.00  0.00    +0.032 A 
ATOM     30  C   UNL     1       5.464  -9.105   0.265  0.00  0.00    +0.040 A 
ATOM     31  C   UNL     1       5.320 -10.464   0.445  0.00  0.00    +0.084 A 
ATOM     32  C   UNL     1       4.327 -10.159   2.506  0.00  0.00    +0.084 A 
ATOM     33  C   UNL     1       4.440  -8.789   2.406  0.00  0.00    +0.040 A 
ATOM     34  N   UNL     1       4.755 -11.026   1.548  0.00  0.00    -0.367 N 
ATOM     35  H   UNL     1       4.657 -12.043   1.652  0.00  0.00    +0.165 HD
ENDBRANCH  26  29
ENDBRANCH  22  23
ENDBRANCH   3  22
TORSDOF 8
