REMARK  Name = ZINC17297461
REMARK  9 active torsions:
REMARK  status: ('A' for Active; 'I' for Inactive)
REMARK    1  A    between atoms: C_1  and  C_2
REMARK    2  A    between atoms: C_2  and  O_3
REMARK    3  A    between atoms: O_3  and  C_4
REMARK    4  A    between atoms: C_4  and  C_6
REMARK    5  A    between atoms: C_10  and  N_11
REMARK    6  A    between atoms: C_13  and  C_25
REMARK    7  A    between atoms: C_16  and  C_23
REMARK    8  A    between atoms: C_19  and  C_22
REMARK    9  A    between atoms: C_23  and  O_24
REMARK                            x       y       z     vdW  Elec       q    Type
REMARK                         _______ _______ _______ _____ _____    ______ ____
ROOT
ATOM      1  N   UNL     1      -0.596  -2.442  -3.908  0.00  0.00    -0.319 N 
ATOM      2  C   UNL     1      -1.083  -2.771  -5.090  0.00  0.00    +0.212 A 
ATOM      3  C   UNL     1      -2.532  -2.707  -5.357  0.00  0.00    +0.097 A 
ATOM      4  C   UNL     1      -2.926  -2.505  -6.673  0.00  0.00    +0.030 A 
ATOM      5  C   UNL     1      -1.866  -2.377  -7.675  0.00  0.00    +0.027 A 
ATOM      6  C   UNL     1      -2.129  -1.917  -8.971  0.00  0.00    +0.007 A 
ATOM      7  C   UNL     1      -1.078  -1.820  -9.860  0.00  0.00    +0.117 A 
ATOM      8  N   UNL     1       0.150  -2.149  -9.505  0.00  0.00    -0.256 NA
ATOM      9  C   UNL     1       0.448  -2.587  -8.299  0.00  0.00    +0.081 A 
ATOM     10  C   UNL     1      -0.543  -2.721  -7.337  0.00  0.00    +0.159 A 
ATOM     11  O   UNL     1      -0.263  -3.170  -6.095  0.00  0.00    -0.437 OA
ATOM     12  C   UNL     1       1.873  -2.945  -7.962  0.00  0.00    +0.069 C 
ATOM     13  H   UNL     1      -1.181  -2.073  -3.228  0.00  0.00    +0.169 HD
ENDROOT
BRANCH   1  18
ATOM     14  C   UNL     1       1.420  -2.340  -2.468  0.00  0.00    +0.093 A 
ATOM     15  C   UNL     1       2.842  -2.637  -2.453  0.00  0.00    -0.021 A 
ATOM     16  C   UNL     1       3.359  -3.157  -3.589  0.00  0.00    -0.004 A 
ATOM     17  S   UNL     1       1.990  -3.270  -4.708  0.00  0.00    -0.075 S 
ATOM     18  C   UNL     1       0.713  -2.620  -3.646  0.00  0.00    +0.095 A 
ATOM     19  C   UNL     1       4.783  -3.549  -3.840  0.00  0.00    +0.043 C 
ATOM     20  C   UNL     1       5.658  -2.930  -2.741  0.00  0.00    +0.005 C 
ATOM     21  C   UNL     1       5.010  -3.210  -1.382  0.00  0.00    +0.005 C 
ATOM     22  C   UNL     1       3.730  -2.387  -1.237  0.00  0.00    +0.037 C 
BRANCH  14  23
ATOM     23  C   UNL     1       0.771  -1.792  -1.333  0.00  0.00    +0.342 C 
ATOM     24  O   UNL     1       0.290  -2.529  -0.492  0.00  0.00    -0.245 OA
BRANCH  23  25
ATOM     25  O   UNL     1       0.687  -0.453  -1.184  0.00  0.00    -0.461 OA
BRANCH  25  27
ATOM     26  C   UNL     1       0.024   1.560  -0.022  0.00  0.00    +0.048 C 
ATOM     27  C   UNL     1       0.019   0.029  -0.016  0.00  0.00    +0.229 C 
ENDBRANCH  25  27
ENDBRANCH  23  25
ENDBRANCH  14  23
ENDBRANCH   1  18
BRANCH   3  28
ATOM     28  C   UNL     1      -3.521  -2.853  -4.272  0.00  0.00    +0.247 C 
ATOM     29  O   UNL     1      -3.148  -2.941  -3.118  0.00  0.00    -0.270 OA
ATOM     30  N   UNL     1      -4.837  -2.888  -4.560  0.00  0.00    -0.325 N 
ATOM     31  H   UNL     1      -5.131  -2.892  -5.484  0.00  0.00    +0.145 HD
ATOM     32  H   UNL     1      -5.490  -2.909  -3.843  0.00  0.00    +0.145 HD
ENDBRANCH   3  28
BRANCH   6  33
ATOM     33  C   UNL     1      -3.527  -1.538  -9.386  0.00  0.00    +0.193 C 
BRANCH  33  34
ATOM     34  O   UNL     1      -3.519  -1.105 -10.748  0.00  0.00    -0.390 OA
ATOM     35  H   UNL     1      -4.388  -0.845 -11.083  0.00  0.00    +0.210 HD
ENDBRANCH  33  34
ENDBRANCH   6  33
TORSDOF 7
