REMARK  Name = ZINC20907108
REMARK  8 active torsions:
REMARK  status: ('A' for Active; 'I' for Inactive)
REMARK    1  A    between atoms: C_1  and  C_2
REMARK    2  A    between atoms: C_5  and  N_9
REMARK    3  A    between atoms: C_10  and  C_12
REMARK    4  A    between atoms: C_12  and  S_13
REMARK    5  A    between atoms: S_13  and  C_14
REMARK    6  A    between atoms: N_19  and  N_20
REMARK    7  A    between atoms: C_21  and  C_22
REMARK    8  A    between atoms: C_31  and  O_32
REMARK                            x       y       z     vdW  Elec       q    Type
REMARK                         _______ _______ _______ _____ _____    ______ ____
ROOT
ATOM      1  C   UNL     1      -3.236  11.553   0.131  0.00  0.00    +0.211 A 
ATOM      2  N   UNL     1      -3.667  10.256   0.135  0.00  0.00    -0.186 NA
ATOM      3  C   UNL     1      -2.566   9.445   0.130  0.00  0.00    +0.232 A 
ATOM      4  N   UNL     1      -1.500  10.208   0.128  0.00  0.00    -0.245 N 
ATOM      5  N   UNL     1      -1.924  11.544   0.124  0.00  0.00    -0.144 NA
ATOM      6  N   UNL     1      -2.575   8.058   0.132  0.00  0.00    -0.205 N 
ATOM      7  H   UNL     1      -3.532   7.515   0.139  0.00  0.00    +0.177 HD
ATOM      8  H   UNL     1      -0.498   9.754   0.130  0.00  0.00    +0.192 HD
ENDROOT
BRANCH   6   9
ATOM      9  N   UNL     1      -1.367   7.349   0.126  0.00  0.00    -0.187 NA
ATOM     10  C   UNL     1      -1.376   6.049   0.129  0.00  0.00    +0.142 C 
BRANCH  10  11
ATOM     11  C   UNL     1      -0.108   5.305   0.122  0.00  0.00    +0.044 A 
ATOM     12  C   UNL     1      -0.100   3.844   0.125  0.00  0.00    -0.006 A 
ATOM     13  C   UNL     1      -1.290   3.106   0.133  0.00  0.00    +0.009 A 
ATOM     14  C   UNL     1      -1.239   1.744   0.130  0.00  0.00    +0.001 A 
ATOM     15  C   UNL     1      -0.018   1.074   0.129  0.00  0.00    +0.001 A 
ATOM     16  C   UNL     1       1.159   1.760   0.120  0.00  0.00    +0.008 A 
ATOM     17  C   UNL     1       1.144   3.166   0.118  0.00  0.00    -0.017 A 
ATOM     18  C   UNL     1       2.337   3.908   0.108  0.00  0.00    +0.012 A 
ATOM     19  C   UNL     1       2.311   5.268   0.107  0.00  0.00    +0.046 A 
ATOM     20  C   UNL     1       1.113   5.979   0.113  0.00  0.00    +0.126 A 
BRANCH  20  21
ATOM     21  O   UNL     1       1.134   7.337   0.111  0.00  0.00    -0.506 OA
ATOM     22  H   UNL     1       2.095   7.872   0.104  0.00  0.00    +0.292 HD
ENDBRANCH  20  21
ENDBRANCH  10  11
ENDBRANCH   6   9
BRANCH   1  23
ATOM     23  S   UNL     1      -4.261  12.985   0.135  0.00  0.00    -0.075 S 
BRANCH  23  24
ATOM     24  C   UNL     1      -3.086  14.367   0.127  0.00  0.00    +0.173 C 
BRANCH  24  26
ATOM     25  N   UNL     1      -3.171  16.839   0.124  0.00  0.00    -0.284 N 
ATOM     26  C   UNL     1      -3.842  15.670   0.129  0.00  0.00    +0.228 C 
ATOM     27  O   UNL     1      -5.055  15.667   0.136  0.00  0.00    -0.275 OA
ATOM     28  H   UNL     1      -2.074  16.843   0.193  0.00  0.00    +0.155 HD
BRANCH  25  33
ATOM     29  C   UNL     1      -6.010  21.738  -0.251  0.00  0.00    +0.044 C 
ATOM     30  C   UNL     1      -5.255  20.437  -0.152  0.00  0.00    -0.049 A 
ATOM     31  C   UNL     1      -5.804  19.372   0.540  0.00  0.00    +0.005 A 
ATOM     32  C   UNL     1      -5.116  18.179   0.634  0.00  0.00    +0.024 A 
ATOM     33  C   UNL     1      -3.872  18.047   0.031  0.00  0.00    +0.047 A 
ATOM     34  C   UNL     1      -3.321  19.120  -0.659  0.00  0.00    +0.039 A 
ATOM     35  C   UNL     1      -4.017  20.310  -0.753  0.00  0.00    +0.020 A 
ATOM     36 BR   UNL     1      -1.623  18.949  -1.475  0.00  0.00    -0.048 Br
ENDBRANCH  25  33
ENDBRANCH  24  26
ENDBRANCH  23  24
ENDBRANCH   1  23
TORSDOF 7
