REMARK  Name = ZINC33810315
REMARK  9 active torsions:
REMARK  status: ('A' for Active; 'I' for Inactive)
REMARK    1  A    between atoms: C_1  and  C_2
REMARK    2  A    between atoms: C_2  and  C_32
REMARK    3  A    between atoms: C_6  and  C_20
REMARK    4  A    between atoms: C_11  and  S_15
REMARK    5  A    between atoms: S_15  and  C_16
REMARK    6  A    between atoms: C_16  and  C_17
REMARK    7  A    between atoms: C_23  and  O_28
REMARK    8  A    between atoms: C_24  and  O_26
REMARK    9  A    between atoms: O_26  and  C_27
REMARK                            x       y       z     vdW  Elec       q    Type
REMARK                         _______ _______ _______ _____ _____    ______ ____
ROOT
ATOM      1  C   UNL     1       5.893   1.411   3.040  0.00  0.00    +0.011 C 
ATOM      2  C   UNL     1       6.722   1.704   1.788  0.00  0.00    -0.023 C 
ATOM      3  C   UNL     1       5.852   2.417   0.750  0.00  0.00    +0.058 C 
ATOM      4  C   UNL     1       4.703   1.524   0.351  0.00  0.00    +0.017 C 
ATOM      5  C   UNL     1       4.831   0.180   0.357  0.00  0.00    +0.024 C 
ATOM      6  C   UNL     1       3.686  -0.710  -0.054  0.00  0.00    +0.093 C 
ATOM      7  C   UNL     1       2.382   0.031  -0.025  0.00  0.00    +0.069 A 
ATOM      8  C   UNL     1       2.350   1.391  -0.013  0.00  0.00    +0.135 A 
ATOM      9  N   UNL     1       1.140   2.034   0.002  0.00  0.00    -0.208 NA
ATOM     10  C   UNL     1      -0.016   1.313   0.009  0.00  0.00    +0.171 A 
ATOM     11  N   UNL     1       0.002  -0.004   0.002  0.00  0.00    -0.302 N 
ATOM     12  C   UNL     1       1.162  -0.679  -0.014  0.00  0.00    +0.258 A 
ATOM     13  O   UNL     1       1.162  -1.901  -0.018  0.00  0.00    -0.267 OA
ATOM     14  N   UNL     1       3.522   2.111  -0.016  0.00  0.00    -0.302 N 
ATOM     15  C   UNL     1       6.036  -0.430   0.746  0.00  0.00    +0.162 C 
ATOM     16  O   UNL     1       6.122  -1.642   0.731  0.00  0.00    -0.292 OA
ATOM     17  C   UNL     1       7.221   0.388   1.181  0.00  0.00    +0.086 C 
ATOM     18  C   UNL     1       7.917   2.588   2.152  0.00  0.00    +0.011 C 
ATOM     19  H   UNL     1       3.504   3.168  -0.318  0.00  0.00    +0.153 HD
ATOM     20  H   UNL     1      -0.943  -0.567   0.009  0.00  0.00    +0.171 HD
ENDROOT
BRANCH   6  21
ATOM     21  C   UNL     1       3.933  -1.219  -1.451  0.00  0.00    -0.032 A 
ATOM     22  C   UNL     1       4.025  -0.327  -2.504  0.00  0.00    +0.008 A 
ATOM     23  C   UNL     1       4.253  -0.789  -3.787  0.00  0.00    +0.049 A 
ATOM     24  C   UNL     1       4.389  -2.148  -4.020  0.00  0.00    +0.158 A 
ATOM     25  C   UNL     1       4.296  -3.046  -2.960  0.00  0.00    +0.162 A 
ATOM     26  C   UNL     1       4.073  -2.576  -1.676  0.00  0.00    +0.054 A 
BRANCH  25  27
ATOM     27  O   UNL     1       4.429  -4.380  -3.184  0.00  0.00    -0.491 OA
ATOM     28  C   UNL     1       4.322  -5.242  -2.049  0.00  0.00    +0.277 C 
ENDBRANCH  25  27
BRANCH  24  29
ATOM     29  O   UNL     1       4.612  -2.604  -5.281  0.00  0.00    -0.503 OA
ATOM     30  H   UNL     1       4.720  -3.684  -5.465  0.00  0.00    +0.292 HD
ENDBRANCH  24  29
ENDBRANCH   6  21
BRANCH  10  31
ATOM     31  S   UNL     1      -1.562   2.157   0.021  0.00  0.00    -0.084 S 
BRANCH  31  32
ATOM     32  C   UNL     1      -2.692   0.744   0.019  0.00  0.00    +0.104 C 
BRANCH  32  33
ATOM     33  C   UNL     1      -4.116   1.238   0.028  0.00  0.00    -0.023 C 
ATOM     34  C   UNL     1      -4.897   1.006  -0.998  0.00  0.00    +0.005 C 
ENDBRANCH  32  33
ENDBRANCH  31  32
ENDBRANCH  10  31
TORSDOF 6
