REMARK  Name = ZINC59044579
REMARK  7 active torsions:
REMARK  status: ('A' for Active; 'I' for Inactive)
REMARK    1  A    between atoms: C_1  and  O_2
REMARK    2  A    between atoms: O_2  and  C_3
REMARK    3  A    between atoms: C_6  and  C_9
REMARK    4  A    between atoms: C_9  and  S_10
REMARK    5  A    between atoms: S_10  and  C_11
REMARK    6  A    between atoms: C_14  and  C_17
REMARK    7  A    between atoms: N_15  and  N_16
REMARK                            x       y       z     vdW  Elec       q    Type
REMARK                         _______ _______ _______ _____ _____    ______ ____
ROOT
ATOM      1  C   UNL     1       4.894  -3.543  -5.456  0.00  0.00    +0.209 A 
ATOM      2  N   UNL     1       4.214  -3.842  -6.540  0.00  0.00    -0.121 NA
ATOM      3  N   UNL     1       4.985  -4.402  -7.403  0.00  0.00    -0.127 NA
ATOM      4  C   UNL     1       6.203  -4.495  -6.923  0.00  0.00    +0.182 A 
ATOM      5  N   UNL     1       6.183  -3.942  -5.663  0.00  0.00    -0.224 N 
ENDROOT
BRANCH   4   6
ATOM      6  C   UNL     1       7.376  -5.077  -7.608  0.00  0.00    +0.022 A 
ATOM      7  C   UNL     1       8.523  -5.402  -6.882  0.00  0.00    +0.012 A 
ATOM      8  C   UNL     1       9.614  -5.946  -7.527  0.00  0.00    +0.002 A 
ATOM      9  C   UNL     1       9.574  -6.170  -8.892  0.00  0.00    +0.015 A 
ATOM     10  C   UNL     1       8.440  -5.851  -9.618  0.00  0.00    +0.019 A 
ATOM     11  C   UNL     1       7.339  -5.311  -8.983  0.00  0.00    +0.027 A 
ATOM     12 BR   UNL     1       8.396  -6.161 -11.483  0.00  0.00    -0.050 Br
ENDBRANCH   4   6
BRANCH   5  13
ATOM     13  N   UNL     1       7.234  -3.820  -4.798  0.00  0.00    -0.295 N 
ATOM     14  H   UNL     1       7.309  -4.632  -4.205  0.00  0.00    +0.163 HD
ATOM     15  H   UNL     1       8.095  -3.656  -5.297  0.00  0.00    +0.163 HD
ENDBRANCH   5  13
BRANCH   1  16
ATOM     16  S   UNL     1       4.261  -2.764  -4.008  0.00  0.00    -0.080 S 
BRANCH  16  17
ATOM     17  C   UNL     1       2.505  -2.503  -4.381  0.00  0.00    +0.112 C 
BRANCH  17  21
ATOM     18  C   UNL     1       0.606  -0.607  -1.056  0.00  0.00    +0.120 A 
ATOM     19  C   UNL     1       1.173   0.161  -2.062  0.00  0.00    +0.046 A 
ATOM     20  C   UNL     1       1.786  -0.455  -3.136  0.00  0.00    +0.008 A 
ATOM     21  C   UNL     1       1.835  -1.835  -3.209  0.00  0.00    -0.037 A 
ATOM     22  C   UNL     1       1.270  -2.602  -2.207  0.00  0.00    +0.008 A 
ATOM     23  C   UNL     1       0.661  -1.992  -1.128  0.00  0.00    +0.046 A 
BRANCH  18  25
ATOM     24  C   UNL     1      -0.017   1.425   0.010  0.00  0.00    +0.277 C 
ATOM     25  O   UNL     1       0.002  -0.004   0.002  0.00  0.00    -0.495 OA
ENDBRANCH  18  25
ENDBRANCH  17  21
ENDBRANCH  16  17
ENDBRANCH   1  16
TORSDOF 6
