REMARK  Name = ZINC66795701
REMARK  5 active torsions:
REMARK  status: ('A' for Active; 'I' for Inactive)
REMARK    1  A    between atoms: C_1  and  C_2
REMARK    2  A    between atoms: C_3  and  C_7
REMARK    3  A    between atoms: N_9  and  C_10
REMARK    4  A    between atoms: N_13  and  C_16
REMARK    5  A    between atoms: C_16  and  N_17
REMARK                            x       y       z     vdW  Elec       q    Type
REMARK                         _______ _______ _______ _____ _____    ______ ____
ROOT
ATOM      1  C   UNL     1      -4.781  -1.387   1.022  0.00  0.00    +0.070 C 
ATOM      2  C   UNL     1      -5.525  -1.007   2.306  0.00  0.00    +0.004 C 
ATOM      3  C   UNL     1      -6.930  -0.517   1.948  0.00  0.00    -0.075 C 
ATOM      4  N   UNL     1      -7.662  -1.583   1.253  0.00  0.00    +0.392 N 
ATOM      5  C   UNL     1      -6.993  -1.902  -0.014  0.00  0.00    -0.075 C 
ATOM      6  C   UNL     1      -5.591  -2.446   0.269  0.00  0.00    +0.004 C 
ATOM      7  H   UNL     1      -7.688  -2.406   1.836  0.00  0.00    -0.079 HD
ENDROOT
BRANCH   1  10
ATOM      8  C   UNL     1      -2.422  -1.095   1.556  0.00  0.00    +0.248 C 
ATOM      9  O   UNL     1      -2.576   0.106   1.449  0.00  0.00    -0.270 OA
ATOM     10  N   UNL     1      -3.463  -1.928   1.362  0.00  0.00    -0.309 N 
ATOM     11  H   UNL     1      -3.340  -2.887   1.448  0.00  0.00    +0.149 HD
BRANCH   8  14
ATOM     12  C   UNL     1       0.192   0.562   2.068  0.00  0.00    +0.087 C 
ATOM     13  C   UNL     1       0.051  -0.937   2.125  0.00  0.00    +0.114 A 
ATOM     14  C   UNL     1      -1.096  -1.640   1.898  0.00  0.00    +0.077 A 
ATOM     15  C   UNL     1      -0.733  -3.054   2.067  0.00  0.00    +0.054 A 
ATOM     16  C   UNL     1       0.574  -3.066   2.374  0.00  0.00    +0.196 A 
ATOM     17  O   UNL     1       1.030  -1.804   2.400  0.00  0.00    -0.467 OA
ENDBRANCH   8  14
ENDBRANCH   1  10
BRANCH   4  18
ATOM     18  C   UNL     1      -9.035  -1.135   0.982  0.00  0.00    +0.051 C 
BRANCH  18  19
ATOM     19  N   UNL     1      -9.805  -2.243   0.409  0.00  0.00    -0.322 N 
ATOM     20  C   UNL     1     -10.309  -3.225   1.227  0.00  0.00    +0.030 A 
ATOM     21  C   UNL     1     -10.997  -4.188   0.599  0.00  0.00    +0.014 A 
ATOM     22  S   UNL     1     -10.926  -3.705  -1.103  0.00  0.00    -0.031 S 
ATOM     23  C   UNL     1     -10.025  -2.296  -0.919  0.00  0.00    +0.289 A 
ATOM     24  O   UNL     1      -9.658  -1.515  -1.779  0.00  0.00    -0.260 OA
ATOM     25  C   UNL     1     -11.659  -5.380   1.208  0.00  0.00    +0.044 C 
ATOM     26  C   UNL     1     -11.128  -5.550   2.640  0.00  0.00    +0.006 C 
ATOM     27  C   UNL     1     -11.171  -4.191   3.345  0.00  0.00    +0.006 C 
ATOM     28  C   UNL     1     -10.124  -3.255   2.738  0.00  0.00    +0.054 C 
ENDBRANCH  18  19
ENDBRANCH   4  18
TORSDOF 4
