REMARK  Name = ZINC64392177
REMARK  5 active torsions:
REMARK  status: ('A' for Active; 'I' for Inactive)
REMARK    1  A    between atoms: C_4  and  C_7
REMARK    2  A    between atoms: C_7  and  C_8
REMARK    3  A    between atoms: C_8  and  N_9
REMARK    4  A    between atoms: C_15  and  C_22
REMARK    5  A    between atoms: C_25  and  C_28
REMARK                            x       y       z     vdW  Elec       q    Type
REMARK                         _______ _______ _______ _____ _____    ______ ____
ROOT
ATOM      1  N   UNL     1       5.568  -1.605   1.735  0.00  0.00    -0.260 N 
ATOM      2  C   UNL     1       5.551  -2.955   1.725  0.00  0.00    +0.264 A 
ATOM      3  O   UNL     1       4.503  -3.567   1.800  0.00  0.00    -0.267 OA
ATOM      4  C   UNL     1       6.837  -3.668   1.621  0.00  0.00    +0.063 A 
ATOM      5  C   UNL     1       6.904  -5.059   1.603  0.00  0.00    +0.016 A 
ATOM      6  C   UNL     1       8.132  -5.679   1.504  0.00  0.00    +0.009 A 
ATOM      7  C   UNL     1       9.294  -4.926   1.421  0.00  0.00    +0.006 A 
ATOM      8  C   UNL     1       9.241  -3.546   1.437  0.00  0.00    +0.034 A 
ATOM      9  C   UNL     1       8.015  -2.906   1.536  0.00  0.00    +0.056 A 
ATOM     10  N   UNL     1       7.918  -1.522   1.556  0.00  0.00    -0.307 N 
ATOM     11  H   UNL     1       8.723  -0.983   1.498  0.00  0.00    +0.170 HD
ATOM     12  C   UNL     1       6.719  -0.921   1.647  0.00  0.00    +0.330 A 
ATOM     13  O   UNL     1       6.677   0.294   1.656  0.00  0.00    -0.246 OA
ENDROOT
BRANCH   7  14
ATOM     14  C   UNL     1      10.627  -5.620   1.313  0.00  0.00    +0.274 C 
ATOM     15  N   UNL     1      10.572  -6.931   1.971  0.00  0.00    -0.339 N 
ATOM     16  C   UNL     1      10.816  -7.850   1.089  0.00  0.00    +0.135 C 
ATOM     17  N   UNL     1      11.043  -7.307  -0.151  0.00  0.00    -0.247 N 
ATOM     18  O   UNL     1      10.935  -5.893  -0.062  0.00  0.00    -0.243 OA
ATOM     19  H   UNL     1      11.245  -7.807  -0.958  0.00  0.00    +0.196 HD
ATOM     20  H   UNL     1      10.383  -7.085   2.910  0.00  0.00    +0.164 HD
BRANCH  16  21
ATOM     21  C   UNL     1      10.847  -9.301   1.382  0.00  0.00    +0.035 A 
ATOM     22  C   UNL     1      11.694  -9.797   2.373  0.00  0.00    +0.013 A 
ATOM     23  C   UNL     1      11.718 -11.150   2.642  0.00  0.00    +0.001 A 
ATOM     24  C   UNL     1      10.905 -12.015   1.930  0.00  0.00    +0.001 A 
ATOM     25  C   UNL     1      10.063 -11.531   0.946  0.00  0.00    +0.021 A 
ATOM     26  C   UNL     1      10.025 -10.177   0.672  0.00  0.00    +0.052 A 
ATOM     27 CL   UNL     1       8.962  -9.569  -0.558  0.00  0.00    -0.083 Cl
ENDBRANCH  16  21
ENDBRANCH   7  14
BRANCH   1  28
ATOM     28  C   UNL     1       4.303  -0.872   1.838  0.00  0.00    +0.134 C 
BRANCH  28  29
ATOM     29  C   UNL     1       3.750  -0.611   0.436  0.00  0.00    +0.057 C 
BRANCH  29  33
ATOM     30  C   UNL     1       0.063   1.526   0.733  0.00  0.00    +0.000 A 
ATOM     31  C   UNL     1       1.257   2.217   0.643  0.00  0.00    +0.000 A 
ATOM     32  C   UNL     1       2.450   1.526   0.547  0.00  0.00    +0.004 A 
ATOM     33  C   UNL     1       2.449   0.143   0.542  0.00  0.00    -0.046 A 
ATOM     34  C   UNL     1       1.255  -0.548   0.632  0.00  0.00    +0.004 A 
ATOM     35  C   UNL     1       0.062   0.144   0.727  0.00  0.00    +0.000 A 
ENDBRANCH  29  33
ENDBRANCH  28  29
ENDBRANCH   1  28
TORSDOF 5
