REMARK  Name = ZINC43218182
REMARK  9 active torsions:
REMARK  status: ('A' for Active; 'I' for Inactive)
REMARK    1  A    between atoms: C_1  and  C_2
REMARK    2  A    between atoms: C_2  and  C_3
REMARK    3  A    between atoms: C_2  and  C_4
REMARK    4  A    between atoms: C_14  and  C_35
REMARK    5  A    between atoms: C_18  and  C_19
REMARK    6  A    between atoms: C_18  and  C_20
REMARK    7  A    between atoms: C_20  and  N_21
REMARK    8  A    between atoms: C_22  and  C_24
REMARK    9  A    between atoms: C_27  and  C_29
REMARK                            x       y       z     vdW  Elec       q    Type
REMARK                         _______ _______ _______ _____ _____    ______ ____
ROOT
ATOM      1  C   UNL     1       0.702  -0.462   1.130  0.00  0.00    -0.045 A 
ATOM      2  C   UNL     1       2.022  -0.113   1.344  0.00  0.00    +0.004 A 
ATOM      3  C   UNL     1       2.681  -0.583   2.461  0.00  0.00    +0.005 A 
ATOM      4  C   UNL     1       2.028  -1.403   3.371  0.00  0.00    -0.038 A 
ATOM      5  C   UNL     1       0.715  -1.756   3.156  0.00  0.00    -0.043 A 
ATOM      6  C   UNL     1       0.051  -1.274   2.035  0.00  0.00    +0.007 A 
ATOM      7  C   UNL     1      -0.051  -2.659   4.088  0.00  0.00    +0.036 C 
ATOM      8  C   UNL     1       0.657  -2.774   5.437  0.00  0.00    +0.009 C 
ATOM      9  C   UNL     1       2.129  -3.101   5.178  0.00  0.00    +0.007 C 
ATOM     10  C   UNL     1       2.804  -1.872   4.579  0.00  0.00    -0.003 C 
ATOM     11  C   UNL     1       2.832  -0.736   5.606  0.00  0.00    +0.011 C 
ATOM     12  C   UNL     1       3.566  -1.193   6.866  0.00  0.00    +0.001 C 
ATOM     13  C   UNL     1       2.825  -2.388   7.474  0.00  0.00    +0.008 C 
ATOM     14  C   UNL     1       2.823  -3.520   6.467  0.00  0.00    -0.013 C 
ATOM     15  C   UNL     1       2.080  -4.710   7.079  0.00  0.00    +0.013 C 
ATOM     16  C   UNL     1       4.233  -2.225   4.162  0.00  0.00    +0.016 C 
ENDROOT
BRANCH   1  18
ATOM     17  C   UNL     1      -0.043   1.580  -0.064  0.00  0.00    +0.012 C 
ATOM     18  C   UNL     1      -0.027   0.050  -0.086  0.00  0.00    +0.013 C 
ATOM     19  C   UNL     1       0.685  -0.435  -1.350  0.00  0.00    +0.012 C 
ENDBRANCH   1  18
BRANCH  14  20
ATOM     20  C   UNL     1       4.264  -3.931   6.156  0.00  0.00    +0.111 C 
BRANCH  20  21
ATOM     21  N   UNL     1       4.882  -4.492   7.360  0.00  0.00    -0.309 N 
ATOM     22  C   UNL     1       6.158  -4.924   7.324  0.00  0.00    +0.266 C 
ATOM     23  O   UNL     1       6.796  -4.848   6.292  0.00  0.00    -0.268 OA
ATOM     24  H   UNL     1       4.373  -4.552   8.184  0.00  0.00    +0.149 HD
BRANCH  22  25
ATOM     25  C   UNL     1       6.780  -5.488   8.535  0.00  0.00    +0.163 A 
ATOM     26  C   UNL     1       8.053  -5.955   8.648  0.00  0.00    +0.230 A 
ATOM     27  O   UNL     1       8.206  -6.375   9.914  0.00  0.00    -0.449 OA
ATOM     28  C   UNL     1       7.053  -6.170  10.566  0.00  0.00    +0.182 A 
ATOM     29  N   UNL     1       6.191  -5.634   9.753  0.00  0.00    -0.210 NA
BRANCH  28  30
ATOM     30  C   UNL     1       6.797  -6.503  12.013  0.00  0.00    +0.016 C 
ATOM     31  C   UNL     1       7.531  -5.494  12.921  0.00  0.00    -0.008 C 
ATOM     32  C   UNL     1       8.034  -6.380  14.091  0.00  0.00    -0.020 C 
ATOM     33  C   UNL     1       8.378  -7.700  13.359  0.00  0.00    -0.082 C 
ATOM     34  N   UNL     1       7.330  -7.842  12.321  0.00  0.00    +0.387 N 
ATOM     35  H   UNL     1       6.587  -8.432  12.665  0.00  0.00    -0.085 HD
ATOM     36  H   UNL     1       7.728  -8.249  11.488  0.00  0.00    -0.085 HD
ENDBRANCH  28  30
ENDBRANCH  22  25
ENDBRANCH  20  21
ENDBRANCH  14  20
TORSDOF 5
