REMARK  Name = ZINC26964925
REMARK  5 active torsions:
REMARK  status: ('A' for Active; 'I' for Inactive)
REMARK    1  A    between atoms: C_1  and  C_2
REMARK    2  A    between atoms: C_5  and  O_33
REMARK    3  A    between atoms: C_18  and  C_32
REMARK    4  A    between atoms: C_19  and  O_31
REMARK    5  A    between atoms: C_22  and  C_24
REMARK                            x       y       z     vdW  Elec       q    Type
REMARK                         _______ _______ _______ _____ _____    ______ ____
ROOT
ATOM      1  C   UNL     1      -0.802  -2.140  -1.939  0.00  0.00    +0.012 C 
ATOM      2  C   UNL     1       0.633  -1.711  -1.520  0.00  0.00    -0.026 C 
ATOM      3  C   UNL     1       1.513  -1.996  -2.736  0.00  0.00    +0.010 C 
ATOM      4  C   UNL     1       2.994  -2.129  -2.442  0.00  0.00    +0.032 C 
ATOM      5  C   UNL     1       3.257  -3.077  -1.274  0.00  0.00    +0.115 C 
ATOM      6  C   UNL     1       2.515  -2.554  -0.043  0.00  0.00    +0.035 C 
ATOM      7  C   UNL     1       1.016  -2.559  -0.325  0.00  0.00    -0.002 C 
ATOM      8  C   UNL     1       0.263  -2.165   0.944  0.00  0.00    +0.004 C 
ATOM      9  C   UNL     1       0.453  -0.667   1.214  0.00  0.00    +0.007 C 
ATOM     10  C   UNL     1      -0.172   0.096   0.050  0.00  0.00    +0.025 C 
ATOM     11  C   UNL     1       0.579  -0.214  -1.239  0.00  0.00    +0.001 C 
ATOM     12  C   UNL     1       1.975   0.404  -1.188  0.00  0.00    +0.005 C 
ATOM     13  C   UNL     1       1.828   1.924  -1.077  0.00  0.00    +0.010 C 
ATOM     14  C   UNL     1       1.073   2.319   0.170  0.00  0.00    +0.004 C 
ATOM     15  C   UNL     1      -0.272   1.592   0.322  0.00  0.00    +0.075 C 
ATOM     16  C   UNL     1      -0.594   1.779   1.831  0.00  0.00    +0.036 C 
ATOM     17  C   UNL     1       0.769   1.829   2.547  0.00  0.00    +0.012 C 
ATOM     18  C   UNL     1       1.845   2.039   1.463  0.00  0.00    +0.031 C 
ATOM     19  C   UNL     1       0.798   3.830   0.095  0.00  0.00    +0.014 C 
ENDROOT
BRANCH  18  20
ATOM     20  C   UNL     1       2.706   3.223   1.821  0.00  0.00    -0.009 A 
ATOM     21  C   UNL     1       2.133   4.349   2.435  0.00  0.00    +0.014 A 
ATOM     22  C   UNL     1       2.933   5.409   2.749  0.00  0.00    +0.092 A 
ATOM     23  C   UNL     1       4.305   5.341   2.450  0.00  0.00    +0.337 A 
ATOM     24  O   UNL     1       5.036   6.278   2.723  0.00  0.00    -0.245 OA
ATOM     25  O   UNL     1       4.812   4.244   1.862  0.00  0.00    -0.430 OA
ATOM     26  C   UNL     1       4.029   3.200   1.556  0.00  0.00    +0.203 A 
ENDBRANCH  18  20
BRANCH  15  27
ATOM     27  O   UNL     1      -1.282   2.200  -0.505  0.00  0.00    -0.388 OA
ATOM     28  H   UNL     1      -1.479   3.279  -0.430  0.00  0.00    +0.210 HD
ENDBRANCH  15  27
BRANCH   5  29
ATOM     29  O   UNL     1       2.797  -4.389  -1.599  0.00  0.00    -0.392 OA
ATOM     30  H   UNL     1       2.906  -5.206  -0.870  0.00  0.00    +0.210 HD
ENDBRANCH   5  29
TORSDOF 3
