REMARK  Name = ZINC65393342
REMARK  5 active torsions:
REMARK  status: ('A' for Active; 'I' for Inactive)
REMARK    1  A    between atoms: C_1  and  C_2
REMARK    2  A    between atoms: C_2  and  C_3
REMARK    3  A    between atoms: C_3  and  C_4
REMARK    4  A    between atoms: C_6  and  C_16
REMARK    5  A    between atoms: C_21  and  O_22
REMARK                            x       y       z     vdW  Elec       q    Type
REMARK                         _______ _______ _______ _____ _____    ______ ____
ROOT
ATOM      1  C   UNL     1      -0.694  -1.981   0.175  0.00  0.00    +0.067 C 
ATOM      2  C   UNL     1      -1.007  -2.767   1.180  0.00  0.00    +0.005 C 
ATOM      3  C   UNL     1      -1.594  -2.512   2.541  0.00  0.00    +0.063 C 
ATOM      4  C   UNL     1      -2.961  -3.217   2.550  0.00  0.00    +0.108 C 
ATOM      5  C   UNL     1      -2.933  -4.500   1.786  0.00  0.00    +0.216 C 
ATOM      6  O   UNL     1      -3.832  -5.280   2.024  0.00  0.00    -0.276 OA
ATOM      7  N   UNL     1      -2.042  -4.894   0.875  0.00  0.00    -0.289 N 
ATOM      8  C   UNL     1      -0.792  -4.180   0.653  0.00  0.00    +0.243 C 
ATOM      9  N   UNL     1      -0.473  -3.946  -0.754  0.00  0.00    -0.160 NA
ATOM     10  N   UNL     1      -0.410  -2.720  -0.928  0.00  0.00    -0.157 NA
ATOM     11  H   UNL     1      -2.233  -5.682   0.342  0.00  0.00    +0.151 HD
ENDROOT
BRANCH   3  12
ATOM     12  C   UNL     1      -1.769  -1.032   2.762  0.00  0.00    +0.005 A 
ATOM     13  C   UNL     1      -2.875  -0.382   2.248  0.00  0.00    +0.028 A 
ATOM     14  C   UNL     1      -3.037   0.977   2.450  0.00  0.00    +0.043 A 
ATOM     15  C   UNL     1      -2.091   1.689   3.167  0.00  0.00    +0.043 A 
ATOM     16  C   UNL     1      -0.983   1.043   3.682  0.00  0.00    +0.084 A 
ATOM     17  C   UNL     1      -0.823  -0.322   3.485  0.00  0.00    +0.139 A 
ATOM     18 CL   UNL     1       0.204   1.937   4.580  0.00  0.00    -0.080 Cl
ATOM     19 CL   UNL     1      -4.427   1.790   1.803  0.00  0.00    -0.083 Cl
BRANCH  17  20
ATOM     20  O   UNL     1       0.263  -0.961   3.996  0.00  0.00    -0.505 OA
ATOM     21  H   UNL     1       1.024  -0.981   3.399  0.00  0.00    +0.292 HD
ENDBRANCH  17  20
ENDBRANCH   3  12
BRANCH   1  22
ATOM     22  C   UNL     1      -0.660  -0.476   0.236  0.00  0.00    +0.057 C 
BRANCH  22  24
ATOM     23  C   UNL     1       0.806   1.520   0.567  0.00  0.00    +0.004 C 
ATOM     24  C   UNL     1       0.772  -0.008   0.505  0.00  0.00    +0.003 C 
ENDBRANCH  22  24
ENDBRANCH   1  22
TORSDOF 4
