REMARK  Name = ZINC41898211
REMARK  5 active torsions:
REMARK  status: ('A' for Active; 'I' for Inactive)
REMARK    1  A    between atoms: C_1  and  C_2
REMARK    2  A    between atoms: C_5  and  C_11
REMARK    3  A    between atoms: C_5  and  N_14
REMARK    4  A    between atoms: C_7  and  C_9
REMARK    5  A    between atoms: C_7  and  C_10
REMARK                            x       y       z     vdW  Elec       q    Type
REMARK                         _______ _______ _______ _____ _____    ______ ____
ROOT
ATOM      1  C   UNL     1       0.205   0.949   1.385  0.00  0.00    +0.007 C 
ATOM      2  C   UNL     1       0.180  -0.469   0.812  0.00  0.00    -0.011 C 
ATOM      3  C   UNL     1       0.705  -0.448  -0.625  0.00  0.00    +0.041 C 
ATOM      4  C   UNL     1       0.680  -1.867  -1.198  0.00  0.00    +0.139 C 
ATOM      5  C   UNL     1       1.566  -2.777  -0.345  0.00  0.00    +0.044 C 
ATOM      6  C   UNL     1       1.041  -2.798   1.092  0.00  0.00    -0.032 C 
ATOM      7  C   UNL     1       1.066  -1.380   1.665  0.00  0.00    +0.009 C 
ATOM      8  C   UNL     1      -0.394  -3.328   1.103  0.00  0.00    +0.011 C 
ATOM      9  C   UNL     1       1.927  -3.708   1.945  0.00  0.00    +0.011 C 
ENDROOT
BRANCH   4  10
ATOM     10  N   UNL     1      -0.694  -2.374  -1.188  0.00  0.00    -0.285 N 
ATOM     11  C   UNL     1      -0.877  -3.806  -1.396  0.00  0.00    +0.109 C 
ATOM     12  C   UNL     1      -2.205  -4.090  -2.102  0.00  0.00    +0.019 C 
ATOM     13  C   UNL     1      -3.294  -4.304  -1.044  0.00  0.00    +0.002 C 
ATOM     14  C   UNL     1      -3.426  -3.047  -0.189  0.00  0.00    +0.009 C 
ATOM     15  C   UNL     1      -3.125  -1.830  -1.071  0.00  0.00    +0.096 C 
ATOM     16  C   UNL     1      -1.665  -1.490  -0.985  0.00  0.00    +0.216 C 
ATOM     17  O   UNL     1      -1.356  -0.347  -0.720  0.00  0.00    -0.276 OA
ENDBRANCH   4  10
BRANCH   4  18
ATOM     18  C   UNL     1       1.197  -1.846  -2.614  0.00  0.00    +0.379 C 
ATOM     19  O   UNL     1       2.329  -1.455  -2.844  0.00  0.00    -0.244 OA
ATOM     20  O   UNL     1       0.484  -2.220  -3.529  0.00  0.00    -0.244 OA
ENDBRANCH   4  18
TORSDOF 2
