REMARK  Name = ZINC62960410
REMARK  4 active torsions:
REMARK  status: ('A' for Active; 'I' for Inactive)
REMARK    1  A    between atoms: C_1  and  C_2
REMARK    2  A    between atoms: C_2  and  C_4
REMARK    3  A    between atoms: C_2  and  N_7
REMARK    4  A    between atoms: N_7  and  C_8
REMARK                            x       y       z     vdW  Elec       q    Type
REMARK                         _______ _______ _______ _____ _____    ______ ____
ROOT
ATOM      1  N   UNL     1      -1.130  -1.833  -1.736  0.00  0.00    -0.275 N 
ATOM      2  C   UNL     1      -1.639  -2.996  -2.466  0.00  0.00    +0.134 C 
ATOM      3  C   UNL     1       0.040  -1.269  -2.097  0.00  0.00    +0.305 C 
ATOM      4  O   UNL     1       0.572  -0.454  -1.368  0.00  0.00    -0.252 OA
ATOM      5  N   UNL     1       0.620  -1.610  -3.264  0.00  0.00    -0.285 N 
ATOM      6  C   UNL     1       2.046  -1.343  -3.497  0.00  0.00    +0.110 C 
ATOM      7  C   UNL     1       2.191  -0.541  -4.795  0.00  0.00    +0.026 C 
ATOM      8  C   UNL     1       1.488  -1.283  -5.930  0.00  0.00    -0.026 C 
ATOM      9  C   UNL     1       1.666  -0.515  -7.248  0.00  0.00    +0.007 C 
ATOM     10  C   UNL     1       2.419  -1.461  -8.208  0.00  0.00    +0.001 C 
ATOM     11  C   UNL     1       2.113  -2.878  -7.662  0.00  0.00    +0.001 C 
ATOM     12  C   UNL     1       2.134  -2.667  -6.128  0.00  0.00    +0.007 C 
ATOM     13  C   UNL     1       0.002  -1.446  -5.619  0.00  0.00    +0.026 C 
ATOM     14  C   UNL     1      -0.160  -2.261  -4.326  0.00  0.00    +0.110 C 
ENDROOT
BRANCH   1  16
ATOM     15  C   UNL     1      -2.058  -2.353   0.466  0.00  0.00    +0.040 C 
ATOM     16  C   UNL     1      -1.894  -1.282  -0.613  0.00  0.00    +0.187 C 
BRANCH  16  17
ATOM     17  C   UNL     1      -3.252  -0.843  -1.097  0.00  0.00    +0.376 C 
ATOM     18  O   UNL     1      -3.978  -0.191  -0.366  0.00  0.00    -0.244 OA
ATOM     19  O   UNL     1      -3.625  -1.140  -2.219  0.00  0.00    -0.244 OA
ENDBRANCH  16  17
ENDBRANCH   1  16
TORSDOF 2
