REMARK  Name = ZINC39665789
REMARK  14 active torsions:
REMARK  status: ('A' for Active; 'I' for Inactive)
REMARK    1  A    between atoms: C_1  and  C_2
REMARK    2  A    between atoms: C_2  and  C_3
REMARK    3  A    between atoms: C_3  and  C_4
REMARK    4  A    between atoms: C_4  and  C_5
REMARK    5  A    between atoms: C_5  and  C_7
REMARK    6  A    between atoms: C_5  and  C_8
REMARK    7  A    between atoms: C_12  and  C_21
REMARK    8  A    between atoms: N_23  and  C_24
REMARK    9  A    between atoms: C_24  and  C_25
REMARK   10  A    between atoms: C_25  and  C_27
REMARK   11  A    between atoms: C_25  and  O_28
REMARK   12  A    between atoms: O_28  and  C_29
REMARK   13  A    between atoms: C_32  and  O_35
REMARK   14  A    between atoms: O_35  and  C_36
REMARK                            x       y       z     vdW  Elec       q    Type
REMARK                         _______ _______ _______ _____ _____    ______ ____
ROOT
ATOM      1  C   UNL     1      -2.832  -4.041  -0.104  0.00  0.00    +0.218 C 
ATOM      2  O   UNL     1      -1.772  -4.622  -0.204  0.00  0.00    -0.275 OA
ATOM      3  N   UNL     1      -3.986  -4.737  -0.125  0.00  0.00    -0.300 N 
ATOM      4  C   UNL     1      -5.367  -4.209  -0.023  0.00  0.00    +0.121 C 
ATOM      5  C   UNL     1      -6.184  -5.058  -1.023  0.00  0.00    +0.100 C 
ATOM      6  C   UNL     1      -5.389  -6.366  -1.170  0.00  0.00    -0.004 C 
ATOM      7  C   UNL     1      -4.161  -6.203  -0.261  0.00  0.00    +0.115 C 
ATOM      8  C   UNL     1      -6.232  -7.551  -0.713  0.00  0.00    -0.010 C 
ATOM      9  C   UNL     1      -5.441  -8.846  -0.922  0.00  0.00    -0.082 C 
ATOM     10  N   UNL     1      -5.094  -8.985  -2.342  0.00  0.00    +0.379 N 
ATOM     11  C   UNL     1      -4.206  -7.890  -2.750  0.00  0.00    -0.082 C 
ATOM     12  C   UNL     1      -4.945  -6.555  -2.617  0.00  0.00    -0.010 C 
ATOM     13  H   UNL     1      -4.627  -9.867  -2.487  0.00  0.00    -0.086 HD
ATOM     14  H   UNL     1      -5.936  -8.958  -2.897  0.00  0.00    -0.086 HD
ENDROOT
BRANCH   5  15
ATOM     15  C   UNL     1      -7.560  -5.336  -0.474  0.00  0.00    +0.218 C 
ATOM     16  O   UNL     1      -7.716  -5.498   0.718  0.00  0.00    -0.275 OA
ATOM     17  N   UNL     1      -8.617  -5.405  -1.308  0.00  0.00    -0.312 N 
ATOM     18  H   UNL     1      -8.492  -5.276  -2.261  0.00  0.00    +0.149 HD
BRANCH  17  19
ATOM     19  C   UNL     1      -9.954  -5.676  -0.774  0.00  0.00    +0.148 C 
BRANCH  19  20
ATOM     20  C   UNL     1     -10.965  -5.702  -1.922  0.00  0.00    +0.187 C 
ATOM     21  C   UNL     1     -12.362  -5.985  -1.364  0.00  0.00    +0.053 C 
BRANCH  20  22
ATOM     22  O   UNL     1     -10.965  -4.437  -2.586  0.00  0.00    -0.488 OA
BRANCH  22  23
ATOM     23  C   UNL     1     -11.371  -4.420  -3.884  0.00  0.00    +0.121 A 
ATOM     24  C   UNL     1     -11.281  -3.251  -4.624  0.00  0.00    +0.049 A 
ATOM     25  C   UNL     1     -11.694  -3.234  -5.942  0.00  0.00    +0.049 A 
ATOM     26  C   UNL     1     -12.197  -4.387  -6.525  0.00  0.00    +0.120 A 
ATOM     27  C   UNL     1     -12.287  -5.557  -5.785  0.00  0.00    +0.049 A 
ATOM     28  C   UNL     1     -11.870  -5.575  -4.468  0.00  0.00    +0.049 A 
BRANCH  26  29
ATOM     29  O   UNL     1     -12.604  -4.371  -7.823  0.00  0.00    -0.495 OA
ATOM     30  C   UNL     1     -13.113  -5.594  -8.359  0.00  0.00    +0.277 C 
ENDBRANCH  26  29
ENDBRANCH  22  23
ENDBRANCH  20  22
ENDBRANCH  19  20
ENDBRANCH  17  19
ENDBRANCH   5  15
BRANCH   1  31
ATOM     31  C   UNL     1      -2.859  -2.542   0.045  0.00  0.00    +0.072 C 
ATOM     32  C   UNL     1      -3.538  -2.172   1.365  0.00  0.00    +0.017 C 
BRANCH  31  33
ATOM     33  C   UNL     1      -1.427  -2.003   0.039  0.00  0.00    +0.012 C 
BRANCH  33  34
ATOM     34  C   UNL     1      -1.458  -0.474   0.064  0.00  0.00    +0.000 C 
BRANCH  34  36
ATOM     35  C   UNL     1      -0.056   1.595   0.083  0.00  0.00    +0.004 C 
ATOM     36  C   UNL     1      -0.026   0.065   0.058  0.00  0.00    -0.003 C 
ENDBRANCH  34  36
ENDBRANCH  33  34
ENDBRANCH  31  33
ENDBRANCH   1  31
TORSDOF 10
