REMARK  Name = ZINC44366178
REMARK  4 active torsions:
REMARK  status: ('A' for Active; 'I' for Inactive)
REMARK    1  A    between atoms: C_1  and  C_2
REMARK    2  A    between atoms: C_2  and  N_8
REMARK    3  A    between atoms: C_9  and  C_11
REMARK    4  A    between atoms: C_16  and  N_17
REMARK                            x       y       z     vdW  Elec       q    Type
REMARK                         _______ _______ _______ _____ _____    ______ ____
ROOT
ATOM      1  N   UNL     1      -1.222  -0.625  -0.830  0.00  0.00    -0.306 N 
ATOM      2  C   UNL     1      -2.289  -0.136  -1.493  0.00  0.00    +0.247 C 
ATOM      3  O   UNL     1      -2.142   0.749  -2.313  0.00  0.00    -0.270 OA
ATOM      4  H   UNL     1      -1.340  -1.332  -0.176  0.00  0.00    +0.150 HD
ENDROOT
BRANCH   1   6
ATOM      5  C   UNL     1       0.138   1.407  -0.782  0.00  0.00    +0.031 C 
ATOM      6  C   UNL     1       0.115  -0.090  -1.098  0.00  0.00    +0.032 C 
ATOM      7  C   UNL     1       0.465  -0.305  -2.572  0.00  0.00    +0.025 C 
ATOM      8  C   UNL     1       0.442  -1.802  -2.888  0.00  0.00    +0.002 C 
ATOM      9  C   UNL     1       1.466  -2.524  -2.010  0.00  0.00    +0.000 C 
ATOM     10  C   UNL     1       1.116  -2.309  -0.536  0.00  0.00    +0.002 C 
ATOM     11  C   UNL     1       1.139  -0.812  -0.220  0.00  0.00    +0.025 C 
ENDBRANCH   1   6
BRANCH   2  12
ATOM     12  C   UNL     1      -3.639  -0.676  -1.223  0.00  0.00    +0.068 A 
ATOM     13  C   UNL     1      -3.880  -2.047  -1.331  0.00  0.00    +0.035 A 
ATOM     14  C   UNL     1      -5.142  -2.545  -1.078  0.00  0.00    +0.042 A 
ATOM     15  C   UNL     1      -6.167  -1.687  -0.716  0.00  0.00    +0.022 A 
ATOM     16  C   UNL     1      -5.934  -0.328  -0.607  0.00  0.00    +0.035 A 
ATOM     17  C   UNL     1      -4.675   0.181  -0.852  0.00  0.00    +0.138 A 
ATOM     18 CL   UNL     1      -5.445  -4.249  -1.213  0.00  0.00    -0.084 Cl
BRANCH  17  19
ATOM     19  N   UNL     1      -4.427   1.635  -0.729  0.00  0.00    +0.057 N 
ATOM     20  O   UNL     1      -5.349   2.391  -0.529  0.00  0.00    -0.126 OA
ATOM     21  O   UNL     1      -3.302   2.066  -0.827  0.00  0.00    -0.126 OA
ENDBRANCH  17  19
ENDBRANCH   2  12
TORSDOF 3
