REMARK  Name = ZINC39253037
REMARK  7 active torsions:
REMARK  status: ('A' for Active; 'I' for Inactive)
REMARK    1  A    between atoms: C_1  and  C_2
REMARK    2  A    between atoms: C_2  and  C_3
REMARK    3  A    between atoms: N_17  and  N_18
REMARK    4  A    between atoms: C_19  and  C_20
REMARK    5  A    between atoms: C_24  and  O_27
REMARK    6  A    between atoms: C_25  and  O_26
REMARK    7  A    between atoms: O_27  and  C_28
REMARK                            x       y       z     vdW  Elec       q    Type
REMARK                         _______ _______ _______ _____ _____    ______ ____
ROOT
ATOM      1  C   UNL     1       0.707  -0.490  -1.238  0.00  0.00    -0.047 A 
ATOM      2  C   UNL     1      -0.045  -0.713  -2.399  0.00  0.00    +0.005 A 
ATOM      3  C   UNL     1       0.524  -1.155  -3.543  0.00  0.00    +0.026 A 
ATOM      4  C   UNL     1       1.970  -1.407  -3.574  0.00  0.00    +0.046 A 
ATOM      5  N   UNL     1       2.769  -1.799  -4.538  0.00  0.00    -0.358 N 
ATOM      6  C   UNL     1       4.098  -2.009  -3.989  0.00  0.00    +0.253 C 
ATOM      7  C   UNL     1       4.062  -1.431  -2.586  0.00  0.00    +0.115 C 
ATOM      8  C   UNL     1       2.741  -1.150  -2.331  0.00  0.00    +0.025 A 
ATOM      9  C   UNL     1       2.044  -0.689  -1.191  0.00  0.00    +0.015 A 
ATOM     10  N   UNL     1       5.181  -1.165  -1.907  0.00  0.00    -0.171 NA
ATOM     11  N   UNL     1       6.227  -0.906  -2.632  0.00  0.00    -0.247 N 
ATOM     12  C   UNL     1       6.168  -0.843  -3.984  0.00  0.00    +0.227 C 
ATOM     13  N   UNL     1       5.172  -1.315  -4.698  0.00  0.00    -0.220 NA
ATOM     14  N   UNL     1       7.220  -0.250  -4.652  0.00  0.00    -0.206 N 
ATOM     15  H   UNL     1       7.972   0.107  -4.154  0.00  0.00    +0.177 HD
ATOM     16  H   UNL     1       7.077  -0.752  -2.191  0.00  0.00    +0.192 HD
ATOM     17  H   UNL     1       2.514  -1.927  -5.465  0.00  0.00    +0.162 HD
ENDROOT
BRANCH   1  19
ATOM     18  C   UNL     1      -0.019   1.526   0.010  0.00  0.00    +0.009 C 
ATOM     19  C   UNL     1       0.002  -0.004   0.002  0.00  0.00    +0.032 C 
ENDBRANCH   1  19
BRANCH  14  20
ATOM     20  N   UNL     1       7.202  -0.162  -6.050  0.00  0.00    -0.187 NA
ATOM     21  C   UNL     1       8.191   0.396  -6.679  0.00  0.00    +0.142 C 
BRANCH  21  22
ATOM     22  C   UNL     1       8.172   0.488  -8.150  0.00  0.00    +0.041 A 
ATOM     23  C   UNL     1       9.238   1.083  -8.830  0.00  0.00    +0.033 A 
ATOM     24  C   UNL     1       9.216   1.167 -10.207  0.00  0.00    +0.045 A 
ATOM     25  C   UNL     1       8.141   0.663 -10.921  0.00  0.00    +0.069 A 
ATOM     26  C   UNL     1       7.077   0.071 -10.258  0.00  0.00    +0.163 A 
ATOM     27  C   UNL     1       7.088  -0.026  -8.872  0.00  0.00    +0.167 A 
ATOM     28 CL   UNL     1      10.542   1.907 -11.049  0.00  0.00    -0.083 Cl
BRANCH  27  29
ATOM     29  O   UNL     1       6.049  -0.612  -8.220  0.00  0.00    -0.503 OA
ATOM     30  H   UNL     1       5.342   0.001  -7.977  0.00  0.00    +0.292 HD
ENDBRANCH  27  29
BRANCH  26  31
ATOM     31  O   UNL     1       6.024  -0.420 -10.966  0.00  0.00    -0.491 OA
ATOM     32  C   UNL     1       6.082  -0.292 -12.388  0.00  0.00    +0.277 C 
ENDBRANCH  26  31
ENDBRANCH  21  22
ENDBRANCH  14  20
TORSDOF 5
