REMARK  Name = ZINC05795403
REMARK  8 active torsions:
REMARK  status: ('A' for Active; 'I' for Inactive)
REMARK    1  A    between atoms: C_1  and  C_2
REMARK    2  A    between atoms: C_5  and  C_9
REMARK    3  A    between atoms: C_12  and  C_14
REMARK    4  A    between atoms: C_16  and  C_24
REMARK    5  A    between atoms: C_17  and  C_23
REMARK    6  A    between atoms: N_18  and  C_22
REMARK    7  A    between atoms: C_24  and  O_26
REMARK    8  A    between atoms: O_26  and  C_27
REMARK                            x       y       z     vdW  Elec       q    Type
REMARK                         _______ _______ _______ _____ _____    ______ ____
ROOT
ATOM      1  C   UNL     1      -1.426   4.352   0.088  0.00  0.00    +0.179 C 
ATOM      2  C   UNL     1      -1.345   4.802   1.533  0.00  0.00    +0.081 C 
ATOM      3  C   UNL     1      -1.136   6.115   1.771  0.00  0.00    +0.024 C 
ATOM      4  N   UNL     1      -1.002   7.005   0.745  0.00  0.00    -0.262 N 
ATOM      5  C   UNL     1      -1.065   6.663  -0.548  0.00  0.00    +0.307 C 
ATOM      6  O   UNL     1      -0.933   7.527  -1.392  0.00  0.00    -0.252 OA
ATOM      7  N   UNL     1      -1.268   5.391  -0.944  0.00  0.00    -0.285 N 
ATOM      8  C   UNL     1      -0.777   8.414   1.077  0.00  0.00    +0.139 C 
ATOM      9  C   UNL     1      -1.050   6.605   3.194  0.00  0.00    +0.061 C 
ATOM     10  H   UNL     1      -1.309   5.165  -1.886  0.00  0.00    +0.151 HD
ENDROOT
BRANCH   1  14
ATOM     11  C   UNL     1       1.591   2.392  -0.550  0.00  0.00    +0.135 A 
ATOM     12  C   UNL     1       0.706   1.379  -0.350  0.00  0.00    +0.050 A 
ATOM     13  C   UNL     1      -0.543   1.976  -0.090  0.00  0.00    +0.047 A 
ATOM     14  C   UNL     1      -0.360   3.311  -0.134  0.00  0.00    +0.131 A 
ATOM     15  O   UNL     1       0.930   3.558  -0.416  0.00  0.00    -0.457 OA
BRANCH  11  20
ATOM     16  C   UNL     1       7.186   1.803  -1.759  0.00  0.00    +0.045 C 
ATOM     17  C   UNL     1       5.721   1.957  -1.442  0.00  0.00    -0.032 A 
ATOM     18  C   UNL     1       5.169   3.221  -1.332  0.00  0.00    +0.005 A 
ATOM     19  C   UNL     1       3.829   3.369  -1.043  0.00  0.00    +0.012 A 
ATOM     20  C   UNL     1       3.028   2.240  -0.860  0.00  0.00    +0.019 A 
ATOM     21  C   UNL     1       3.591   0.968  -0.966  0.00  0.00    +0.031 A 
ATOM     22  C   UNL     1       4.933   0.833  -1.262  0.00  0.00    +0.045 A 
ATOM     23 CL   UNL     1       5.635  -0.749  -1.402  0.00  0.00    -0.083 Cl
ENDBRANCH  11  20
ENDBRANCH   1  14
BRANCH   2  24
ATOM     24  C   UNL     1      -1.484   3.878   2.595  0.00  0.00    +0.339 C 
ATOM     25  O   UNL     1      -1.308   4.241   3.743  0.00  0.00    -0.245 OA
BRANCH  24  26
ATOM     26  O   UNL     1      -1.812   2.595   2.335  0.00  0.00    -0.465 OA
ATOM     27  C   UNL     1      -1.935   1.718   3.456  0.00  0.00    +0.280 C 
ENDBRANCH  24  26
ENDBRANCH   2  24
TORSDOF 4
