REMARK  Name = ZINC01464507
REMARK  6 active torsions:
REMARK  status: ('A' for Active; 'I' for Inactive)
REMARK    1  A    between atoms: C_1  and  C_2
REMARK    2  A    between atoms: C_5  and  C_8
REMARK    3  A    between atoms: C_10  and  C_22
REMARK    4  A    between atoms: C_12  and  C_17
REMARK    5  A    between atoms: C_12  and  O_21
REMARK    6  A    between atoms: C_22  and  C_24
REMARK                            x       y       z     vdW  Elec       q    Type
REMARK                         _______ _______ _______ _____ _____    ______ ____
ROOT
ATOM      1  C   UNL     1       0.077  -4.020   0.220  0.00  0.00    +0.120 C 
ATOM      2  C   UNL     1       1.505  -4.511  -0.041  0.00  0.00    +0.144 C 
ATOM      3  C   UNL     1       2.310  -4.379   1.256  0.00  0.00    +0.243 C 
ATOM      4  N   UNL     1       1.622  -5.104   2.325  0.00  0.00    -0.264 N 
ATOM      5  C   UNL     1       0.289  -5.253   2.321  0.00  0.00    +0.302 C 
ATOM      6  O   UNL     1      -0.234  -5.855   3.240  0.00  0.00    -0.253 OA
ATOM      7  N   UNL     1      -0.491  -4.764   1.344  0.00  0.00    -0.292 N 
ATOM      8  H   UNL     1       2.140  -5.485   3.051  0.00  0.00    +0.153 HD
ATOM      9  H   UNL     1      -1.450  -4.907   1.384  0.00  0.00    +0.151 HD
ENDROOT
BRANCH   1  14
ATOM     10  C   UNL     1       0.173   1.617   1.489  0.00  0.00    +0.044 C 
ATOM     11  C   UNL     1       0.148   0.147   1.158  0.00  0.00    -0.050 A 
ATOM     12  C   UNL     1       0.186  -0.265  -0.161  0.00  0.00    +0.004 A 
ATOM     13  C   UNL     1       0.164  -1.614  -0.465  0.00  0.00    +0.006 A 
ATOM     14  C   UNL     1       0.103  -2.550   0.551  0.00  0.00    -0.026 A 
ATOM     15  C   UNL     1       0.066  -2.138   1.869  0.00  0.00    +0.006 A 
ATOM     16  C   UNL     1       0.093  -0.789   2.173  0.00  0.00    +0.004 A 
ENDBRANCH   1  14
BRANCH   3  17
ATOM     17  C   UNL     1       3.707  -4.970   1.054  0.00  0.00    +0.436 C 
ATOM     18  F   UNL     1       4.297  -4.396  -0.077  0.00  0.00    -0.166 F 
ATOM     19  F   UNL     1       4.495  -4.702   2.178  0.00  0.00    -0.166 F 
ATOM     20  F   UNL     1       3.605  -6.354   0.875  0.00  0.00    -0.166 F 
ENDBRANCH   3  17
BRANCH   3  21
ATOM     21  O   UNL     1       2.421  -2.999   1.610  0.00  0.00    -0.364 OA
ATOM     22  H   UNL     1       2.920  -2.841   2.424  0.00  0.00    +0.212 HD
ENDBRANCH   3  21
BRANCH   2  23
ATOM     23  C   UNL     1       1.472  -5.954  -0.475  0.00  0.00    +0.173 C 
ATOM     24  O   UNL     1       1.220  -6.824   0.331  0.00  0.00    -0.292 OA
BRANCH  23  25
ATOM     25  C   UNL     1       1.745  -6.306  -1.876  0.00  0.00    +0.018 A 
ATOM     26  C   UNL     1       1.935  -5.299  -2.829  0.00  0.00    +0.014 A 
ATOM     27  C   UNL     1       2.191  -5.636  -4.141  0.00  0.00    +0.039 A 
ATOM     28  C   UNL     1       2.260  -6.970  -4.517  0.00  0.00    +0.123 A 
ATOM     29  C   UNL     1       2.072  -7.972  -3.576  0.00  0.00    +0.039 A 
ATOM     30  C   UNL     1       1.822  -7.649  -2.261  0.00  0.00    +0.014 A 
ATOM     31  F   UNL     1       2.510  -7.293  -5.804  0.00  0.00    -0.205 F 
ENDBRANCH  23  25
ENDBRANCH   2  23
TORSDOF 5
