REMARK  Name = ZINC65298282
REMARK  8 active torsions:
REMARK  status: ('A' for Active; 'I' for Inactive)
REMARK    1  A    between atoms: C_1  and  C_2
REMARK    2  A    between atoms: C_2  and  C_3
REMARK    3  A    between atoms: C_2  and  N_4
REMARK    4  A    between atoms: C_11  and  C_25
REMARK    5  A    between atoms: C_14  and  C_16
REMARK    6  A    between atoms: C_29  and  O_32
REMARK    7  A    between atoms: C_30  and  O_31
REMARK    8  A    between atoms: O_32  and  C_33
REMARK                            x       y       z     vdW  Elec       q    Type
REMARK                         _______ _______ _______ _____ _____    ______ ____
ROOT
ATOM      1  N   UNL     1      -1.376  -0.512   0.012  0.00  0.00    +0.381 N 
ATOM      2  C   UNL     1      -1.354  -1.980   0.014  0.00  0.00    -0.075 C 
ATOM      3  C   UNL     1      -2.785  -2.515   0.104  0.00  0.00    +0.027 C 
ATOM      4  C   UNL     1      -3.586  -2.018  -1.104  0.00  0.00    +0.109 C 
ATOM      5  C   UNL     1      -3.543  -0.487  -1.132  0.00  0.00    +0.027 C 
ATOM      6  C   UNL     1      -2.085  -0.025  -1.177  0.00  0.00    -0.075 C 
ATOM      7  N   UNL     1      -4.981  -2.461  -0.974  0.00  0.00    -0.286 NA
ATOM      8  C   UNL     1      -5.067  -3.922  -1.134  0.00  0.00    +0.095 C 
ATOM      9  C   UNL     1      -4.722  -4.265  -2.587  0.00  0.00    +0.079 C 
ATOM     10  C   UNL     1      -3.475  -3.531  -2.992  0.00  0.00    +0.047 C 
ATOM     11  N   UNL     1      -2.996  -2.545  -2.330  0.00  0.00    -0.266 NA
ATOM     12  H   UNL     1      -5.371  -2.170  -0.090  0.00  0.00    +0.125 HD
ATOM     13  H   UNL     1      -1.848  -0.184   0.842  0.00  0.00    -0.081 HD
ENDROOT
BRANCH  10  14
ATOM     14  C   UNL     1      -2.768  -3.967  -4.210  0.00  0.00    -0.000 A 
ATOM     15  C   UNL     1      -3.262  -5.036  -4.962  0.00  0.00    +0.013 A 
ATOM     16  C   UNL     1      -2.601  -5.442  -6.101  0.00  0.00    +0.050 A 
ATOM     17  C   UNL     1      -1.442  -4.793  -6.504  0.00  0.00    +0.166 A 
ATOM     18  C   UNL     1      -0.942  -3.725  -5.758  0.00  0.00    +0.167 A 
ATOM     19  C   UNL     1      -1.605  -3.309  -4.619  0.00  0.00    +0.059 A 
ATOM     20  O   UNL     1       0.194  -3.266  -6.360  0.00  0.00    -0.453 OA
ATOM     21  C   UNL     1       0.609  -4.319  -7.250  0.00  0.00    +0.466 C 
ATOM     22  O   UNL     1      -0.618  -4.999  -7.572  0.00  0.00    -0.453 OA
ENDBRANCH  10  14
BRANCH   8  23
ATOM     23  C   UNL     1      -6.466  -4.387  -0.819  0.00  0.00    +0.015 A 
ATOM     24  C   UNL     1      -7.531  -3.516  -0.959  0.00  0.00    +0.009 A 
ATOM     25  C   UNL     1      -8.815  -3.939  -0.671  0.00  0.00    +0.004 A 
ATOM     26  C   UNL     1      -9.040  -5.234  -0.242  0.00  0.00    +0.049 A 
ATOM     27  C   UNL     1      -7.978  -6.111  -0.100  0.00  0.00    +0.162 A 
ATOM     28  C   UNL     1      -6.685  -5.687  -0.396  0.00  0.00    +0.163 A 
BRANCH  28  29
ATOM     29  O   UNL     1      -5.639  -6.546  -0.263  0.00  0.00    -0.503 OA
ATOM     30  H   UNL     1      -5.233  -6.538   0.615  0.00  0.00    +0.292 HD
ENDBRANCH  28  29
BRANCH  27  31
ATOM     31  O   UNL     1      -8.197  -7.385   0.323  0.00  0.00    -0.491 OA
ATOM     32  C   UNL     1      -9.550  -7.752   0.602  0.00  0.00    +0.277 C 
ENDBRANCH  27  31
ENDBRANCH   8  23
BRANCH   1  34
ATOM     33  C   UNL     1      -0.019   1.526   0.010  0.00  0.00    -0.014 C 
ATOM     34  C   UNL     1       0.002  -0.004   0.002  0.00  0.00    -0.075 C 
ATOM     35  C   UNL     1       0.742  -0.511   1.242  0.00  0.00    -0.014 C 
ENDBRANCH   1  34
TORSDOF 5
