REMARK  Name = ZINC66794780
REMARK  3 active torsions:
REMARK  status: ('A' for Active; 'I' for Inactive)
REMARK    1  A    between atoms: C_6  and  C_7
REMARK    2  A    between atoms: N_10  and  C_14
REMARK    3  A    between atoms: C_14  and  N_15
REMARK                            x       y       z     vdW  Elec       q    Type
REMARK                         _______ _______ _______ _____ _____    ______ ____
ROOT
ATOM      1  C   UNL     1      -1.293  -0.774   0.010  0.00  0.00    +0.162 C 
ATOM      2  C   UNL     1      -1.617  -1.245  -1.410  0.00  0.00    +0.122 C 
ATOM      3  N   UNL     1      -2.840  -2.061  -1.383  0.00  0.00    -0.281 NA
ATOM      4  C   UNL     1      -2.674  -3.220  -0.494  0.00  0.00    +0.114 C 
ATOM      5  C   UNL     1      -2.340  -2.729   0.917  0.00  0.00    +0.176 C 
ATOM      6  O   UNL     1      -1.167  -1.912   0.868  0.00  0.00    -0.369 OA
ENDROOT
BRANCH   1  12
ATOM      7  C   UNL     1      -0.017   1.378   0.010  0.00  0.00    +0.009 A 
ATOM      8  C   UNL     1       1.170   2.087   0.002  0.00  0.00    +0.041 A 
ATOM      9  C   UNL     1       2.379   1.413  -0.013  0.00  0.00    +0.158 A 
ATOM     10  C   UNL     1       2.397   0.026  -0.021  0.00  0.00    +0.159 A 
ATOM     11  C   UNL     1       1.208  -0.680  -0.013  0.00  0.00    +0.047 A 
ATOM     12  C   UNL     1       0.002  -0.004   0.002  0.00  0.00    -0.015 A 
ATOM     13  F   UNL     1       3.576  -0.634  -0.036  0.00  0.00    -0.202 F 
ATOM     14  F   UNL     1       3.539   2.105  -0.021  0.00  0.00    -0.202 F 
ENDBRANCH   1  12
BRANCH   3  15
ATOM     15  C   UNL     1      -3.218  -2.487  -2.738  0.00  0.00    +0.205 C 
BRANCH  15  16
ATOM     16  N   UNL     1      -4.658  -2.751  -2.782  0.00  0.00    -0.211 N 
ATOM     17  C   UNL     1      -5.219  -3.950  -2.517  0.00  0.00    +0.248 C 
ATOM     18  O   UNL     1      -4.651  -4.976  -2.209  0.00  0.00    -0.273 OA
ATOM     19  C   UNL     1      -6.702  -3.742  -2.686  0.00  0.00    +0.113 C 
ATOM     20  C   UNL     1      -7.453  -4.044  -1.382  0.00  0.00    +0.035 C 
ATOM     21  C   UNL     1      -8.793  -4.665  -1.856  0.00  0.00    +0.003 C 
ATOM     22  C   UNL     1      -8.365  -5.512  -3.081  0.00  0.00    +0.003 C 
ATOM     23  C   UNL     1      -7.273  -4.662  -3.768  0.00  0.00    +0.035 C 
ATOM     24  N   UNL     1      -6.834  -2.332  -3.059  0.00  0.00    -0.285 N 
ATOM     25  C   UNL     1      -5.583  -1.831  -3.085  0.00  0.00    +0.310 C 
ATOM     26  O   UNL     1      -5.324  -0.675  -3.356  0.00  0.00    -0.252 OA
ATOM     27  H   UNL     1      -7.657  -1.854  -3.246  0.00  0.00    +0.151 HD
ENDBRANCH  15  16
ENDBRANCH   3  15
TORSDOF 3
