REMARK  Name = ZINC39678821
REMARK  9 active torsions:
REMARK  status: ('A' for Active; 'I' for Inactive)
REMARK    1  A    between atoms: C_1  and  C_2
REMARK    2  A    between atoms: C_2  and  C_3
REMARK    3  A    between atoms: C_2  and  O_4
REMARK    4  A    between atoms: O_4  and  C_5
REMARK    5  A    between atoms: C_5  and  C_7
REMARK    6  A    between atoms: C_7  and  N_8
REMARK    7  A    between atoms: C_9  and  C_11
REMARK    8  A    between atoms: C_22  and  C_24
REMARK    9  A    between atoms: C_27  and  C_29
REMARK                            x       y       z     vdW  Elec       q    Type
REMARK                         _______ _______ _______ _____ _____    ______ ____
ROOT
ATOM      1  C   UNL     1      -4.032  -5.571  -2.210  0.00  0.00    +0.100 C 
ATOM      2  C   UNL     1      -3.045  -6.545  -1.528  0.00  0.00    +0.121 C 
ATOM      3  N   UNL     1      -3.887  -7.352  -0.613  0.00  0.00    -0.294 N 
ATOM      4  C   UNL     1      -5.135  -7.593  -1.377  0.00  0.00    +0.115 C 
ATOM      5  C   UNL     1      -5.402  -6.264  -2.111  0.00  0.00    -0.004 C 
ATOM      6  C   UNL     1      -6.373  -5.404  -1.308  0.00  0.00    -0.010 C 
ATOM      7  C   UNL     1      -7.743  -6.088  -1.272  0.00  0.00    -0.082 C 
ATOM      8  N   UNL     1      -8.237  -6.269  -2.643  0.00  0.00    +0.379 N 
ATOM      9  C   UNL     1      -7.346  -7.172  -3.381  0.00  0.00    -0.082 C 
ATOM     10  C   UNL     1      -5.959  -6.535  -3.506  0.00  0.00    -0.010 C 
ATOM     11  C   UNL     1      -3.586  -7.772   0.632  0.00  0.00    +0.282 C 
ATOM     12  O   UNL     1      -4.390  -8.434   1.262  0.00  0.00    -0.267 OA
ATOM     13  H   UNL     1      -9.165  -6.663  -2.615  0.00  0.00    -0.086 HD
ATOM     14  H   UNL     1      -8.268  -5.374  -3.108  0.00  0.00    -0.086 HD
ENDROOT
BRANCH  11  15
ATOM     15  C   UNL     1      -2.291  -7.432   1.226  0.00  0.00    +0.190 A 
ATOM     16  C   UNL     1      -1.855  -7.800   2.481  0.00  0.00    +0.055 A 
ATOM     17  C   UNL     1      -0.572  -7.265   2.635  0.00  0.00    +0.051 A 
ATOM     18  C   UNL     1      -0.274  -6.597   1.482  0.00  0.00    +0.139 A 
ATOM     19  O   UNL     1      -1.314  -6.709   0.638  0.00  0.00    -0.450 OA
BRANCH  18  20
ATOM     20  C   UNL     1       0.985  -5.877   1.205  0.00  0.00    +0.052 A 
ATOM     21  C   UNL     1       1.487  -4.961   2.132  0.00  0.00    +0.014 A 
ATOM     22  C   UNL     1       2.663  -4.292   1.867  0.00  0.00    +0.001 A 
ATOM     23  C   UNL     1       3.347  -4.524   0.687  0.00  0.00    +0.003 A 
ATOM     24  C   UNL     1       2.857  -5.429  -0.237  0.00  0.00    +0.039 A 
ATOM     25  C   UNL     1       1.682  -6.112   0.016  0.00  0.00    +0.134 A 
ATOM     26  F   UNL     1       1.207  -7.000  -0.884  0.00  0.00    -0.205 F 
ENDBRANCH  18  20
ENDBRANCH  11  15
BRANCH   1  28
ATOM     27  N   UNL     1      -4.357  -3.120  -2.145  0.00  0.00    -0.305 N 
ATOM     28  C   UNL     1      -4.058  -4.253  -1.480  0.00  0.00    +0.219 C 
ATOM     29  O   UNL     1      -3.809  -4.212  -0.293  0.00  0.00    -0.275 OA
ATOM     30  H   UNL     1      -4.556  -3.153  -3.094  0.00  0.00    +0.149 HD
BRANCH  27  31
ATOM     31  C   UNL     1      -4.381  -1.839  -1.436  0.00  0.00    +0.224 C 
BRANCH  31  32
ATOM     32  C   UNL     1      -4.740  -0.737  -2.400  0.00  0.00    +0.325 C 
ATOM     33  O   UNL     1      -4.953  -0.996  -3.561  0.00  0.00    -0.249 OA
BRANCH  32  34
ATOM     34  O   UNL     1      -4.823   0.531  -1.969  0.00  0.00    -0.461 OA
BRANCH  34  36
ATOM     35  C   UNL     1      -5.922   2.665  -2.252  0.00  0.00    +0.052 C 
ATOM     36  C   UNL     1      -5.167   1.524  -2.937  0.00  0.00    +0.170 C 
ATOM     37  C   UNL     1      -3.892   2.071  -3.583  0.00  0.00    +0.052 C 
ENDBRANCH  34  36
ENDBRANCH  32  34
ENDBRANCH  31  32
ENDBRANCH  27  31
ENDBRANCH   1  28
TORSDOF 7
