REMARK  Name = ZINC01389763
REMARK  9 active torsions:
REMARK  status: ('A' for Active; 'I' for Inactive)
REMARK    1  A    between atoms: C_1  and  O_2
REMARK    2  A    between atoms: O_2  and  C_3
REMARK    3  A    between atoms: C_7  and  C_9
REMARK    4  A    between atoms: C_10  and  C_15
REMARK    5  A    between atoms: N_16  and  N_17
REMARK    6  A    between atoms: C_18  and  C_20
REMARK    7  A    between atoms: C_21  and  O_25
REMARK    8  A    between atoms: O_25  and  C_26
REMARK    9  A    between atoms: C_26  and  C_27
REMARK                            x       y       z     vdW  Elec       q    Type
REMARK                         _______ _______ _______ _____ _____    ______ ____
ROOT
ATOM      1  N   UNL     1      -1.892   2.679   2.677  0.00  0.00    -0.202 N 
ATOM      2  C   UNL     1      -0.923   3.609   2.794  0.00  0.00    +0.273 C 
ATOM      3  O   UNL     1       0.101   3.506   2.143  0.00  0.00    -0.268 OA
ATOM      4  H   UNL     1      -2.708   2.762   3.195  0.00  0.00    +0.178 HD
ENDROOT
BRANCH   2   5
ATOM      5  C   UNL     1      -1.097   4.706   3.674  0.00  0.00    +0.117 A 
ATOM      6  C   UNL     1      -0.230   5.763   3.939  0.00  0.00    +0.140 A 
ATOM      7  C   UNL     1      -0.658   6.704   4.851  0.00  0.00    +0.054 A 
ATOM      8  C   UNL     1      -1.876   6.558   5.431  0.00  0.00    +0.049 A 
ATOM      9  S   UNL     1      -2.485   5.097   4.724  0.00  0.00    -0.088 S 
BRANCH   6  10
ATOM     10  O   UNL     1       0.979   5.863   3.329  0.00  0.00    -0.486 OA
BRANCH  10  11
ATOM     11  C   UNL     1       1.790   6.987   3.675  0.00  0.00    +0.264 C 
BRANCH  11  12
ATOM     12  C   UNL     1       3.084   6.930   2.905  0.00  0.00    -0.010 A 
ATOM     13  C   UNL     1       4.178   6.276   3.441  0.00  0.00    +0.008 A 
ATOM     14  C   UNL     1       5.363   6.218   2.732  0.00  0.00    +0.020 A 
ATOM     15  C   UNL     1       5.458   6.824   1.492  0.00  0.00    +0.041 A 
ATOM     16  C   UNL     1       4.365   7.482   0.959  0.00  0.00    +0.020 A 
ATOM     17  C   UNL     1       3.178   7.535   1.666  0.00  0.00    +0.008 A 
ATOM     18 CL   UNL     1       6.949   6.756   0.605  0.00  0.00    -0.084 Cl
ENDBRANCH  11  12
ENDBRANCH  10  11
ENDBRANCH   6  10
ENDBRANCH   2   5
BRANCH   1  20
ATOM     19  C   UNL     1      -2.654   0.700   1.695  0.00  0.00    +0.142 C 
ATOM     20  N   UNL     1      -1.721   1.595   1.807  0.00  0.00    -0.187 NA
BRANCH  19  22
ATOM     21  C   UNL     1      -1.269  -0.767   0.013  0.00  0.00    +0.101 A 
ATOM     22  C   UNL     1      -2.474  -0.442   0.779  0.00  0.00    +0.040 A 
ATOM     23  C   UNL     1      -3.399  -1.404   0.480  0.00  0.00    +0.115 A 
ATOM     24  N   UNL     1      -2.841  -2.263  -0.393  0.00  0.00    -0.284 N 
ATOM     25  H   UNL     1      -3.292  -3.067  -0.781  0.00  0.00    +0.188 HD
ATOM     26  N   UNL     1      -1.533  -1.856  -0.676  0.00  0.00    -0.173 NA
BRANCH  21  31
ATOM     27  C   UNL     1       1.844   0.969  -1.191  0.00  0.00    +0.121 A 
ATOM     28  C   UNL     1       2.387   1.410   0.009  0.00  0.00    +0.045 A 
ATOM     29  C   UNL     1       1.743   1.143   1.203  0.00  0.00    +0.004 A 
ATOM     30  C   UNL     1       0.557   0.437   1.209  0.00  0.00    +0.010 A 
ATOM     31  C   UNL     1       0.005  -0.009   0.009  0.00  0.00    +0.006 A 
ATOM     32  C   UNL     1       0.654   0.260  -1.194  0.00  0.00    +0.055 A 
BRANCH  27  34
ATOM     33  C   UNL     1       3.702   1.970  -2.284  0.00  0.00    +0.277 C 
ATOM     34  O   UNL     1       2.480   1.235  -2.362  0.00  0.00    -0.495 OA
ENDBRANCH  27  34
ENDBRANCH  21  31
ENDBRANCH  19  22
ENDBRANCH   1  20
TORSDOF 8
