REMARK  Name = ZINC34859704
REMARK  9 active torsions:
REMARK  status: ('A' for Active; 'I' for Inactive)
REMARK    1  A    between atoms: C_1  and  C_2
REMARK    2  A    between atoms: C_7  and  N_12
REMARK    3  A    between atoms: C_9  and  C_11
REMARK    4  A    between atoms: C_13  and  C_15
REMARK    5  A    between atoms: C_23  and  C_36
REMARK    6  A    between atoms: N_29  and  C_30
REMARK    7  A    between atoms: N_38  and  C_39
REMARK    8  A    between atoms: C_42  and  O_45
REMARK    9  A    between atoms: O_45  and  C_46
REMARK                            x       y       z     vdW  Elec       q    Type
REMARK                         _______ _______ _______ _____ _____    ______ ____
ROOT
ATOM      1  C   UNL     1       2.057  -4.164   3.546  0.00  0.00    +0.199 C 
ATOM      2  C   UNL     1       3.417  -4.766   3.379  0.00  0.00    +0.127 C 
ATOM      3  C   UNL     1       3.501  -5.714   2.198  0.00  0.00    +0.009 C 
ATOM      4  C   UNL     1       4.751  -6.152   2.176  0.00  0.00    +0.004 C 
ATOM      5  C   UNL     1       5.419  -5.508   3.398  0.00  0.00    +0.155 C 
ATOM      6  O   UNL     1       4.706  -4.204   3.465  0.00  0.00    -0.358 OA
ATOM      7  C   UNL     1       4.780  -6.319   4.591  0.00  0.00    +0.123 C 
ATOM      8  C   UNL     1       3.428  -5.617   4.712  0.00  0.00    +0.128 C 
ATOM      9  C   UNL     1       2.096  -6.243   4.634  0.00  0.00    +0.224 C 
ATOM     10  O   UNL     1       1.795  -7.351   5.026  0.00  0.00    -0.275 OA
ATOM     11  N   UNL     1       1.259  -5.332   4.035  0.00  0.00    -0.283 N 
ENDROOT
BRANCH  11  12
ATOM     12  C   UNL     1      -0.192  -5.482   3.896  0.00  0.00    +0.077 C 
ATOM     13  C   UNL     1      -0.828  -5.599   5.282  0.00  0.00    +0.022 C 
ATOM     14  C   UNL     1      -2.343  -5.755   5.136  0.00  0.00    +0.002 C 
ATOM     15  C   UNL     1      -2.650  -7.016   4.326  0.00  0.00    +0.000 C 
ATOM     16  C   UNL     1      -2.014  -6.899   2.940  0.00  0.00    +0.002 C 
ATOM     17  C   UNL     1      -0.498  -6.743   3.085  0.00  0.00    +0.022 C 
ENDBRANCH  11  12
BRANCH   1  19
ATOM     18  N   UNL     1       1.887  -2.446   1.775  0.00  0.00    -0.311 N 
ATOM     19  C   UNL     1       1.524  -3.662   2.229  0.00  0.00    +0.237 C 
ATOM     20  O   UNL     1       0.769  -4.352   1.577  0.00  0.00    -0.274 OA
ATOM     21  H   UNL     1       2.491  -1.893   2.296  0.00  0.00    +0.149 HD
BRANCH  18  27
ATOM     22  C   UNL     1       0.862   1.612  -0.857  0.00  0.00    +0.008 C 
ATOM     23  C   UNL     1       0.846   0.082  -0.850  0.00  0.00    -0.009 C 
ATOM     24  C   UNL     1       1.723  -0.442  -1.988  0.00  0.00    +0.003 C 
ATOM     25  C   UNL     1       1.707  -1.972  -1.981  0.00  0.00    +0.002 C 
ATOM     26  C   UNL     1       2.247  -2.482  -0.644  0.00  0.00    +0.022 C 
ATOM     27  C   UNL     1       1.369  -1.957   0.494  0.00  0.00    +0.076 C 
ATOM     28  C   UNL     1       1.386  -0.427   0.487  0.00  0.00    +0.009 C 
ATOM     29  C   UNL     1       0.508   0.097   1.625  0.00  0.00    +0.009 C 
ENDBRANCH  18  27
ENDBRANCH   1  19
BRANCH   7  30
ATOM     30  C   UNL     1       4.625  -7.775   4.234  0.00  0.00    +0.224 C 
ATOM     31  O   UNL     1       3.522  -8.279   4.209  0.00  0.00    -0.275 OA
ATOM     32  N   UNL     1       5.711  -8.517   3.943  0.00  0.00    -0.285 N 
ATOM     33  H   UNL     1       6.584  -8.098   3.888  0.00  0.00    +0.155 HD
BRANCH  32  34
ATOM     34  C   UNL     1       5.580  -9.894   3.720  0.00  0.00    +0.034 A 
ATOM     35  C   UNL     1       6.413 -10.533   2.812  0.00  0.00    +0.027 A 
ATOM     36  C   UNL     1       6.284 -11.890   2.592  0.00  0.00    +0.047 A 
ATOM     37  C   UNL     1       5.320 -12.615   3.278  0.00  0.00    +0.120 A 
ATOM     38  C   UNL     1       4.487 -11.977   4.185  0.00  0.00    +0.047 A 
ATOM     39  C   UNL     1       4.619 -10.621   4.410  0.00  0.00    +0.027 A 
BRANCH  37  40
ATOM     40  O   UNL     1       5.192 -13.951   3.061  0.00  0.00    -0.495 OA
ATOM     41  C   UNL     1       4.180 -14.635   3.802  0.00  0.00    +0.277 C 
ENDBRANCH  37  40
ENDBRANCH  32  34
ENDBRANCH   7  30
TORSDOF 6
