REMARK  Name = ZINC20477351
REMARK  2 active torsions:
REMARK  status: ('A' for Active; 'I' for Inactive)
REMARK    1  A    between atoms: C_6  and  N_7
REMARK    2  A    between atoms: N_7  and  C_8
REMARK                            x       y       z     vdW  Elec       q    Type
REMARK                         _______ _______ _______ _____ _____    ______ ____
ROOT
ATOM      1  C   UNL     1      -1.176  -2.185   0.002  0.00  0.00    +0.190 C 
ATOM      2  C   UNL     1      -2.475  -2.731  -0.543  0.00  0.00    +0.004 A 
ATOM      3  C   UNL     1      -3.104  -2.608  -1.762  0.00  0.00    +0.027 A 
ATOM      4  C   UNL     1      -4.319  -3.237  -1.979  0.00  0.00    +0.041 A 
ATOM      5  C   UNL     1      -4.895  -3.987  -0.968  0.00  0.00    +0.022 A 
ATOM      6  C   UNL     1      -4.266  -4.111   0.253  0.00  0.00    +0.025 A 
ATOM      7  C   UNL     1      -3.044  -3.481   0.478  0.00  0.00    +0.039 A 
ATOM      8  N   UNL     1      -2.225  -3.455   1.608  0.00  0.00    -0.283 N 
ATOM      9  C   UNL     1      -1.112  -2.723   1.416  0.00  0.00    +0.242 C 
ATOM     10  O   UNL     1      -0.226  -2.528   2.221  0.00  0.00    -0.273 OA
ATOM     11 CL   UNL     1      -5.116  -3.085  -3.513  0.00  0.00    -0.084 Cl
ATOM     12  H   UNL     1      -2.433  -3.914   2.437  0.00  0.00    +0.155 HD
ENDROOT
BRANCH   1  13
ATOM     13  N   UNL     1      -1.197  -0.720   0.010  0.00  0.00    -0.329 N 
ATOM     14  H   UNL     1      -2.044  -0.248   0.021  0.00  0.00    +0.147 HD
BRANCH  13  20
ATOM     15  C   UNL     1      -0.017   1.385   0.010  0.00  0.00    +0.024 A 
ATOM     16  C   UNL     1       1.171   2.090   0.002  0.00  0.00    +0.016 A 
ATOM     17  C   UNL     1       2.378   1.415  -0.013  0.00  0.00    +0.013 A 
ATOM     18  C   UNL     1       2.400   0.032  -0.022  0.00  0.00    +0.016 A 
ATOM     19  C   UNL     1       1.216  -0.679  -0.014  0.00  0.00    +0.024 A 
ATOM     20  C   UNL     1       0.002  -0.004   0.002  0.00  0.00    +0.028 A 
ATOM     21  I   UNL     1       4.176   2.489  -0.026  0.00  0.00    -0.044 I 
ENDBRANCH  13  20
ENDBRANCH   1  13
TORSDOF 2
