REMARK  Name = ZINC15236792
REMARK  11 active torsions:
REMARK  status: ('A' for Active; 'I' for Inactive)
REMARK    1  A    between atoms: C_1  and  C_2
REMARK    2  A    between atoms: C_5  and  C_33
REMARK    3  A    between atoms: C_6  and  O_9
REMARK    4  A    between atoms: C_7  and  C_8
REMARK    5  A    between atoms: O_9  and  C_10
REMARK    6  A    between atoms: C_10  and  C_11
REMARK    7  A    between atoms: C_11  and  C_13
REMARK    8  A    between atoms: C_11  and  O_32
REMARK    9  A    between atoms: C_13  and  N_14
REMARK   10  A    between atoms: C_17  and  C_21
REMARK   11  A    between atoms: C_17  and  C_22
REMARK                            x       y       z     vdW  Elec       q    Type
REMARK                         _______ _______ _______ _____ _____    ______ ____
ROOT
ATOM      1  N   UNL     1       1.809   8.691   1.786  0.00  0.00    -0.221 N 
ATOM      2  C   UNL     1       2.272   7.994   0.729  0.00  0.00    +0.251 C 
ATOM      3  O   UNL     1       3.430   7.837   0.406  0.00  0.00    -0.272 OA
ATOM      4  C   UNL     1       1.044   7.447   0.029  0.00  0.00    +0.135 C 
ATOM      5  N   UNL     1      -0.074   7.946   0.849  0.00  0.00    -0.281 N 
ATOM      6  C   UNL     1       0.473   8.660   1.850  0.00  0.00    +0.310 C 
ATOM      7  O   UNL     1      -0.175   9.216   2.715  0.00  0.00    -0.252 OA
ATOM      8  C   UNL     1       0.952   7.989  -1.399  0.00  0.00    +0.047 C 
ATOM      9  H   UNL     1      -1.019   7.790   0.697  0.00  0.00    +0.152 HD
ENDROOT
BRANCH   4  10
ATOM     10  C   UNL     1       1.064   5.940   0.022  0.00  0.00    -0.015 A 
ATOM     11  C   UNL     1       2.286   5.270   0.007  0.00  0.00    +0.007 A 
ATOM     12  C   UNL     1       2.340   3.910  -0.000  0.00  0.00    +0.009 A 
ATOM     13  C   UNL     1       1.147   3.167   0.008  0.00  0.00    -0.018 A 
ATOM     14  C   UNL     1       1.163   1.762   0.000  0.00  0.00    +0.008 A 
ATOM     15  C   UNL     1      -0.013   1.076   0.008  0.00  0.00    +0.001 A 
ATOM     16  C   UNL     1      -1.235   1.746   0.017  0.00  0.00    +0.001 A 
ATOM     17  C   UNL     1      -1.288   3.106   0.031  0.00  0.00    +0.008 A 
ATOM     18  C   UNL     1      -0.096   3.849   0.023  0.00  0.00    -0.018 A 
ATOM     19  C   UNL     1      -0.111   5.254   0.030  0.00  0.00    +0.014 A 
ENDBRANCH   4  10
BRANCH   1  20
ATOM     20  C   UNL     1       2.663   9.393   2.746  0.00  0.00    +0.152 C 
BRANCH  20  21
ATOM     21  C   UNL     1       2.896  10.828   2.268  0.00  0.00    +0.170 C 
BRANCH  21  22
ATOM     22  O   UNL     1       3.534  10.806   0.989  0.00  0.00    -0.387 OA
ATOM     23  H   UNL     1       4.393  10.361   0.986  0.00  0.00    +0.210 HD
ENDBRANCH  21  22
BRANCH  21  24
ATOM     24  C   UNL     1       3.788  11.562   3.271  0.00  0.00    +0.262 C 
BRANCH  24  25
ATOM     25  O   UNL     1       3.910  12.933   2.885  0.00  0.00    -0.489 OA
BRANCH  25  31
ATOM     26  C   UNL     1       4.257  15.958   6.700  0.00  0.00    +0.044 C 
ATOM     27  C   UNL     1       4.880  15.220   5.543  0.00  0.00    -0.044 A 
ATOM     28  C   UNL     1       6.232  15.353   5.287  0.00  0.00    +0.004 A 
ATOM     29  C   UNL     1       6.807  14.677   4.226  0.00  0.00    +0.007 A 
ATOM     30  C   UNL     1       6.031  13.866   3.421  0.00  0.00    -0.009 A 
ATOM     31  C   UNL     1       4.675  13.730   3.676  0.00  0.00    +0.127 A 
ATOM     32  C   UNL     1       4.099  14.414   4.738  0.00  0.00    -0.006 A 
ATOM     33  C   UNL     1       2.624  14.274   5.014  0.00  0.00    +0.048 C 
ATOM     34  C   UNL     1       6.659  13.130   2.265  0.00  0.00    +0.047 C 
ENDBRANCH  25  31
ENDBRANCH  24  25
ENDBRANCH  21  24
ENDBRANCH  20  21
ENDBRANCH   1  20
TORSDOF 7
