REMARK  Name = ZINC44201258
REMARK  2 active torsions:
REMARK  status: ('A' for Active; 'I' for Inactive)
REMARK    1  A    between atoms: C_5  and  C_7
REMARK    2  A    between atoms: C_8  and  C_9
REMARK                            x       y       z     vdW  Elec       q    Type
REMARK                         _______ _______ _______ _____ _____    ______ ____
ROOT
ATOM      1  C   UNL     1      -0.019   1.541   0.011  0.00  0.00    +0.038 C 
ATOM      2  C   UNL     1       1.474   1.937  -0.002  0.00  0.00    +0.160 C 
ATOM      3  O   UNL     1       2.163   0.795   0.553  0.00  0.00    -0.379 OA
ATOM      4  C   UNL     1       1.506  -0.359  -0.014  0.00  0.00    +0.167 C 
ATOM      5  C   UNL     1       0.002  -0.004   0.002  0.00  0.00    +0.040 C 
ENDROOT
BRANCH   5   6
ATOM      6  C   UNL     1      -0.655  -0.548   1.244  0.00  0.00    -0.014 C 
ATOM      7  C   UNL     1      -1.725  -1.336   1.141  0.00  0.00    +0.092 C 
BRANCH   7   8
ATOM      8  C   UNL     1      -2.365  -1.865   2.350  0.00  0.00    +0.379 C 
ATOM      9  O   UNL     1      -1.917  -1.583   3.454  0.00  0.00    -0.241 OA
ATOM     10  O   UNL     1      -3.348  -2.589   2.256  0.00  0.00    -0.241 OA
ENDBRANCH   7   8
ENDBRANCH   5   6
TORSDOF 2
