REMARK  Name = ZINC39686292
REMARK  7 active torsions:
REMARK  status: ('A' for Active; 'I' for Inactive)
REMARK    1  A    between atoms: C_1  and  C_2
REMARK    2  A    between atoms: C_2  and  C_3
REMARK    3  A    between atoms: C_2  and  C_4
REMARK    4  A    between atoms: C_4  and  C_5
REMARK    5  A    between atoms: C_10  and  N_13
REMARK    6  A    between atoms: C_14  and  C_16
REMARK    7  A    between atoms: C_27  and  C_29
REMARK                            x       y       z     vdW  Elec       q    Type
REMARK                         _______ _______ _______ _____ _____    ______ ____
ROOT
ATOM      1  C   UNL     1      -6.947  -6.556   2.850  0.00  0.00    +0.100 C 
ATOM      2  C   UNL     1      -6.073  -7.018   4.038  0.00  0.00    +0.121 C 
ATOM      3  N   UNL     1      -6.716  -8.266   4.512  0.00  0.00    -0.297 N 
ATOM      4  C   UNL     1      -7.132  -8.961   3.271  0.00  0.00    +0.115 C 
ATOM      5  C   UNL     1      -7.639  -7.834   2.349  0.00  0.00    -0.004 C 
ATOM      6  C   UNL     1      -7.243  -8.117   0.903  0.00  0.00    -0.010 C 
ATOM      7  C   UNL     1      -7.989  -9.359   0.408  0.00  0.00    -0.082 C 
ATOM      8  N   UNL     1      -9.437  -9.134   0.504  0.00  0.00    +0.379 N 
ATOM      9  C   UNL     1      -9.823  -8.954   1.909  0.00  0.00    -0.082 C 
ATOM     10  C   UNL     1      -9.154  -7.695   2.468  0.00  0.00    -0.010 C 
ATOM     11  C   UNL     1      -6.885  -8.677   5.785  0.00  0.00    +0.260 C 
ATOM     12  O   UNL     1      -6.569  -7.950   6.703  0.00  0.00    -0.271 OA
ATOM     13  H   UNL     1      -9.682  -8.307  -0.019  0.00  0.00    -0.086 HD
ATOM     14  H   UNL     1      -9.926  -9.929   0.121  0.00  0.00    -0.086 HD
ENDROOT
BRANCH  11  15
ATOM     15  C   UNL     1      -7.465 -10.039   6.066  0.00  0.00    +0.296 C 
ATOM     16  C   UNL     1      -6.477 -11.124   5.618  0.00  0.00    +0.283 C 
ATOM     17  O   UNL     1      -7.052 -12.402   5.913  0.00  0.00    -0.484 OA
ATOM     18  C   UNL     1      -7.603 -12.555   7.148  0.00  0.00    +0.162 A 
ATOM     19  C   UNL     1      -7.845 -13.832   7.632  0.00  0.00    +0.049 A 
ATOM     20  C   UNL     1      -8.407 -14.004   8.883  0.00  0.00    +0.004 A 
ATOM     21  C   UNL     1      -8.729 -12.903   9.655  0.00  0.00    +0.004 A 
ATOM     22  C   UNL     1      -8.490 -11.628   9.179  0.00  0.00    +0.049 A 
ATOM     23  C   UNL     1      -7.925 -11.449   7.925  0.00  0.00    +0.163 A 
ATOM     24  O   UNL     1      -7.688 -10.187   7.473  0.00  0.00    -0.473 OA
ENDBRANCH  11  15
BRANCH   1  26
ATOM     25  N   UNL     1      -6.621  -5.115   0.866  0.00  0.00    -0.312 N 
ATOM     26  C   UNL     1      -6.085  -5.965   1.764  0.00  0.00    +0.218 C 
ATOM     27  O   UNL     1      -4.909  -6.255   1.698  0.00  0.00    -0.275 OA
ATOM     28  H   UNL     1      -7.562  -4.883   0.919  0.00  0.00    +0.149 HD
BRANCH  25  34
ATOM     29  C   UNL     1      -4.991  -1.268  -2.543  0.00  0.00    +0.216 C 
ATOM     30  O   UNL     1      -4.324  -0.365  -2.086  0.00  0.00    -0.276 OA
ATOM     31  N   UNL     1      -4.980  -2.480  -1.952  0.00  0.00    -0.301 N 
ATOM     32  C   UNL     1      -5.778  -3.586  -2.498  0.00  0.00    +0.109 C 
ATOM     33  C   UNL     1      -6.661  -4.154  -1.383  0.00  0.00    +0.041 C 
ATOM     34  C   UNL     1      -5.784  -4.540  -0.190  0.00  0.00    +0.076 C 
ATOM     35  C   UNL     1      -5.070  -3.297   0.345  0.00  0.00    +0.041 C 
ATOM     36  C   UNL     1      -4.165  -2.721  -0.754  0.00  0.00    +0.109 C 
BRANCH  29  37
ATOM     37  C   UNL     1      -5.832  -1.037  -3.772  0.00  0.00    +0.099 C 
BRANCH  37  39
ATOM     38  C   UNL     1      -6.420   0.612  -5.555  0.00  0.00    +0.008 C 
ATOM     39  C   UNL     1      -5.666   0.410  -4.239  0.00  0.00    -0.008 C 
ATOM     40  C   UNL     1      -6.230   1.357  -3.178  0.00  0.00    +0.008 C 
ENDBRANCH  37  39
ENDBRANCH  29  37
ENDBRANCH  25  34
ENDBRANCH   1  26
TORSDOF 5
