REMARK  Name = ZINC19966550
REMARK  5 active torsions:
REMARK  status: ('A' for Active; 'I' for Inactive)
REMARK    1  A    between atoms: C_1  and  C_2
REMARK    2  A    between atoms: C_2  and  C_3
REMARK    3  A    between atoms: C_2  and  C_4
REMARK    4  A    between atoms: C_4  and  C_6
REMARK    5  A    between atoms: N_8  and  C_9
REMARK                            x       y       z     vdW  Elec       q    Type
REMARK                         _______ _______ _______ _____ _____    ______ ____
ROOT
ATOM      1  C   UNL     1       2.931   4.236  -0.013  0.00  0.00    +0.034 A 
ATOM      2  C   UNL     1       3.286   3.046  -0.637  0.00  0.00    +0.024 A 
ATOM      3  C   UNL     1       2.412   1.975  -0.650  0.00  0.00    +0.015 A 
ATOM      4  C   UNL     1       1.172   2.088  -0.036  0.00  0.00    +0.049 A 
ATOM      5  C   UNL     1       0.809   3.294   0.599  0.00  0.00    +0.051 A 
ATOM      6  C   UNL     1       1.689   4.361   0.607  0.00  0.00    +0.037 A 
ATOM      7  C   UNL     1      -0.550   3.073   1.138  0.00  0.00    +0.251 C 
ATOM      8  O   UNL     1      -1.209   3.885   1.755  0.00  0.00    -0.270 OA
ATOM      9  N   UNL     1      -0.936   1.823   0.824  0.00  0.00    -0.248 N 
ATOM     10  C   UNL     1       0.024   1.178   0.139  0.00  0.00    +0.251 C 
ATOM     11  O   UNL     1      -0.044   0.036  -0.272  0.00  0.00    -0.270 OA
ATOM     12  H   UNL     1      -1.929   1.461   1.130  0.00  0.00    +0.158 HD
ENDROOT
BRANCH   1  15
ATOM     13  C   UNL     1       5.148   5.083   0.081  0.00  0.00    +0.231 C 
ATOM     14  O   UNL     1       5.572   3.947   0.071  0.00  0.00    -0.274 OA
ATOM     15  N   UNL     1       3.822   5.309  -0.007  0.00  0.00    -0.285 N 
ATOM     16  H   UNL     1       3.443   6.339  -0.073  0.00  0.00    +0.155 HD
BRANCH  13  17
ATOM     17  C   UNL     1       6.104   6.243   0.192  0.00  0.00    +0.145 C 
ATOM     18 BR   UNL     1       7.018   6.505  -1.529  0.00  0.00    -0.078 Br
BRANCH  17  20
ATOM     19  C   UNL     1       7.998   4.755   0.857  0.00  0.00    +0.009 C 
ATOM     20  C   UNL     1       7.139   5.949   1.280  0.00  0.00    +0.005 C 
ATOM     21  C   UNL     1       8.032   7.175   1.479  0.00  0.00    +0.009 C 
ENDBRANCH  17  20
ENDBRANCH  13  17
ENDBRANCH   1  15
TORSDOF 3
