REMARK  Name = ZINC46056866
REMARK  12 active torsions:
REMARK  status: ('A' for Active; 'I' for Inactive)
REMARK    1  A    between atoms: C_1  and  C_2
REMARK    2  A    between atoms: C_2  and  C_3
REMARK    3  A    between atoms: C_3  and  O_4
REMARK    4  A    between atoms: O_4  and  C_5
REMARK    5  A    between atoms: C_8  and  C_13
REMARK    6  A    between atoms: C_10  and  O_11
REMARK    7  A    between atoms: O_11  and  C_12
REMARK    8  A    between atoms: C_13  and  C_15
REMARK    9  A    between atoms: C_23  and  C_34
REMARK   10  A    between atoms: N_25  and  C_26
REMARK   11  A    between atoms: C_29  and  C_33
REMARK   12  A    between atoms: C_30  and  C_32
REMARK                            x       y       z     vdW  Elec       q    Type
REMARK                         _______ _______ _______ _____ _____    ______ ____
ROOT
ATOM      1  C   UNL     1       4.313  -3.324   6.504  0.00  0.00    +0.104 C 
ATOM      2  C   UNL     1       3.272  -2.787   7.492  0.00  0.00    +0.112 C 
ATOM      3  C   UNL     1       3.903  -2.430   8.807  0.00  0.00    +0.219 C 
ATOM      4  O   UNL     1       3.517  -1.442   9.396  0.00  0.00    -0.275 OA
ATOM      5  N   UNL     1       4.886  -3.175   9.356  0.00  0.00    -0.270 N 
ATOM      6  C   UNL     1       5.453  -4.187   8.582  0.00  0.00    +0.133 A 
ATOM      7  C   UNL     1       5.207  -4.292   7.237  0.00  0.00    +0.026 A 
ATOM      8  C   UNL     1       5.904  -5.391   6.758  0.00  0.00    +0.066 A 
ATOM      9  N   UNL     1       6.562  -5.929   7.758  0.00  0.00    -0.170 NA
ATOM     10  N   UNL     1       6.300  -5.181   8.919  0.00  0.00    -0.218 N 
ATOM     11  C   UNL     1       5.906  -5.883   5.334  0.00  0.00    +0.068 C 
ATOM     12  H   UNL     1       5.190  -3.011  10.262  0.00  0.00    +0.156 HD
ENDROOT
BRANCH  10  13
ATOM     13  C   UNL     1       6.826  -5.421  10.195  0.00  0.00    +0.068 A 
ATOM     14  C   UNL     1       7.122  -4.358  11.038  0.00  0.00    +0.028 A 
ATOM     15  C   UNL     1       7.640  -4.598  12.295  0.00  0.00    +0.006 A 
ATOM     16  C   UNL     1       7.864  -5.897  12.716  0.00  0.00    -0.047 A 
ATOM     17  C   UNL     1       7.571  -6.958  11.879  0.00  0.00    -0.046 A 
ATOM     18  C   UNL     1       7.046  -6.724  10.623  0.00  0.00    +0.031 A 
ATOM     19  C   UNL     1       7.816  -8.371  12.341  0.00  0.00    +0.044 C 
ATOM     20  C   UNL     1       8.430  -6.156  14.088  0.00  0.00    +0.044 C 
ENDBRANCH  10  13
BRANCH   1  21
ATOM     21  C   UNL     1       3.619  -4.033   5.370  0.00  0.00    +0.171 C 
ATOM     22  O   UNL     1       2.871  -4.959   5.600  0.00  0.00    -0.291 OA
BRANCH  21  26
ATOM     23  C   UNL     1       4.289  -2.785   1.370  0.00  0.00    +0.162 A 
ATOM     24  C   UNL     1       4.927  -2.132   2.417  0.00  0.00    +0.050 A 
ATOM     25  C   UNL     1       4.713  -2.534   3.716  0.00  0.00    +0.015 A 
ATOM     26  C   UNL     1       3.849  -3.602   3.985  0.00  0.00    +0.022 A 
ATOM     27  C   UNL     1       3.206  -4.260   2.929  0.00  0.00    +0.060 A 
ATOM     28  C   UNL     1       3.422  -3.847   1.629  0.00  0.00    +0.162 A 
BRANCH  28  29
ATOM     29  O   UNL     1       2.795  -4.480   0.602  0.00  0.00    -0.491 OA
ATOM     30  C   UNL     1       1.922  -5.559   0.940  0.00  0.00    +0.277 C 
ENDBRANCH  28  29
BRANCH  23  31
ATOM     31  O   UNL     1       4.504  -2.385   0.090  0.00  0.00    -0.488 OA
BRANCH  31  32
ATOM     32  C   UNL     1       5.403  -1.291  -0.104  0.00  0.00    +0.229 C 
BRANCH  32  34
ATOM     33  C   UNL     1       6.481   0.185  -1.808  0.00  0.00    +0.007 C 
ATOM     34  C   UNL     1       5.519  -0.986  -1.599  0.00  0.00    +0.038 C 
ENDBRANCH  32  34
ENDBRANCH  31  32
ENDBRANCH  23  31
ENDBRANCH  21  26
ENDBRANCH   1  21
TORSDOF 7
