REMARK  Name = ZINC22817404
REMARK  8 active torsions:
REMARK  status: ('A' for Active; 'I' for Inactive)
REMARK    1  A    between atoms: C_1  and  C_2
REMARK    2  A    between atoms: C_2  and  C_4
REMARK    3  A    between atoms: C_2  and  N_13
REMARK    4  A    between atoms: N_9  and  C_10
REMARK    5  A    between atoms: N_16  and  C_19
REMARK    6  A    between atoms: C_19  and  C_21
REMARK    7  A    between atoms: C_19  and  C_22
REMARK    8  A    between atoms: N_27  and  C_28
REMARK                            x       y       z     vdW  Elec       q    Type
REMARK                         _______ _______ _______ _____ _____    ______ ____
ROOT
ATOM      1  N   UNL     1      -2.433   0.974   0.019  0.00  0.00    +0.389 N 
ATOM      2  C   UNL     1      -2.398   0.137  -1.188  0.00  0.00    -0.062 C 
ATOM      3  C   UNL     1      -3.513  -0.910  -1.112  0.00  0.00    +0.066 C 
ATOM      4  N   UNL     1      -4.810  -0.231  -0.983  0.00  0.00    -0.295 NA
ATOM      5  C   UNL     1      -4.845   0.606   0.224  0.00  0.00    +0.066 C 
ATOM      6  C   UNL     1      -3.730   1.653   0.148  0.00  0.00    -0.062 C 
ATOM      7  H   UNL     1      -2.304   0.318   0.892  0.00  0.00    -0.081 HD
ENDROOT
BRANCH   1   9
ATOM      8  C   UNL     1      -1.428   2.829  -1.225  0.00  0.00    -0.004 C 
ATOM      9  C   UNL     1      -1.330   1.944   0.019  0.00  0.00    +0.017 C 
BRANCH   9  10
ATOM     10  C   UNL     1      -0.014   1.208   0.009  0.00  0.00    +0.207 C 
ATOM     11  O   UNL     1       0.002  -0.004   0.002  0.00  0.00    -0.277 OA
ATOM     12  N   UNL     1       1.143   1.898   0.001  0.00  0.00    -0.242 N 
ATOM     13  C   UNL     1       2.320   1.240  -0.013  0.00  0.00    +0.306 C 
ATOM     14  O   UNL     1       2.336   0.025  -0.020  0.00  0.00    -0.252 OA
ATOM     15  N   UNL     1       3.478   1.930  -0.021  0.00  0.00    -0.296 N 
ATOM     16  H   UNL     1       1.129   2.998   0.007  0.00  0.00    +0.159 HD
ATOM     17  H   UNL     1       3.463   3.030  -0.015  0.00  0.00    +0.151 HD
BRANCH  15  18
ATOM     18  C   UNL     1       4.756   1.214  -0.037  0.00  0.00    +0.075 C 
ATOM     19  C   UNL     1       5.860   1.720   0.894  0.00  0.00    +0.024 C 
ATOM     20  C   UNL     1       5.968   1.947  -0.616  0.00  0.00    +0.024 C 
ENDBRANCH  15  18
ENDBRANCH   9  10
ENDBRANCH   1   9
BRANCH   4  21
ATOM     21  C   UNL     1      -5.913  -1.201  -0.983  0.00  0.00    +0.140 C 
ATOM     22  C   UNL     1      -5.729  -2.184   0.175  0.00  0.00    +0.034 C 
BRANCH  21  23
ATOM     23  C   UNL     1      -5.918  -1.956  -2.287  0.00  0.00    +0.237 C 
ATOM     24  O   UNL     1      -5.085  -1.711  -3.133  0.00  0.00    -0.274 OA
ATOM     25  N   UNL     1      -6.849  -2.904  -2.513  0.00  0.00    -0.239 N 
ATOM     26  C   UNL     1      -6.854  -3.580  -3.679  0.00  0.00    +0.306 C 
ATOM     27  O   UNL     1      -6.018  -3.334  -4.527  0.00  0.00    -0.252 OA
ATOM     28  N   UNL     1      -7.785  -4.528  -3.905  0.00  0.00    -0.296 N 
ATOM     29  H   UNL     1      -7.605  -3.127  -1.746  0.00  0.00    +0.159 HD
ATOM     30  H   UNL     1      -8.540  -4.750  -3.138  0.00  0.00    +0.151 HD
BRANCH  28  31
ATOM     31  C   UNL     1      -7.789  -5.262  -5.173  0.00  0.00    +0.075 C 
ATOM     32  C   UNL     1      -9.140  -5.482  -5.857  0.00  0.00    +0.024 C 
ATOM     33  C   UNL     1      -8.425  -6.654  -5.181  0.00  0.00    +0.024 C 
ENDBRANCH  28  31
ENDBRANCH  21  23
ENDBRANCH   4  21
TORSDOF 6
