REMARK  Name = ZINC20704263
REMARK  8 active torsions:
REMARK  status: ('A' for Active; 'I' for Inactive)
REMARK    1  A    between atoms: C_1  and  C_2
REMARK    2  A    between atoms: C_2  and  C_3
REMARK    3  A    between atoms: C_2  and  C_4
REMARK    4  A    between atoms: C_2  and  N_5
REMARK    5  A    between atoms: N_5  and  S_6
REMARK    6  A    between atoms: S_6  and  C_9
REMARK    7  A    between atoms: C_22  and  C_25
REMARK    8  A    between atoms: C_29  and  N_31
REMARK                            x       y       z     vdW  Elec       q    Type
REMARK                         _______ _______ _______ _____ _____    ______ ____
ROOT
ATOM      1  C   UNL     1      -1.846   2.509  -3.160  0.00  0.00    +0.106 A 
ATOM      2  C   UNL     1      -3.104   1.972  -3.366  0.00  0.00    +0.030 A 
ATOM      3  C   UNL     1      -3.889   1.613  -2.290  0.00  0.00    +0.025 A 
ATOM      4  C   UNL     1      -3.423   1.788  -0.993  0.00  0.00    +0.031 A 
ATOM      5  C   UNL     1      -2.161   2.335  -0.788  0.00  0.00    -0.018 A 
ATOM      6  C   UNL     1      -1.371   2.682  -1.873  0.00  0.00    +0.034 A 
ATOM      7  C   UNL     1      -1.678   2.469   0.604  0.00  0.00    +0.049 C 
ATOM      8  C   UNL     1      -0.672   3.490   0.991  0.00  0.00    -0.023 C 
ATOM      9  C   UNL     1      -0.915   3.873   2.239  0.00  0.00    -0.030 C 
ATOM     10  C   UNL     1      -2.148   3.145   2.779  0.00  0.00    +0.033 C 
ATOM     11  C   UNL     1      -2.911   2.830   1.485  0.00  0.00    +0.029 C 
ATOM     12  C   UNL     1      -3.788   1.591   1.482  0.00  0.00    +0.105 C 
ATOM     13  N   UNL     1      -4.245   1.431   0.084  0.00  0.00    -0.336 N 
ATOM     14  H   UNL     1      -5.246   1.025  -0.125  0.00  0.00    +0.147 HD
ENDROOT
BRANCH  12  15
ATOM     15  C   UNL     1      -4.970   1.787   2.396  0.00  0.00    -0.025 A 
ATOM     16  C   UNL     1      -6.066   2.510   1.964  0.00  0.00    +0.007 A 
ATOM     17  C   UNL     1      -7.150   2.690   2.803  0.00  0.00    +0.022 A 
ATOM     18  C   UNL     1      -7.138   2.146   4.075  0.00  0.00    +0.071 A 
ATOM     19  C   UNL     1      -6.041   1.422   4.507  0.00  0.00    +0.145 A 
ATOM     20  C   UNL     1      -4.960   1.238   3.665  0.00  0.00    +0.039 A 
ATOM     21 CL   UNL     1      -8.499   2.371   5.128  0.00  0.00    -0.081 Cl
BRANCH  19  22
ATOM     22  N   UNL     1      -6.027   0.840   5.867  0.00  0.00    +0.058 N 
ATOM     23  O   UNL     1      -5.061   0.203   6.247  0.00  0.00    -0.126 OA
ATOM     24  O   UNL     1      -6.982   0.998   6.607  0.00  0.00    -0.126 OA
ENDBRANCH  19  22
ENDBRANCH  12  15
BRANCH   1  25
ATOM     25  S   UNL     1      -0.850   2.975  -4.537  0.00  0.00    +0.059 S 
ATOM     26  O   UNL     1       0.490   2.645  -4.199  0.00  0.00    -0.153 OA
ATOM     27  O   UNL     1      -1.492   2.460  -5.695  0.00  0.00    -0.153 OA
BRANCH  25  28
ATOM     28  N   UNL     1      -0.916   4.625  -4.653  0.00  0.00    -0.185 NA
ATOM     29  H   UNL     1       0.019   5.204  -4.625  0.00  0.00    +0.149 HD
BRANCH  28  31
ATOM     30  C   UNL     1      -3.255   4.902  -3.994  0.00  0.00    +0.029 C 
ATOM     31  C   UNL     1      -2.175   5.285  -5.008  0.00  0.00    +0.032 C 
ATOM     32  C   UNL     1      -1.978   6.802  -4.995  0.00  0.00    +0.029 C 
ATOM     33  C   UNL     1      -2.608   4.839  -6.406  0.00  0.00    +0.029 C 
ENDBRANCH  28  31
ENDBRANCH  25  28
ENDBRANCH   1  25
TORSDOF 5
