REMARK  Name = ZINC58023502
REMARK  12 active torsions:
REMARK  status: ('A' for Active; 'I' for Inactive)
REMARK    1  A    between atoms: C_1  and  C_2
REMARK    2  A    between atoms: C_3  and  C_32
REMARK    3  A    between atoms: C_10  and  C_13
REMARK    4  A    between atoms: C_13  and  C_14
REMARK    5  A    between atoms: C_14  and  C_15
REMARK    6  A    between atoms: N_17  and  C_18
REMARK    7  A    between atoms: C_18  and  C_19
REMARK    8  A    between atoms: C_19  and  C_20
REMARK    9  A    between atoms: C_20  and  C_21
REMARK   10  A    between atoms: C_21  and  N_22
REMARK   11  A    between atoms: C_24  and  C_31
REMARK   12  A    between atoms: C_27  and  C_30
REMARK                            x       y       z     vdW  Elec       q    Type
REMARK                         _______ _______ _______ _____ _____    ______ ____
ROOT
ATOM      1  C   UNL     1       0.115  -3.474   7.104  0.00  0.00    +0.213 C 
ATOM      2  O   UNL     1       0.129  -4.674   6.931  0.00  0.00    -0.276 OA
ATOM      3  N   UNL     1       0.119  -2.973   8.355  0.00  0.00    -0.315 N 
ATOM      4  H   UNL     1       0.107  -2.013   8.493  0.00  0.00    +0.149 HD
ENDROOT
BRANCH   1   5
ATOM      5  C   UNL     1       0.091  -2.543   5.919  0.00  0.00    +0.103 C 
BRANCH   5   6
ATOM      6  C   UNL     1       0.090  -3.361   4.627  0.00  0.00    +0.083 C 
BRANCH   6  16
ATOM      7  C   UNL     1      -0.018   1.503   0.010  0.00  0.00    +0.045 C 
ATOM      8  C   UNL     1       0.002  -0.004   0.002  0.00  0.00    -0.026 A 
ATOM      9  C   UNL     1       0.006  -0.677  -1.159  0.00  0.00    -0.008 A 
ATOM     10  S   UNL     1       0.031  -2.384  -0.644  0.00  0.00    -0.075 S 
ATOM     11  C   UNL     1       0.036  -2.139   1.112  0.00  0.00    +0.092 A 
ATOM     12  C   UNL     1       0.024  -0.745   1.249  0.00  0.00    +0.075 A 
ATOM     13  C   UNL     1       0.030  -0.253   2.645  0.00  0.00    +0.282 A 
ATOM     14  O   UNL     1       0.016   0.945   2.879  0.00  0.00    -0.265 OA
ATOM     15  N   UNL     1       0.051  -1.143   3.648  0.00  0.00    -0.195 NA
ATOM     16  C   UNL     1       0.067  -2.430   3.442  0.00  0.00    +0.112 A 
ATOM     17  N   UNL     1       0.052  -2.952   2.199  0.00  0.00    -0.337 N 
ATOM     18  H   UNL     1       0.064  -3.914   2.080  0.00  0.00    +0.168 HD
ATOM     19  C   UNL     1      -0.008  -0.124  -2.561  0.00  0.00    +0.052 C 
ENDBRANCH   6  16
ENDBRANCH   5   6
ENDBRANCH   1   5
BRANCH   3  20
ATOM     20  C   UNL     1       0.142  -3.878   9.506  0.00  0.00    +0.104 C 
BRANCH  20  21
ATOM     21  C   UNL     1       0.143  -3.060  10.799  0.00  0.00    +0.017 C 
BRANCH  21  22
ATOM     22  C   UNL     1       0.167  -4.005  12.001  0.00  0.00    -0.017 C 
BRANCH  22  23
ATOM     23  C   UNL     1       0.167  -3.186  13.294  0.00  0.00    -0.079 C 
BRANCH  23  24
ATOM     24  N   UNL     1       0.190  -4.094  14.449  0.00  0.00    +0.380 N 
ATOM     25  C   UNL     1      -1.050  -4.879  14.477  0.00  0.00    -0.076 C 
ATOM     26  C   UNL     1      -0.997  -5.883  15.630  0.00  0.00    -0.031 C 
ATOM     27  C   UNL     1      -0.839  -5.126  16.952  0.00  0.00    +0.003 C 
ATOM     28  C   UNL     1       0.417  -4.254  16.883  0.00  0.00    -0.031 C 
ATOM     29  C   UNL     1       0.312  -3.310  15.683  0.00  0.00    -0.076 C 
ATOM     30  C   UNL     1       0.542  -3.434  18.169  0.00  0.00    +0.005 C 
ATOM     31  C   UNL     1       0.195  -6.823  15.434  0.00  0.00    +0.005 C 
ATOM     32  H   UNL     1       0.979  -4.718  14.369  0.00  0.00    -0.082 HD
ENDBRANCH  23  24
ENDBRANCH  22  23
ENDBRANCH  21  22
ENDBRANCH  20  21
ENDBRANCH   3  20
TORSDOF 8
