REMARK  Name = ZINC16949587
REMARK  10 active torsions:
REMARK  status: ('A' for Active; 'I' for Inactive)
REMARK    1  A    between atoms: C_1  and  C_2
REMARK    2  A    between atoms: C_3  and  C_12
REMARK    3  A    between atoms: C_14  and  C_19
REMARK    4  A    between atoms: C_16  and  C_17
REMARK    5  A    between atoms: C_16  and  C_18
REMARK    6  A    between atoms: C_19  and  C_20
REMARK    7  A    between atoms: N_22  and  C_23
REMARK    8  A    between atoms: N_22  and  C_37
REMARK    9  A    between atoms: C_23  and  C_24
REMARK   10  A    between atoms: N_26  and  C_27
REMARK                            x       y       z     vdW  Elec       q    Type
REMARK                         _______ _______ _______ _____ _____    ______ ____
ROOT
ATOM      1  C   UNL     1      -6.072   3.639  -1.799  0.00  0.00    +0.217 C 
ATOM      2  O   UNL     1      -5.552   3.475  -0.716  0.00  0.00    -0.276 OA
ATOM      3  N   UNL     1      -6.945   2.728  -2.272  0.00  0.00    -0.290 N 
ENDROOT
BRANCH   3   4
ATOM      4  C   UNL     1      -7.357   1.602  -1.431  0.00  0.00    +0.077 C 
ATOM      5  C   UNL     1      -7.103   1.715   0.074  0.00  0.00    +0.024 C 
ATOM      6  C   UNL     1      -6.253   0.768  -0.777  0.00  0.00    +0.024 C 
ENDBRANCH   3   4
BRANCH   1   7
ATOM      7  C   UNL     1      -5.742   4.862  -2.616  0.00  0.00    +0.100 C 
BRANCH   7   9
ATOM      8  C   UNL     1      -5.391   7.147  -1.392  0.00  0.00    +0.031 C 
ATOM      9  C   UNL     1      -4.830   5.785  -1.807  0.00  0.00    +0.012 C 
ATOM     10  C   UNL     1      -4.328   7.060  -2.489  0.00  0.00    -0.024 C 
ATOM     11  C   UNL     1      -4.778   7.315  -3.929  0.00  0.00    +0.012 C 
ATOM     12  C   UNL     1      -2.916   7.538  -2.144  0.00  0.00    +0.012 C 
BRANCH   8  15
ATOM     13  C   UNL     1      -7.946   5.563  -0.618  0.00  0.00    +0.063 C 
ATOM     14  C   UNL     1      -7.911   6.801  -1.478  0.00  0.00    +0.017 A 
ATOM     15  C   UNL     1      -6.800   7.476  -1.812  0.00  0.00    -0.016 A 
ATOM     16  C   UNL     1      -7.219   8.603  -2.648  0.00  0.00    +0.003 A 
ATOM     17  C   UNL     1      -6.542   9.650  -3.277  0.00  0.00    +0.010 A 
ATOM     18  C   UNL     1      -7.241  10.569  -4.007  0.00  0.00    +0.001 A 
ATOM     19  C   UNL     1      -8.621  10.470  -4.129  0.00  0.00    +0.002 A 
ATOM     20  C   UNL     1      -9.309   9.447  -3.516  0.00  0.00    +0.026 A 
ATOM     21  C   UNL     1      -8.618   8.503  -2.763  0.00  0.00    +0.047 A 
ATOM     22  N   UNL     1      -9.006   7.395  -2.043  0.00  0.00    -0.358 N 
ATOM     23  H   UNL     1      -9.920   7.083  -1.951  0.00  0.00    +0.166 HD
ENDBRANCH   8  15
ENDBRANCH   7   9
ENDBRANCH   1   7
BRANCH   3  24
ATOM     24  C   UNL     1      -7.483   2.864  -3.629  0.00  0.00    +0.203 C 
BRANCH  24  25
ATOM     25  C   UNL     1      -6.587   2.138  -4.599  0.00  0.00    +0.231 C 
ATOM     26  O   UNL     1      -5.597   1.563  -4.197  0.00  0.00    -0.274 OA
ATOM     27  N   UNL     1      -6.886   2.126  -5.913  0.00  0.00    -0.308 N 
ATOM     28  H   UNL     1      -7.678   2.586  -6.234  0.00  0.00    +0.149 HD
BRANCH  27  29
ATOM     29  C   UNL     1      -6.015   1.420  -6.856  0.00  0.00    +0.035 C 
ATOM     30  C   UNL     1      -5.950  -0.061  -6.479  0.00  0.00    +0.029 C 
ATOM     31  C   UNL     1      -5.040  -0.798  -7.464  0.00  0.00    -0.008 C 
ATOM     32  C   UNL     1      -5.601  -0.657  -8.881  0.00  0.00    +0.007 C 
ATOM     33  C   UNL     1      -5.667   0.825  -9.258  0.00  0.00    -0.008 C 
ATOM     34  C   UNL     1      -6.576   1.562  -8.273  0.00  0.00    +0.029 C 
ATOM     35  C   UNL     1      -4.261   1.427  -9.203  0.00  0.00    +0.007 C 
ATOM     36  C   UNL     1      -3.700   1.286  -7.787  0.00  0.00    -0.008 C 
ATOM     37  C   UNL     1      -3.635  -0.196  -7.410  0.00  0.00    +0.007 C 
ATOM     38  C   UNL     1      -4.610   2.023  -6.802  0.00  0.00    +0.029 C 
ENDBRANCH  27  29
ENDBRANCH  24  25
ENDBRANCH   3  24
TORSDOF 7
