REMARK  Name = ZINC43664193
REMARK  7 active torsions:
REMARK  status: ('A' for Active; 'I' for Inactive)
REMARK    1  A    between atoms: C_1  and  C_2
REMARK    2  A    between atoms: C_4  and  N_20
REMARK    3  A    between atoms: N_5  and  C_7
REMARK    4  A    between atoms: C_10  and  C_19
REMARK    5  A    between atoms: C_14  and  C_16
REMARK    6  A    between atoms: C_16  and  C_17
REMARK    7  A    between atoms: C_16  and  C_18
REMARK                            x       y       z     vdW  Elec       q    Type
REMARK                         _______ _______ _______ _____ _____    ______ ____
ROOT
ATOM      1  C   UNL     1       0.051  -3.291   1.470  0.00  0.00    +0.113 C 
ATOM      2  C   UNL     1       1.374  -3.212   2.235  0.00  0.00    +0.030 C 
ATOM      3  C   UNL     1       1.421  -4.321   3.287  0.00  0.00    -0.012 C 
ATOM      4  C   UNL     1       0.257  -4.147   4.264  0.00  0.00    +0.004 C 
ATOM      5  C   UNL     1      -1.066  -4.226   3.500  0.00  0.00    +0.006 C 
ATOM      6  C   UNL     1      -1.114  -3.117   2.447  0.00  0.00    +0.016 C 
ATOM      7  C   UNL     1       1.310  -5.683   2.599  0.00  0.00    +0.007 C 
ENDROOT
BRANCH   1  12
ATOM      8  C   UNL     1      -0.154   1.273  -0.611  0.00  0.00    +0.067 C 
ATOM      9  C   UNL     1      -0.085  -0.221  -0.429  0.00  0.00    +0.062 A 
ATOM     10  C   UNL     1      -0.039  -1.170  -1.454  0.00  0.00    +0.067 A 
ATOM     11  C   UNL     1       0.017  -2.403  -0.879  0.00  0.00    +0.115 A 
ATOM     12  N   UNL     1       0.005  -2.228   0.462  0.00  0.00    -0.247 N 
ATOM     13  N   UNL     1      -0.053  -0.852   0.717  0.00  0.00    -0.175 NA
BRANCH  11  14
ATOM     14  N   UNL     1       0.074  -3.622  -1.549  0.00  0.00    -0.343 N 
ATOM     15  H   UNL     1       0.078  -3.642  -2.519  0.00  0.00    +0.144 HD
ATOM     16  H   UNL     1       0.111  -4.450  -1.046  0.00  0.00    +0.144 HD
ENDBRANCH  11  14
ENDBRANCH   1  12
BRANCH   6  17
ATOM     17  C   UNL     1      -2.437  -3.195   1.683  0.00  0.00    -0.012 C 
ATOM     18  C   UNL     1      -2.612  -4.603   1.110  0.00  0.00    +0.007 C 
ATOM     19  C   UNL     1      -3.594  -2.884   2.634  0.00  0.00    +0.007 C 
ENDBRANCH   6  17
TORSDOF 3
