REMARK  Name = ZINC63009556
REMARK  4 active torsions:
REMARK  status: ('A' for Active; 'I' for Inactive)
REMARK    1  A    between atoms: C_1  and  C_2
REMARK    2  A    between atoms: C_2  and  N_8
REMARK    3  A    between atoms: N_11  and  C_12
REMARK    4  A    between atoms: C_15  and  C_19
REMARK                            x       y       z     vdW  Elec       q    Type
REMARK                         _______ _______ _______ _____ _____    ______ ____
ROOT
ATOM      1  N   UNL     1      -1.377  -0.499   0.021  0.00  0.00    -0.294 N 
ATOM      2  C   UNL     1      -2.217  -0.189  -0.987  0.00  0.00    +0.304 C 
ATOM      3  O   UNL     1      -1.835   0.512  -1.903  0.00  0.00    -0.252 OA
ATOM      4  N   UNL     1      -3.481  -0.658  -0.979  0.00  0.00    -0.267 N 
ATOM      5  H   UNL     1      -1.682  -1.059   0.751  0.00  0.00    +0.151 HD
ATOM      6  H   UNL     1      -3.762  -1.283  -0.293  0.00  0.00    +0.156 HD
ENDROOT
BRANCH   1   8
ATOM      7  C   UNL     1      -0.027   1.540   0.007  0.00  0.00    +0.031 C 
ATOM      8  C   UNL     1      -0.003   0.010   0.012  0.00  0.00    +0.033 C 
ATOM      9  C   UNL     1       0.719  -0.493  -1.239  0.00  0.00    +0.025 C 
ATOM     10  C   UNL     1       0.743  -2.023  -1.234  0.00  0.00    +0.002 C 
ATOM     11  C   UNL     1       1.478  -2.517   0.013  0.00  0.00    +0.000 C 
ATOM     12  C   UNL     1       0.755  -2.014   1.264  0.00  0.00    +0.002 C 
ATOM     13  C   UNL     1       0.732  -0.484   1.259  0.00  0.00    +0.025 C 
ENDBRANCH   1   8
BRANCH   4  14
ATOM     14  C   UNL     1      -4.384  -0.244  -1.958  0.00  0.00    +0.070 A 
ATOM     15  C   UNL     1      -4.200   0.976  -2.600  0.00  0.00    +0.027 A 
ATOM     16  C   UNL     1      -5.089   1.388  -3.567  0.00  0.00    +0.017 A 
ATOM     17  C   UNL     1      -6.179   0.579  -3.903  0.00  0.00    +0.066 A 
ATOM     18  C   UNL     1      -6.363  -0.647  -3.255  0.00  0.00    +0.055 A 
ATOM     19  C   UNL     1      -5.465  -1.056  -2.293  0.00  0.00    +0.145 A 
ATOM     20  F   UNL     1      -5.637  -2.243  -1.670  0.00  0.00    -0.204 F 
BRANCH  17  21
ATOM     21  C   UNL     1      -7.132   1.018  -4.936  0.00  0.00    +0.387 C 
ATOM     22  O   UNL     1      -6.971   2.091  -5.501  0.00  0.00    -0.241 OA
ATOM     23  O   UNL     1      -8.086   0.309  -5.229  0.00  0.00    -0.241 OA
ENDBRANCH  17  21
ENDBRANCH   4  14
TORSDOF 3
