REMARK  Name = ZINC10453158
REMARK  11 active torsions:
REMARK  status: ('A' for Active; 'I' for Inactive)
REMARK    1  A    between atoms: C_1  and  C_2
REMARK    2  A    between atoms: C_4  and  O_9
REMARK    3  A    between atoms: O_9  and  C_10
REMARK    4  A    between atoms: C_10  and  C_11
REMARK    5  A    between atoms: N_13  and  N_14
REMARK    6  A    between atoms: N_14  and  C_15
REMARK    7  A    between atoms: C_15  and  N_17
REMARK    8  A    between atoms: C_18  and  C_20
REMARK    9  A    between atoms: C_23  and  C_26
REMARK   10  A    between atoms: C_26  and  C_27
REMARK   11  A    between atoms: C_26  and  C_28
REMARK                            x       y       z     vdW  Elec       q    Type
REMARK                         _______ _______ _______ _____ _____    ______ ____
ROOT
ATOM      1  N   UNL     1      -2.954  -2.339   0.018  0.00  0.00    -0.245 N 
ATOM      2  H   UNL     1      -3.700  -1.719   0.028  0.00  0.00    +0.172 HD
ENDROOT
BRANCH   1   5
ATOM      3  C   UNL     1      -1.412  -0.526   0.013  0.00  0.00    +0.267 C 
ATOM      4  O   UNL     1      -2.344   0.250   0.026  0.00  0.00    -0.271 OA
ATOM      5  N   UNL     1      -1.640  -1.854   0.008  0.00  0.00    -0.232 N 
ATOM      6  H   UNL     1      -0.894  -2.474  -0.003  0.00  0.00    +0.173 HD
BRANCH   3   7
ATOM      7  C   UNL     1       0.002  -0.004   0.002  0.00  0.00    +0.326 C 
BRANCH   7   8
ATOM      8  O   UNL     1      -0.017   1.425   0.010  0.00  0.00    -0.483 OA
BRANCH   8  12
ATOM      9  C   UNL     1       2.524   5.592   0.007  0.00  0.00    +0.045 C 
ATOM     10  C   UNL     1       2.463   4.086   0.000  0.00  0.00    -0.033 A 
ATOM     11  C   UNL     1       1.240   3.444   0.009  0.00  0.00    +0.050 A 
ATOM     12  C   UNL     1       1.185   2.058   0.002  0.00  0.00    +0.122 A 
ATOM     13  C   UNL     1       2.360   1.319  -0.008  0.00  0.00    +0.047 A 
ATOM     14  C   UNL     1       3.580   1.965  -0.022  0.00  0.00    +0.019 A 
ATOM     15  C   UNL     1       3.633   3.348  -0.015  0.00  0.00    +0.021 A 
ATOM     16 BR   UNL     1       5.306   4.229  -0.027  0.00  0.00    -0.050 Br
ENDBRANCH   8  12
ENDBRANCH   7   8
ENDBRANCH   3   7
ENDBRANCH   1   5
BRANCH   1  17
ATOM     17  C   UNL     1      -3.183  -3.667   0.013  0.00  0.00    +0.153 C 
ATOM     18  S   UNL     1      -4.789  -4.260   0.025  0.00  0.00    -0.017 S 
BRANCH  17  19
ATOM     19  N   UNL     1      -2.147  -4.529  -0.002  0.00  0.00    -0.263 N 
ATOM     20  C   UNL     1      -2.375  -5.857  -0.007  0.00  0.00    +0.250 C 
ATOM     21  O   UNL     1      -3.515  -6.278   0.002  0.00  0.00    -0.270 OA
ATOM     22  H   UNL     1      -1.236  -4.193  -0.009  0.00  0.00    +0.157 HD
BRANCH  20  23
ATOM     23  C   UNL     1      -1.239  -6.802  -0.023  0.00  0.00    +0.037 A 
ATOM     24  C   UNL     1       0.072  -6.322  -0.038  0.00  0.00    +0.013 A 
ATOM     25  C   UNL     1       1.128  -7.210  -0.048  0.00  0.00    +0.004 A 
ATOM     26  C   UNL     1       0.890  -8.573  -0.053  0.00  0.00    -0.045 A 
ATOM     27  C   UNL     1      -0.406  -9.055  -0.043  0.00  0.00    +0.004 A 
ATOM     28  C   UNL     1      -1.472  -8.179  -0.028  0.00  0.00    +0.013 A 
BRANCH  26  29
ATOM     29  C   UNL     1       2.049  -9.536  -0.070  0.00  0.00    +0.013 C 
ATOM     30  C   UNL     1       2.890  -9.301  -1.327  0.00  0.00    +0.012 C 
ATOM     31  C   UNL     1       2.914  -9.315   1.172  0.00  0.00    +0.012 C 
ENDBRANCH  26  29
ENDBRANCH  20  23
ENDBRANCH  17  19
ENDBRANCH   1  17
TORSDOF 8
