REMARK  Name = ZINC13358761
REMARK  2 active torsions:
REMARK  status: ('A' for Active; 'I' for Inactive)
REMARK    1  A    between atoms: C_7  and  C_10
REMARK    2  A    between atoms: C_15  and  C_18
REMARK                            x       y       z     vdW  Elec       q    Type
REMARK                         _______ _______ _______ _____ _____    ______ ____
ROOT
ATOM      1  C   UNL     1      -0.811  -1.231  -0.815  0.00  0.00    +0.263 C 
ATOM      2  O   UNL     1      -0.748  -1.710  -1.932  0.00  0.00    -0.268 OA
ATOM      3  N   UNL     1      -0.057  -0.160  -0.497  0.00  0.00    -0.296 N 
ATOM      4  C   UNL     1      -0.228   0.519   0.794  0.00  0.00    +0.109 C 
ATOM      5  C   UNL     1      -0.465   2.011   0.538  0.00  0.00    +0.032 C 
ATOM      6  C   UNL     1       0.676   2.566  -0.317  0.00  0.00    +0.078 C 
ATOM      7  C   UNL     1       0.703   1.842  -1.666  0.00  0.00    +0.032 C 
ATOM      8  C   UNL     1       0.953   0.349  -1.435  0.00  0.00    +0.109 C 
ENDROOT
BRANCH   1  15
ATOM      9  C   UNL     1      -4.540  -3.708   1.659  0.00  0.00    +0.017 A 
ATOM     10  C   UNL     1      -4.725  -3.808   2.983  0.00  0.00    +0.048 A 
ATOM     11  S   UNL     1      -3.366  -2.875   3.660  0.00  0.00    -0.079 S 
ATOM     12  C   UNL     1      -2.589  -2.378   2.144  0.00  0.00    +0.085 A 
ATOM     13  C   UNL     1      -3.402  -2.947   1.159  0.00  0.00    +0.008 A 
ATOM     14  C   UNL     1      -2.810  -2.570  -0.082  0.00  0.00    +0.041 A 
ATOM     15  C   UNL     1      -1.707  -1.818   0.184  0.00  0.00    +0.103 A 
ATOM     16  N   UNL     1      -1.571  -1.706   1.557  0.00  0.00    -0.345 N 
ATOM     17  H   UNL     1      -0.867  -1.226   2.020  0.00  0.00    +0.167 HD
ENDBRANCH   1  15
BRANCH   6  18
ATOM     18  C   UNL     1       0.465   4.040  -0.543  0.00  0.00    +0.219 C 
ATOM     19  O   UNL     1      -0.659   4.480  -0.666  0.00  0.00    -0.275 OA
ATOM     20  N   UNL     1       1.524   4.871  -0.607  0.00  0.00    -0.301 N 
ATOM     21  C   UNL     1       1.284   6.293  -0.717  0.00  0.00    +0.108 C 
ATOM     22  C   UNL     1       1.174   6.695  -2.202  0.00  0.00    +0.019 C 
ATOM     23  C   UNL     1       2.493   6.620  -2.850  0.00  0.00    +0.002 C 
ATOM     24  C   UNL     1       3.100   5.221  -2.879  0.00  0.00    +0.002 C 
ATOM     25  C   UNL     1       3.827   4.964  -1.581  0.00  0.00    +0.019 C 
ATOM     26  C   UNL     1       2.881   4.292  -0.570  0.00  0.00    +0.108 C 
ENDBRANCH   6  18
TORSDOF 2
