REMARK  Name = ZINC65463001
REMARK  8 active torsions:
REMARK  status: ('A' for Active; 'I' for Inactive)
REMARK    1  A    between atoms: C_1  and  C_2
REMARK    2  A    between atoms: C_5  and  C_26
REMARK    3  A    between atoms: C_6  and  C_14
REMARK    4  A    between atoms: C_11  and  C_13
REMARK    5  A    between atoms: N_16  and  C_17
REMARK    6  A    between atoms: C_17  and  C_18
REMARK    7  A    between atoms: C_18  and  C_19
REMARK    8  A    between atoms: C_19  and  C_20
REMARK                            x       y       z     vdW  Elec       q    Type
REMARK                         _______ _______ _______ _____ _____    ______ ____
ROOT
ATOM      1  C   UNL     1      -0.727  -5.141   1.530  0.00  0.00    +0.234 C 
ATOM      2  O   UNL     1       0.391  -5.090   1.998  0.00  0.00    -0.274 OA
ATOM      3  N   UNL     1      -1.701  -5.806   2.183  0.00  0.00    -0.314 N 
ATOM      4  H   UNL     1      -2.595  -5.846   1.809  0.00  0.00    +0.149 HD
ENDROOT
BRANCH   1  10
ATOM      5  C   UNL     1      -0.018   1.503   0.010  0.00  0.00    +0.044 C 
ATOM      6  C   UNL     1       0.002  -0.004   0.002  0.00  0.00    -0.050 C 
ATOM      7  C   UNL     1      -1.171  -0.703   0.004  0.00  0.00    +0.009 C 
ATOM      8  C   UNL     1      -0.991  -2.165  -0.059  0.00  0.00    -0.025 C 
ATOM      9  C   UNL     1      -1.702  -3.133   0.474  0.00  0.00    -0.042 C 
ATOM     10  C   UNL     1      -1.027  -4.459   0.220  0.00  0.00    +0.168 C 
ATOM     11  N   UNL     1       0.229  -4.176  -0.503  0.00  0.00    -0.292 NA
ATOM     12  C   UNL     1       0.181  -2.752  -0.828  0.00  0.00    +0.111 C 
ATOM     13  C   UNL     1       1.404  -1.992  -0.389  0.00  0.00    -0.051 C 
ATOM     14  C   UNL     1       1.278  -0.719  -0.014  0.00  0.00    +0.004 C 
ATOM     15  C   UNL     1       2.754  -2.661  -0.378  0.00  0.00    +0.041 C 
ATOM     16  C   UNL     1      -2.996  -2.948   1.224  0.00  0.00    +0.041 C 
ATOM     17  H   UNL     1       1.032  -4.389   0.069  0.00  0.00    +0.124 HD
ENDBRANCH   1  10
BRANCH   3  18
ATOM     18  C   UNL     1      -1.409  -6.468   3.456  0.00  0.00    +0.104 C 
BRANCH  18  19
ATOM     19  C   UNL     1      -2.676  -7.144   3.982  0.00  0.00    +0.025 C 
BRANCH  19  20
ATOM     20  C   UNL     1      -2.372  -7.836   5.312  0.00  0.00    +0.066 C 
BRANCH  20  21
ATOM     21  C   UNL     1      -3.620  -8.502   5.830  0.00  0.00    +0.104 A 
ATOM     22  N   UNL     1      -4.074  -9.722   5.630  0.00  0.00    -0.145 NA
ATOM     23  N   UNL     1      -5.151 -10.131   6.143  0.00  0.00    -0.126 NA
ATOM     24  C   UNL     1      -5.896  -9.354   6.918  0.00  0.00    +0.179 A 
ATOM     25  S   UNL     1      -4.907  -7.862   6.899  0.00  0.00    -0.036 S 
ATOM     26  N   UNL     1      -7.095  -9.622   7.562  0.00  0.00    -0.336 N 
ATOM     27  H   UNL     1      -7.508 -10.495   7.474  0.00  0.00    +0.144 HD
ATOM     28  H   UNL     1      -7.520  -8.936   8.100  0.00  0.00    +0.144 HD
ENDBRANCH  20  21
ENDBRANCH  19  20
ENDBRANCH  18  19
ENDBRANCH   3  18
TORSDOF 5
