REMARK  Name = ZINC16720372
REMARK  9 active torsions:
REMARK  status: ('A' for Active; 'I' for Inactive)
REMARK    1  A    between atoms: C_1  and  C_2
REMARK    2  A    between atoms: C_2  and  O_3
REMARK    3  A    between atoms: O_3  and  C_4
REMARK    4  A    between atoms: C_7  and  O_10
REMARK    5  A    between atoms: O_10  and  C_11
REMARK    6  A    between atoms: C_11  and  C_13
REMARK    7  A    between atoms: C_11  and  C_14
REMARK    8  A    between atoms: N_16  and  N_17
REMARK    9  A    between atoms: N_17  and  C_18
REMARK                            x       y       z     vdW  Elec       q    Type
REMARK                         _______ _______ _______ _____ _____    ______ ____
ROOT
ATOM      1  C   UNL     1      -3.398  -7.809  -0.549  0.00  0.00    +0.269 C 
ATOM      2  O   UNL     1      -2.408  -8.320  -1.028  0.00  0.00    -0.270 OA
ATOM      3  N   UNL     1      -4.583  -8.448  -0.608  0.00  0.00    -0.234 N 
ATOM      4  H   UNL     1      -5.374  -8.039  -0.225  0.00  0.00    +0.173 HD
ENDROOT
BRANCH   1   5
ATOM      5  C   UNL     1      -3.303  -6.458   0.113  0.00  0.00    +0.257 C 
ATOM      6  C   UNL     1      -3.612  -6.598   1.605  0.00  0.00    +0.062 C 
BRANCH   5   7
ATOM      7  O   UNL     1      -1.982  -5.938  -0.053  0.00  0.00    -0.480 OA
BRANCH   7  11
ATOM      8  C   UNL     1      -1.546  -1.837   0.124  0.00  0.00    +0.121 A 
ATOM      9  C   UNL     1      -0.428  -2.649   0.010  0.00  0.00    +0.049 A 
ATOM     10  C   UNL     1      -0.574  -4.021  -0.049  0.00  0.00    +0.049 A 
ATOM     11  C   UNL     1      -1.839  -4.587   0.006  0.00  0.00    +0.122 A 
ATOM     12  C   UNL     1      -2.957  -3.775   0.122  0.00  0.00    +0.049 A 
ATOM     13  C   UNL     1      -2.811  -2.403   0.185  0.00  0.00    +0.049 A 
BRANCH   8  14
ATOM     14  O   UNL     1      -1.403  -0.486   0.182  0.00  0.00    -0.492 OA
BRANCH  14  16
ATOM     15  C   UNL     1      -0.110   1.556   0.194  0.00  0.00    +0.048 C 
ATOM     16  C   UNL     1      -0.072   0.029   0.114  0.00  0.00    +0.225 C 
ENDBRANCH  14  16
ENDBRANCH   8  14
ENDBRANCH   7  11
ENDBRANCH   5   7
ENDBRANCH   1   5
BRANCH   3  17
ATOM     17  N   UNL     1      -4.671  -9.704  -1.224  0.00  0.00    -0.271 N 
ATOM     18  H   UNL     1      -3.880 -10.113  -1.607  0.00  0.00    +0.169 HD
BRANCH  17  19
ATOM     19  C   UNL     1      -5.865 -10.348  -1.283  0.00  0.00    +0.101 C 
ATOM     20  C   UNL     1      -5.927 -11.642  -1.752  0.00  0.00    +0.060 C 
ATOM     21  C   UNL     1      -4.767 -12.550  -1.635  0.00  0.00    +0.000 A 
ATOM     22  C   UNL     1      -3.573 -12.140  -1.052  0.00  0.00    +0.009 A 
ATOM     23  C   UNL     1      -2.518 -13.026  -0.966  0.00  0.00    +0.001 A 
ATOM     24  C   UNL     1      -2.641 -14.318  -1.456  0.00  0.00    +0.001 A 
ATOM     25  C   UNL     1      -3.816 -14.742  -2.038  0.00  0.00    +0.013 A 
ATOM     26  C   UNL     1      -4.895 -13.862  -2.135  0.00  0.00    +0.045 A 
ATOM     27  C   UNL     1      -6.165 -14.274  -2.746  0.00  0.00    +0.251 C 
ATOM     28  O   UNL     1      -6.282 -15.405  -3.179  0.00  0.00    -0.270 OA
ATOM     29  N   UNL     1      -7.200 -13.423  -2.836  0.00  0.00    -0.248 N 
ATOM     30  C   UNL     1      -7.149 -12.162  -2.377  0.00  0.00    +0.252 C 
ATOM     31  O   UNL     1      -8.124 -11.441  -2.484  0.00  0.00    -0.270 OA
ATOM     32  H   UNL     1      -8.022 -13.733  -3.247  0.00  0.00    +0.158 HD
ENDBRANCH  17  19
ENDBRANCH   3  17
TORSDOF 7
