REMARK  Name = ZINC39914622
REMARK  8 active torsions:
REMARK  status: ('A' for Active; 'I' for Inactive)
REMARK    1  A    between atoms: C_1  and  C_2
REMARK    2  A    between atoms: C_4  and  O_34
REMARK    3  A    between atoms: C_5  and  C_9
REMARK    4  A    between atoms: N_17  and  C_28
REMARK    5  A    between atoms: C_18  and  C_20
REMARK    6  A    between atoms: C_23  and  O_26
REMARK    7  A    between atoms: O_26  and  C_27
REMARK    8  A    between atoms: C_28  and  C_29
REMARK                            x       y       z     vdW  Elec       q    Type
REMARK                         _______ _______ _______ _____ _____    ______ ____
ROOT
ATOM      1  C   UNL     1       0.212  -4.496  -0.093  0.00  0.00    +0.102 A 
ATOM      2  C   UNL     1       0.240  -5.224   1.101  0.00  0.00    +0.035 A 
ATOM      3  C   UNL     1       0.193  -6.554   0.733  0.00  0.00    +0.126 A 
ATOM      4  N   UNL     1       0.139  -6.569  -0.632  0.00  0.00    -0.272 N 
ATOM      5  H   UNL     1       0.097  -7.368  -1.180  0.00  0.00    +0.189 HD
ATOM      6  N   UNL     1       0.145  -5.365  -1.083  0.00  0.00    -0.173 NA
ATOM      7  C   UNL     1       0.219  -7.376   1.948  0.00  0.00    +0.266 C 
ATOM      8  O   UNL     1       0.189  -8.592   1.964  0.00  0.00    -0.268 OA
ATOM      9  N   UNL     1       0.281  -6.595   3.041  0.00  0.00    -0.278 N 
ATOM     10  C   UNL     1       0.299  -5.193   2.604  0.00  0.00    +0.142 C 
ENDROOT
BRANCH   1  15
ATOM     11  C   UNL     1       0.332   1.244  -0.595  0.00  0.00    +0.045 C 
ATOM     12  C   UNL     1       0.302  -0.257  -0.465  0.00  0.00    -0.029 A 
ATOM     13  C   UNL     1       1.119  -1.033  -1.267  0.00  0.00    +0.050 A 
ATOM     14  C   UNL     1       1.095  -2.413  -1.152  0.00  0.00    +0.126 A 
ATOM     15  C   UNL     1       0.244  -3.018  -0.223  0.00  0.00    +0.045 A 
ATOM     16  C   UNL     1      -0.575  -2.228   0.580  0.00  0.00    +0.034 A 
ATOM     17  C   UNL     1      -0.538  -0.852   0.460  0.00  0.00    +0.045 A 
ATOM     18 CL   UNL     1      -1.554   0.132   1.466  0.00  0.00    -0.083 Cl
BRANCH  14  19
ATOM     19  O   UNL     1       1.897  -3.176  -1.940  0.00  0.00    -0.506 OA
ATOM     20  H   UNL     1       2.766  -3.357  -1.558  0.00  0.00    +0.292 HD
ENDBRANCH  14  19
ENDBRANCH   1  15
BRANCH  10  21
ATOM     21  C   UNL     1       1.571  -4.524   3.059  0.00  0.00    -0.022 A 
ATOM     22  C   UNL     1       2.789  -5.143   2.850  0.00  0.00    +0.009 A 
ATOM     23  C   UNL     1       3.956  -4.533   3.267  0.00  0.00    +0.046 A 
ATOM     24  C   UNL     1       3.905  -3.297   3.895  0.00  0.00    +0.120 A 
ATOM     25  C   UNL     1       2.681  -2.677   4.103  0.00  0.00    +0.046 A 
ATOM     26  C   UNL     1       1.518  -3.290   3.680  0.00  0.00    +0.009 A 
BRANCH  24  27
ATOM     27  O   UNL     1       5.052  -2.694   4.306  0.00  0.00    -0.495 OA
ATOM     28  C   UNL     1       4.923  -1.423   4.946  0.00  0.00    +0.277 C 
ENDBRANCH  24  27
ENDBRANCH  10  21
BRANCH   9  29
ATOM     29  C   UNL     1       0.323  -7.062   4.429  0.00  0.00    +0.183 C 
BRANCH  29  30
ATOM     30  C   UNL     1       1.756  -7.257   4.850  0.00  0.00    +0.122 A 
ATOM     31  C   UNL     1       2.542  -6.327   5.421  0.00  0.00    +0.046 A 
ATOM     32  C   UNL     1       3.798  -6.935   5.647  0.00  0.00    +0.041 A 
ATOM     33  C   UNL     1       3.705  -8.200   5.200  0.00  0.00    +0.195 A 
ATOM     34  O   UNL     1       2.464  -8.392   4.724  0.00  0.00    -0.466 OA
ENDBRANCH  29  30
ENDBRANCH   9  29
TORSDOF 6
