REMARK  Name = ZINC20712234
REMARK  3 active torsions:
REMARK  status: ('A' for Active; 'I' for Inactive)
REMARK    1  A    between atoms: C_3  and  C_9
REMARK    2  A    between atoms: C_19  and  N_26
REMARK    3  A    between atoms: C_22  and  O_25
REMARK                            x       y       z     vdW  Elec       q    Type
REMARK                         _______ _______ _______ _____ _____    ______ ____
ROOT
ATOM      1  C   UNL     1       3.662  -1.984  -0.980  0.00  0.00    +0.106 C 
ATOM      2  C   UNL     1       2.460  -2.427  -0.171  0.00  0.00    +0.029 C 
ATOM      3  C   UNL     1       1.900  -3.831  -0.424  0.00  0.00    +0.033 C 
ATOM      4  C   UNL     1       0.421  -3.634  -0.085  0.00  0.00    -0.030 C 
ATOM      5  C   UNL     1       0.079  -2.363  -0.270  0.00  0.00    -0.023 C 
ATOM      6  C   UNL     1       1.264  -1.625  -0.773  0.00  0.00    +0.051 C 
ATOM      7  C   UNL     1       1.507  -0.200  -0.460  0.00  0.00    +0.014 A 
ATOM      8  C   UNL     1       0.468   0.679  -0.229  0.00  0.00    +0.132 A 
ATOM      9  C   UNL     1       0.719   2.010   0.042  0.00  0.00    +0.037 A 
ATOM     10  C   UNL     1       2.025   2.466   0.077  0.00  0.00    +0.049 A 
ATOM     11  C   UNL     1       3.071   1.595  -0.150  0.00  0.00    +0.138 A 
ATOM     12  C   UNL     1       2.830   0.241  -0.417  0.00  0.00    +0.076 A 
ATOM     13  N   UNL     1       3.938  -0.585  -0.613  0.00  0.00    -0.334 N 
ATOM     14  H   UNL     1       4.976  -0.239  -0.506  0.00  0.00    +0.147 HD
ENDROOT
BRANCH   1  17
ATOM     15  C   UNL     1       2.595  -1.062  -4.482  0.00  0.00    +0.020 A 
ATOM     16  C   UNL     1       2.872  -0.977  -3.130  0.00  0.00    +0.008 A 
ATOM     17  C   UNL     1       3.355  -2.080  -2.452  0.00  0.00    -0.009 A 
ATOM     18  C   UNL     1       3.551  -3.274  -3.123  0.00  0.00    +0.047 A 
ATOM     19  C   UNL     1       3.268  -3.361  -4.474  0.00  0.00    +0.040 A 
ATOM     20  C   UNL     1       2.790  -2.255  -5.154  0.00  0.00    +0.042 A 
ATOM     21 CL   UNL     1       2.436  -2.364  -6.850  0.00  0.00    -0.083 Cl
ATOM     22 CL   UNL     1       4.150  -4.661  -2.270  0.00  0.00    -0.083 Cl
ENDBRANCH   1  17
BRANCH   8  23
ATOM     23  N   UNL     1      -0.929   0.191  -0.272  0.00  0.00    +0.057 N 
ATOM     24  O   UNL     1      -1.319  -0.455  -1.228  0.00  0.00    -0.126 OA
ATOM     25  O   UNL     1      -1.688   0.435   0.649  0.00  0.00    -0.126 OA
ENDBRANCH   8  23
BRANCH  11  26
ATOM     26  O   UNL     1       4.350   2.056  -0.115  0.00  0.00    -0.505 OA
ATOM     27  H   UNL     1       5.189   1.367  -0.296  0.00  0.00    +0.292 HD
ENDBRANCH  11  26
TORSDOF 3
