REMARK  Name = ZINC05033244
REMARK  6 active torsions:
REMARK  status: ('A' for Active; 'I' for Inactive)
REMARK    1  A    between atoms: C_1  and  C_2
REMARK    2  A    between atoms: C_3  and  C_17
REMARK    3  A    between atoms: C_5  and  C_7
REMARK    4  A    between atoms: C_12  and  N_13
REMARK    5  A    between atoms: N_19  and  C_20
REMARK    6  A    between atoms: C_25  and  C_26
REMARK                            x       y       z     vdW  Elec       q    Type
REMARK                         _______ _______ _______ _____ _____    ______ ____
ROOT
ATOM      1  C   UNL     1      -1.556   4.476   0.018  0.00  0.00    +0.087 C 
ATOM      2  C   UNL     1      -0.717   3.224   0.002  0.00  0.00    +0.115 A 
ATOM      3  C   UNL     1      -1.196   1.945   0.001  0.00  0.00    +0.078 A 
ATOM      4  C   UNL     1      -0.013   1.077  -0.015  0.00  0.00    +0.063 A 
ATOM      5  C   UNL     1       1.057   1.909  -0.030  0.00  0.00    +0.138 A 
ATOM      6  O   UNL     1       0.619   3.181  -0.019  0.00  0.00    -0.459 OA
ENDROOT
BRANCH   5   7
ATOM      7  C   UNL     1       2.474   1.488  -0.053  0.00  0.00    +0.048 A 
ATOM      8  C   UNL     1       2.941   0.547   0.866  0.00  0.00    +0.015 A 
ATOM      9  C   UNL     1       4.263   0.155   0.837  0.00  0.00    +0.021 A 
ATOM     10  C   UNL     1       5.129   0.701  -0.096  0.00  0.00    +0.043 A 
ATOM     11  C   UNL     1       4.673   1.638  -1.007  0.00  0.00    +0.053 A 
ATOM     12  C   UNL     1       3.352   2.034  -0.991  0.00  0.00    +0.138 A 
ATOM     13 CL   UNL     1       6.793   0.206  -0.123  0.00  0.00    -0.083 Cl
BRANCH  12  14
ATOM     14  N   UNL     1       2.866   3.038  -1.965  0.00  0.00    +0.057 N 
ATOM     15  O   UNL     1       3.634   3.514  -2.783  0.00  0.00    -0.126 OA
ATOM     16  O   UNL     1       1.700   3.387  -1.949  0.00  0.00    -0.126 OA
ENDBRANCH  12  14
ENDBRANCH   5   7
BRANCH   3  17
ATOM     17  C   UNL     1      -2.608   1.523   0.016  0.00  0.00    +0.252 C 
ATOM     18  O   UNL     1      -3.492   2.359   0.028  0.00  0.00    -0.270 OA
ATOM     19  N   UNL     1      -2.920   0.212   0.017  0.00  0.00    -0.280 N 
ATOM     20  H   UNL     1      -2.218  -0.453  -0.058  0.00  0.00    +0.155 HD
BRANCH  19  21
ATOM     21  C   UNL     1      -4.250  -0.187   0.126  0.00  0.00    +0.051 A 
ATOM     22  C   UNL     1      -5.256   0.572  -0.456  0.00  0.00    +0.024 A 
ATOM     23  C   UNL     1      -6.573   0.171  -0.352  0.00  0.00    +0.002 A 
ATOM     24  C   UNL     1      -6.903  -0.982   0.342  0.00  0.00    +0.001 A 
ATOM     25  C   UNL     1      -5.918  -1.744   0.932  0.00  0.00    +0.021 A 
ATOM     26  C   UNL     1      -4.580  -1.355   0.830  0.00  0.00    +0.073 A 
BRANCH  26  27
ATOM     27  C   UNL     1      -3.552  -2.143   1.441  0.00  0.00    +0.101 C 
ATOM     28  N   UNL     1      -2.736  -2.768   1.926  0.00  0.00    -0.191 NA
ENDBRANCH  26  27
ENDBRANCH  19  21
ENDBRANCH   3  17
TORSDOF 5
