REMARK  Name = ZINC13305727
REMARK  10 active torsions:
REMARK  status: ('A' for Active; 'I' for Inactive)
REMARK    1  A    between atoms: C_1  and  O_2
REMARK    2  A    between atoms: O_2  and  C_3
REMARK    3  A    between atoms: C_6  and  C_11
REMARK    4  A    between atoms: C_8  and  O_9
REMARK    5  A    between atoms: O_9  and  C_10
REMARK    6  A    between atoms: C_12  and  C_13
REMARK    7  A    between atoms: C_12  and  N_28
REMARK    8  A    between atoms: N_15  and  N_16
REMARK    9  A    between atoms: C_17  and  C_18
REMARK   10  A    between atoms: C_29  and  C_31
REMARK                            x       y       z     vdW  Elec       q    Type
REMARK                         _______ _______ _______ _____ _____    ______ ____
ROOT
ATOM      1  C   UNL     1       2.526   1.048  -0.261  0.00  0.00    +0.036 C 
ATOM      2  C   UNL     1       2.494  -0.265   0.069  0.00  0.00    +0.098 C 
ENDROOT
BRANCH   1   6
ATOM      3  C   UNL     1      -0.888   2.881  -1.994  0.00  0.00    +0.162 A 
ATOM      4  C   UNL     1      -0.419   1.674  -2.495  0.00  0.00    +0.050 A 
ATOM      5  C   UNL     1       0.685   1.072  -1.932  0.00  0.00    +0.012 A 
ATOM      6  C   UNL     1       1.344   1.685  -0.860  0.00  0.00    -0.019 A 
ATOM      7  C   UNL     1       0.874   2.904  -0.359  0.00  0.00    +0.057 A 
ATOM      8  C   UNL     1      -0.237   3.497  -0.926  0.00  0.00    +0.162 A 
BRANCH   3  10
ATOM      9  C   UNL     1      -2.599   2.781  -3.641  0.00  0.00    +0.277 C 
ATOM     10  O   UNL     1      -1.981   3.466  -2.550  0.00  0.00    -0.491 OA
ENDBRANCH   3  10
BRANCH   8  11
ATOM     11  O   UNL     1      -0.697   4.682  -0.443  0.00  0.00    -0.491 OA
ATOM     12  C   UNL     1       0.018   5.256   0.653  0.00  0.00    +0.277 C 
ENDBRANCH   8  11
ENDBRANCH   1   6
BRANCH   2  13
ATOM     13  C   UNL     1       1.221  -0.995   0.052  0.00  0.00    +0.277 C 
ATOM     14  O   UNL     1       0.177  -0.395  -0.128  0.00  0.00    -0.267 OA
ATOM     15  N   UNL     1       1.207  -2.330   0.237  0.00  0.00    -0.202 N 
ATOM     16  H   UNL     1       2.039  -2.809   0.381  0.00  0.00    +0.178 HD
BRANCH  15  17
ATOM     17  N   UNL     1      -0.008  -3.027   0.222  0.00  0.00    -0.187 NA
ATOM     18  C   UNL     1      -0.021  -4.314   0.400  0.00  0.00    +0.140 C 
BRANCH  18  19
ATOM     19  C   UNL     1      -1.298  -5.046   0.383  0.00  0.00    +0.020 A 
ATOM     20  C   UNL     1      -1.469  -6.386   0.548  0.00  0.00    +0.093 A 
ATOM     21  N   UNL     1      -2.796  -6.692   0.472  0.00  0.00    -0.360 N 
ATOM     22  H   UNL     1      -3.164  -7.585   0.561  0.00  0.00    +0.165 HD
ATOM     23  C   UNL     1      -3.537  -5.552   0.245  0.00  0.00    +0.047 A 
ATOM     24  C   UNL     1      -2.640  -4.473   0.179  0.00  0.00    +0.008 A 
ATOM     25  C   UNL     1      -3.116  -3.183  -0.045  0.00  0.00    +0.010 A 
ATOM     26  C   UNL     1      -4.468  -2.972  -0.200  0.00  0.00    +0.001 A 
ATOM     27  C   UNL     1      -5.355  -4.037  -0.135  0.00  0.00    +0.002 A 
ATOM     28  C   UNL     1      -4.899  -5.318   0.085  0.00  0.00    +0.026 A 
ENDBRANCH  18  19
ENDBRANCH  15  17
ENDBRANCH   2  13
BRANCH   2  29
ATOM     29  N   UNL     1       3.675  -0.926   0.424  0.00  0.00    -0.277 N 
ATOM     30  C   UNL     1       3.788  -1.495   1.641  0.00  0.00    +0.248 C 
ATOM     31  O   UNL     1       2.834  -1.515   2.394  0.00  0.00    -0.270 OA
ATOM     32  H   UNL     1       4.412  -0.974  -0.204  0.00  0.00    +0.155 HD
BRANCH  30  33
ATOM     33  C   UNL     1       5.072  -2.095   2.059  0.00  0.00    +0.037 A 
ATOM     34  C   UNL     1       6.168  -2.080   1.194  0.00  0.00    +0.013 A 
ATOM     35  C   UNL     1       7.365  -2.637   1.592  0.00  0.00    +0.001 A 
ATOM     36  C   UNL     1       7.479  -3.221   2.841  0.00  0.00    +0.000 A 
ATOM     37  C   UNL     1       6.395  -3.245   3.701  0.00  0.00    +0.001 A 
ATOM     38  C   UNL     1       5.193  -2.686   3.318  0.00  0.00    +0.013 A 
ENDBRANCH  30  33
ENDBRANCH   2  29
TORSDOF 8
