REMARK  Name = ZINC15936315
REMARK  6 active torsions:
REMARK  status: ('A' for Active; 'I' for Inactive)
REMARK    1  A    between atoms: C_1  and  C_2
REMARK    2  A    between atoms: C_6  and  N_8
REMARK    3  A    between atoms: N_8  and  C_9
REMARK    4  A    between atoms: N_8  and  S_10
REMARK    5  A    between atoms: S_10  and  C_13
REMARK    6  A    between atoms: C_20  and  N_23
REMARK                            x       y       z     vdW  Elec       q    Type
REMARK                         _______ _______ _______ _____ _____    ______ ____
ROOT
ATOM      1  C   UNL     1       0.627  -5.487   2.220  0.00  0.00    +0.134 A 
ATOM      2  C   UNL     1       0.781  -6.270   1.141  0.00  0.00    +0.112 A 
ATOM      3  N   UNL     1       1.889  -7.058   1.290  0.00  0.00    -0.359 N 
ATOM      4  H   UNL     1       2.204  -7.705   0.640  0.00  0.00    +0.165 HD
ATOM      5  C   UNL     1       2.491  -6.795   2.500  0.00  0.00    +0.049 A 
ATOM      6  C   UNL     1       1.731  -5.795   3.133  0.00  0.00    +0.028 A 
ATOM      7  C   UNL     1       2.113  -5.319   4.389  0.00  0.00    +0.044 A 
ATOM      8  C   UNL     1       3.228  -5.826   4.996  0.00  0.00    +0.127 A 
ATOM      9  C   UNL     1       3.983  -6.810   4.373  0.00  0.00    +0.035 A 
ATOM     10  C   UNL     1       3.619  -7.300   3.138  0.00  0.00    +0.028 A 
ENDROOT
BRANCH   1  11
ATOM     11  S   UNL     1      -0.655  -4.308   2.486  0.00  0.00    +0.076 S 
ATOM     12  O   UNL     1      -1.177  -4.560   3.783  0.00  0.00    -0.150 OA
ATOM     13  O   UNL     1      -1.468  -4.323   1.321  0.00  0.00    -0.150 OA
BRANCH  11  14
ATOM     14  N   UNL     1       0.059  -2.814   2.545  0.00  0.00    -0.206 N 
ATOM     15  C   UNL     1       0.384  -2.209   3.839  0.00  0.00    +0.157 C 
BRANCH  14  21
ATOM     16  C   UNL     1       0.791   1.431   0.180  0.00  0.00    +0.044 C 
ATOM     17  C   UNL     1       0.711  -0.073   0.186  0.00  0.00    -0.049 A 
ATOM     18  C   UNL     1       0.927  -0.781  -0.983  0.00  0.00    +0.003 A 
ATOM     19  C   UNL     1       0.855  -2.161  -0.983  0.00  0.00    +0.002 A 
ATOM     20  C   UNL     1       0.567  -2.839   0.186  0.00  0.00    +0.025 A 
ATOM     21  C   UNL     1       0.350  -2.132   1.361  0.00  0.00    +0.051 A 
ATOM     22  C   UNL     1       0.429  -0.745   1.359  0.00  0.00    +0.028 A 
ENDBRANCH  14  21
ENDBRANCH  11  14
ENDBRANCH   1  11
BRANCH   8  23
ATOM     23  N   UNL     1       3.632  -5.321   6.327  0.00  0.00    +0.056 N 
ATOM     24  O   UNL     1       3.034  -4.399   6.831  0.00  0.00    -0.126 OA
ATOM     25  O   UNL     1       4.561  -5.831   6.910  0.00  0.00    -0.126 OA
ENDBRANCH   8  23
TORSDOF 4
