REMARK  Name = ZINC66939356
REMARK  7 active torsions:
REMARK  status: ('A' for Active; 'I' for Inactive)
REMARK    1  A    between atoms: C_1  and  N_2
REMARK    2  A    between atoms: C_3  and  C_5
REMARK    3  A    between atoms: C_5  and  N_6
REMARK    4  A    between atoms: C_9  and  N_12
REMARK    5  A    between atoms: N_12  and  C_13
REMARK    6  A    between atoms: C_13  and  C_15
REMARK    7  A    between atoms: C_13  and  C_22
REMARK                            x       y       z     vdW  Elec       q    Type
REMARK                         _______ _______ _______ _____ _____    ______ ____
ROOT
ATOM      1  N   UNL     1       2.363  -4.656   5.762  0.00  0.00    -0.299 NA
ATOM      2  H   UNL     1       3.346  -4.512   5.584  0.00  0.00    +0.123 HD
ENDROOT
BRANCH   1   6
ATOM      3  N   UNL     1       1.335  -2.669   2.185  0.00  0.00    +0.385 N 
ATOM      4  C   UNL     1       0.587  -2.289   3.390  0.00  0.00    -0.077 C 
ATOM      5  C   UNL     1       1.363  -2.722   4.635  0.00  0.00    -0.000 C 
ATOM      6  C   UNL     1       1.553  -4.242   4.608  0.00  0.00    +0.051 C 
ATOM      7  C   UNL     1       2.269  -4.634   3.313  0.00  0.00    -0.000 C 
ATOM      8  C   UNL     1       1.459  -4.130   2.116  0.00  0.00    -0.077 C 
ATOM      9  H   UNL     1       2.255  -2.256   2.219  0.00  0.00    -0.081 HD
BRANCH   3  10
ATOM     10  C   UNL     1       0.625  -2.182   0.995  0.00  0.00    +0.019 C 
BRANCH  10  13
ATOM     11  C   UNL     1      -0.018   1.461   0.010  0.00  0.00    +0.128 C 
ATOM     12  N   UNL     1       0.002  -0.004   0.002  0.00  0.00    -0.320 N 
ATOM     13  C   UNL     1       0.604  -0.675   1.004  0.00  0.00    +0.196 C 
ATOM     14  O   UNL     1       1.130  -0.067   1.911  0.00  0.00    -0.278 OA
ATOM     15  H   UNL     1      -0.418  -0.491  -0.724  0.00  0.00    +0.148 HD
ENDBRANCH  10  13
ENDBRANCH   3  10
ENDBRANCH   1   6
BRANCH   1  16
ATOM     16  C   UNL     1       2.092  -6.054   6.121  0.00  0.00    +0.171 C 
BRANCH  16  17
ATOM     17  C   UNL     1       2.414  -6.271   7.577  0.00  0.00    -0.021 A 
ATOM     18  C   UNL     1       3.531  -5.674   8.133  0.00  0.00    +0.008 A 
ATOM     19  C   UNL     1       3.827  -5.872   9.468  0.00  0.00    +0.038 A 
ATOM     20  C   UNL     1       3.006  -6.667  10.249  0.00  0.00    +0.123 A 
ATOM     21  C   UNL     1       1.888  -7.264   9.691  0.00  0.00    +0.038 A 
ATOM     22  C   UNL     1       1.591  -7.061   8.357  0.00  0.00    +0.008 A 
ATOM     23  F   UNL     1       3.295  -6.861  11.554  0.00  0.00    -0.205 F 
ENDBRANCH  16  17
BRANCH  16  24
ATOM     24  C   UNL     1       2.946  -6.964   5.276  0.00  0.00    +0.232 C 
ATOM     25  O   UNL     1       3.706  -6.495   4.456  0.00  0.00    -0.274 OA
ATOM     26  N   UNL     1       2.865  -8.301   5.433  0.00  0.00    -0.328 N 
ATOM     27  H   UNL     1       2.257  -8.676   6.088  0.00  0.00    +0.145 HD
ATOM     28  H   UNL     1       3.415  -8.886   4.889  0.00  0.00    +0.145 HD
ENDBRANCH  16  24
ENDBRANCH   1  16
TORSDOF 6
