REMARK  Name = ZINC02415070
REMARK  6 active torsions:
REMARK  status: ('A' for Active; 'I' for Inactive)
REMARK    1  A    between atoms: C_4  and  S_7
REMARK    2  A    between atoms: S_7  and  C_8
REMARK    3  A    between atoms: C_8  and  C_9
REMARK    4  A    between atoms: C_10  and  C_20
REMARK    5  A    between atoms: N_22  and  N_23
REMARK    6  A    between atoms: C_24  and  C_25
REMARK                            x       y       z     vdW  Elec       q    Type
REMARK                         _______ _______ _______ _____ _____    ______ ____
ROOT
ATOM      1  C   UNL     1       4.938  10.082   0.008  0.00  0.00    +0.089 A 
ATOM      2  C   UNL     1       4.825   8.720   0.001  0.00  0.00    +0.173 A 
ATOM      3  N   UNL     1       6.061   8.190  -0.008  0.00  0.00    -0.124 NA
ATOM      4  N   UNL     1       6.936   9.135  -0.016  0.00  0.00    -0.058 NA
ATOM      5  N   UNL     1       6.260  10.364  -0.003  0.00  0.00    -0.191 N 
ATOM      6  C   UNL     1       6.843  11.636  -0.003  0.00  0.00    +0.240 A 
ATOM      7  C   UNL     1       8.280  11.922  -0.014  0.00  0.00    +0.206 A 
ATOM      8  N   UNL     1       8.441  13.216  -0.010  0.00  0.00    -0.032 NA
ATOM      9  O   UNL     1       7.156  13.813   0.005  0.00  0.00    -0.239 OA
ATOM     10  N   UNL     1       6.199  12.769   0.003  0.00  0.00    -0.027 NA
ATOM     11  N   UNL     1       9.298  10.975  -0.028  0.00  0.00    -0.337 N 
ATOM     12  H   UNL     1       9.081  10.029  -0.030  0.00  0.00    +0.144 HD
ATOM     13  H   UNL     1      10.225  11.260  -0.035  0.00  0.00    +0.144 HD
ENDROOT
BRANCH   2  14
ATOM     14  C   UNL     1       3.561   7.960   0.010  0.00  0.00    +0.285 C 
ATOM     15  O   UNL     1       2.498   8.550   0.024  0.00  0.00    -0.267 OA
ATOM     16  N   UNL     1       3.585   6.613   0.002  0.00  0.00    -0.202 N 
ATOM     17  H   UNL     1       4.434   6.143  -0.009  0.00  0.00    +0.178 HD
BRANCH  16  18
ATOM     18  N   UNL     1       2.385   5.891   0.010  0.00  0.00    -0.187 NA
ATOM     19  C   UNL     1       2.408   4.593   0.003  0.00  0.00    +0.138 C 
BRANCH  19  20
ATOM     20  C   UNL     1       1.144   3.833   0.012  0.00  0.00    -0.004 A 
ATOM     21  C   UNL     1      -0.080   4.508   0.027  0.00  0.00    +0.011 A 
ATOM     22  C   UNL     1      -1.258   3.792   0.034  0.00  0.00    +0.022 A 
ATOM     23  C   UNL     1      -1.232   2.407   0.021  0.00  0.00    +0.059 A 
ATOM     24  C   UNL     1      -0.021   1.732   0.012  0.00  0.00    +0.060 A 
ATOM     25  C   UNL     1       1.165   2.437   0.004  0.00  0.00    +0.031 A 
ATOM     26 CL   UNL     1       0.002  -0.004   0.002  0.00  0.00    -0.082 Cl
ATOM     27 CL   UNL     1      -2.720   1.514   0.023  0.00  0.00    -0.082 Cl
ENDBRANCH  19  20
ENDBRANCH  16  18
ENDBRANCH   2  14
BRANCH   1  28
ATOM     28  C   UNL     1       3.807  11.077   0.023  0.00  0.00    +0.132 C 
BRANCH  28  29
ATOM     29  S   UNL     1       3.338  11.485  -1.681  0.00  0.00    -0.119 S 
BRANCH  29  33
ATOM     30  C   UNL     1      -0.042  14.463  -1.203  0.00  0.00    +0.000 A 
ATOM     31  C   UNL     1       0.376  14.090  -2.468  0.00  0.00    +0.001 A 
ATOM     32  C   UNL     1       1.406  13.183  -2.618  0.00  0.00    +0.015 A 
ATOM     33  C   UNL     1       2.023  12.643  -1.495  0.00  0.00    +0.008 A 
ATOM     34  C   UNL     1       1.596  13.015  -0.226  0.00  0.00    +0.015 A 
ATOM     35  C   UNL     1       0.570  13.928  -0.084  0.00  0.00    +0.001 A 
ENDBRANCH  29  33
ENDBRANCH  28  29
ENDBRANCH   1  28
TORSDOF 6
