REMARK  Name = ZINC19190995
REMARK  8 active torsions:
REMARK  status: ('A' for Active; 'I' for Inactive)
REMARK    1  A    between atoms: C_1  and  C_2
REMARK    2  A    between atoms: C_2  and  C_3
REMARK    3  A    between atoms: C_2  and  C_4
REMARK    4  A    between atoms: C_7  and  C_10
REMARK    5  A    between atoms: C_10  and  C_30
REMARK    6  A    between atoms: N_13  and  C_17
REMARK    7  A    between atoms: C_17  and  C_18
REMARK    8  A    between atoms: C_20  and  C_23
REMARK                            x       y       z     vdW  Elec       q    Type
REMARK                         _______ _______ _______ _____ _____    ______ ____
ROOT
ATOM      1  C   UNL     1       2.451   3.937  -0.001  0.00  0.00    +0.135 C 
ATOM      2  C   UNL     1       2.287   5.262   0.717  0.00  0.00    +0.251 C 
ATOM      3  O   UNL     1       1.541   6.169   0.418  0.00  0.00    -0.272 OA
ATOM      4  N   UNL     1       3.143   5.221   1.757  0.00  0.00    -0.215 N 
ATOM      5  C   UNL     1       3.818   4.066   1.796  0.00  0.00    +0.310 C 
ATOM      6  O   UNL     1       4.647   3.796   2.643  0.00  0.00    -0.252 OA
ATOM      7  N   UNL     1       3.476   3.237   0.792  0.00  0.00    -0.281 N 
ATOM      8  C   UNL     1       2.934   4.158  -1.436  0.00  0.00    +0.047 C 
ATOM      9  H   UNL     1       3.804   2.229   0.501  0.00  0.00    +0.152 HD
ENDROOT
BRANCH   1  13
ATOM     10  C   UNL     1      -1.219   1.751   0.017  0.00  0.00    -0.045 A 
ATOM     11  C   UNL     1      -0.013   1.076   0.008  0.00  0.00    +0.004 A 
ATOM     12  C   UNL     1       1.175   1.783   0.000  0.00  0.00    +0.006 A 
ATOM     13  C   UNL     1       1.156   3.165   0.008  0.00  0.00    -0.015 A 
ATOM     14  C   UNL     1      -0.050   3.840   0.022  0.00  0.00    +0.006 A 
ATOM     15  C   UNL     1      -1.238   3.133   0.030  0.00  0.00    +0.004 A 
BRANCH  10  17
ATOM     16  C   UNL     1      -3.315   1.331   1.274  0.00  0.00    +0.012 C 
ATOM     17  C   UNL     1      -2.514   0.980   0.019  0.00  0.00    +0.013 C 
ATOM     18  C   UNL     1      -3.327   1.345  -1.224  0.00  0.00    +0.012 C 
ENDBRANCH  10  17
ENDBRANCH   1  13
BRANCH   4  19
ATOM     19  C   UNL     1       3.314   6.307   2.725  0.00  0.00    +0.216 C 
BRANCH  19  20
ATOM     20  C   UNL     1       2.356   6.113   3.872  0.00  0.00    +0.246 A 
ATOM     21  N   UNL     1       2.584   5.439   4.972  0.00  0.00    -0.190 NA
ATOM     22  C   UNL     1       1.450   5.541   5.702  0.00  0.00    +0.202 A 
ATOM     23  N   UNL     1       0.606   6.256   5.006  0.00  0.00    -0.056 NA
ATOM     24  O   UNL     1       1.110   6.592   3.955  0.00  0.00    -0.336 OA
BRANCH  22  25
ATOM     25  C   UNL     1       1.208   4.946   7.040  0.00  0.00    +0.023 A 
ATOM     26  C   UNL     1      -0.019   5.130   7.675  0.00  0.00    +0.012 A 
ATOM     27  C   UNL     1      -0.239   4.575   8.919  0.00  0.00    +0.002 A 
ATOM     28  C   UNL     1       0.755   3.837   9.536  0.00  0.00    +0.015 A 
ATOM     29  C   UNL     1       1.975   3.651   8.910  0.00  0.00    +0.019 A 
ATOM     30  C   UNL     1       2.204   4.198   7.663  0.00  0.00    +0.027 A 
ATOM     31 BR   UNL     1       3.328   2.641   9.761  0.00  0.00    -0.050 Br
ENDBRANCH  22  25
ENDBRANCH  19  20
ENDBRANCH   4  19
TORSDOF 5
