REMARK  Name = ZINC39552361
REMARK  6 active torsions:
REMARK  status: ('A' for Active; 'I' for Inactive)
REMARK    1  A    between atoms: C_1  and  C_2
REMARK    2  A    between atoms: C_2  and  C_3
REMARK    3  A    between atoms: C_3  and  C_4
REMARK    4  A    between atoms: C_7  and  C_10
REMARK    5  A    between atoms: C_18  and  C_20
REMARK    6  A    between atoms: C_22  and  C_27
REMARK                            x       y       z     vdW  Elec       q    Type
REMARK                         _______ _______ _______ _____ _____    ______ ____
ROOT
ATOM      1  C   UNL     1      -1.301  -5.717   0.949  0.00  0.00    +0.158 C 
ATOM      2  C   UNL     1       0.036  -6.410   0.949  0.00  0.00    -0.002 C 
ATOM      3  C   UNL     1       0.035  -7.168   2.050  0.00  0.00    +0.066 C 
ATOM      4  C   UNL     1       1.198  -8.045   2.457  0.00  0.00    +0.076 C 
ATOM      5  C   UNL     1       2.098  -8.275   1.238  0.00  0.00    +0.114 C 
ATOM      6  N   UNL     1       2.325  -6.995   0.550  0.00  0.00    -0.292 N 
ATOM      7  C   UNL     1       1.159  -6.314  -0.044  0.00  0.00    +0.143 C 
ATOM      8  C   UNL     1       3.560  -6.461   0.466  0.00  0.00    +0.265 C 
ATOM      9  O   UNL     1       4.486  -6.974   1.062  0.00  0.00    -0.268 OA
ATOM     10  N   UNL     1      -1.136  -7.019   2.709  0.00  0.00    -0.182 NA
ATOM     11  N   UNL     1      -1.938  -6.239   2.175  0.00  0.00    -0.297 N 
ATOM     12  H   UNL     1      -2.822  -6.010   2.501  0.00  0.00    +0.183 HD
ENDROOT
BRANCH   8  13
ATOM     13  C   UNL     1       3.788  -5.246  -0.356  0.00  0.00    +0.131 A 
ATOM     14  C   UNL     1       5.023  -4.597  -0.332  0.00  0.00    +0.056 A 
ATOM     15  C   UNL     1       5.189  -3.465  -1.117  0.00  0.00    +0.044 A 
ATOM     16  N   UNL     1       4.181  -3.039  -1.858  0.00  0.00    -0.220 NA
ATOM     17  C   UNL     1       3.019  -3.677  -1.860  0.00  0.00    +0.213 A 
ATOM     18  N   UNL     1       2.820  -4.763  -1.130  0.00  0.00    -0.210 NA
ATOM     19  N   UNL     1       1.988  -3.198  -2.650  0.00  0.00    -0.327 N 
ATOM     20  C   UNL     1       6.504  -2.729  -1.124  0.00  0.00    +0.066 C 
ATOM     21  H   UNL     1       2.122  -2.405  -3.193  0.00  0.00    +0.145 HD
ATOM     22  H   UNL     1       1.133  -3.655  -2.661  0.00  0.00    +0.145 HD
ENDBRANCH   8  13
BRANCH   1  26
ATOM     23  C   UNL     1      -0.817  -1.479   1.180  0.00  0.00    -0.047 A 
ATOM     24  C   UNL     1      -1.123  -2.075  -0.029  0.00  0.00    +0.004 A 
ATOM     25  C   UNL     1      -1.280  -3.446  -0.104  0.00  0.00    +0.006 A 
ATOM     26  C   UNL     1      -1.129  -4.222   1.031  0.00  0.00    -0.020 A 
ATOM     27  C   UNL     1      -0.822  -3.626   2.240  0.00  0.00    +0.006 A 
ATOM     28  C   UNL     1      -0.661  -2.255   2.313  0.00  0.00    +0.004 A 
BRANCH  23  29
ATOM     29  C   UNL     1      -0.646   0.016   1.261  0.00  0.00    +0.035 C 
BRANCH  29  31
ATOM     30  C   UNL     1       0.991   1.895   1.080  0.00  0.00    +0.004 C 
ATOM     31  C   UNL     1       0.817   0.377   0.997  0.00  0.00    +0.001 C 
ENDBRANCH  29  31
ENDBRANCH  23  29
ENDBRANCH   1  26
TORSDOF 4
