REMARK  Name = ZINC11652645
REMARK  9 active torsions:
REMARK  status: ('A' for Active; 'I' for Inactive)
REMARK    1  A    between atoms: C_1  and  C_2
REMARK    2  A    between atoms: C_3  and  C_16
REMARK    3  A    between atoms: C_4  and  C_15
REMARK    4  A    between atoms: C_16  and  C_17
REMARK    5  A    between atoms: C_17  and  C_18
REMARK    6  A    between atoms: N_20  and  C_21
REMARK    7  A    between atoms: C_21  and  C_22
REMARK    8  A    between atoms: C_22  and  C_24
REMARK    9  A    between atoms: C_22  and  N_64
REMARK                            x       y       z     vdW  Elec       q    Type
REMARK                         _______ _______ _______ _____ _____    ______ ____
ROOT
ATOM      1  C   UNL     1      -1.198   1.583   0.050  0.00  0.00    +0.213 C 
ATOM      2  O   UNL     1      -1.232   2.787   0.193  0.00  0.00    -0.276 OA
ATOM      3  N   UNL     1      -0.012   0.945  -0.009  0.00  0.00    -0.317 N 
ATOM      4  H   UNL     1       0.015  -0.018  -0.124  0.00  0.00    +0.149 HD
ENDROOT
BRANCH   1   5
ATOM      5  C   UNL     1      -2.481   0.801  -0.062  0.00  0.00    +0.100 C 
BRANCH   5   6
ATOM      6  C   UNL     1      -3.671   1.757   0.035  0.00  0.00    +0.048 C 
BRANCH   6   9
ATOM      7  C   UNL     1      -4.957   0.696   2.424  0.00  0.00    +0.066 C 
ATOM      8  C   UNL     1      -5.574   0.465   1.069  0.00  0.00    +0.045 A 
ATOM      9  C   UNL     1      -4.955   0.975  -0.077  0.00  0.00    -0.005 A 
ATOM     10  C   UNL     1      -5.525   0.762  -1.291  0.00  0.00    +0.047 A 
ATOM     11  N   UNL     1      -6.683   0.047  -1.366  0.00  0.00    -0.217 N 
ATOM     12  C   UNL     1      -7.256  -0.434  -0.223  0.00  0.00    +0.164 A 
ATOM     13  N   UNL     1      -6.694  -0.217   0.965  0.00  0.00    -0.232 NA
ATOM     14  C   UNL     1      -8.430  -1.119  -0.607  0.00  0.00    +0.046 A 
ATOM     15  C   UNL     1      -9.419  -1.811   0.106  0.00  0.00    +0.014 A 
ATOM     16  C   UNL     1     -10.460  -2.381  -0.561  0.00  0.00    +0.001 A 
ATOM     17  C   UNL     1     -10.558  -2.287  -1.949  0.00  0.00    +0.002 A 
ATOM     18  C   UNL     1      -9.618  -1.625  -2.675  0.00  0.00    +0.030 A 
ATOM     19  C   UNL     1      -8.525  -1.021  -2.020  0.00  0.00    +0.095 A 
ATOM     20  N   UNL     1      -7.480  -0.325  -2.456  0.00  0.00    -0.165 NA
ATOM     21  C   UNL     1      -4.883   1.306  -2.541  0.00  0.00    +0.066 C 
ENDBRANCH   6   9
ENDBRANCH   5   6
ENDBRANCH   1   5
BRANCH   3  22
ATOM     22  C   UNL     1       1.235   1.707   0.093  0.00  0.00    +0.093 C 
BRANCH  22  23
ATOM     23  C   UNL     1       2.422   0.741   0.109  0.00  0.00    -0.020 C 
BRANCH  23  24
ATOM     24  C   UNL     1       2.507   0.029  -1.217  0.00  0.00    -0.059 A 
ATOM     25  C   UNL     1       3.074   0.663  -2.307  0.00  0.00    +0.002 A 
ATOM     26  C   UNL     1       3.157   0.008  -3.521  0.00  0.00    +0.000 A 
ATOM     27  C   UNL     1       2.663  -1.277  -3.649  0.00  0.00    +0.000 A 
ATOM     28  C   UNL     1       2.092  -1.909  -2.560  0.00  0.00    +0.000 A 
ATOM     29  C   UNL     1       2.014  -1.256  -1.344  0.00  0.00    +0.002 A 
ENDBRANCH  23  24
BRANCH  23  34
ATOM     30  C   UNL     1       3.603   2.233   1.628  0.00  0.00    -0.078 C 
ATOM     31  C   UNL     1       5.095   2.502   1.951  0.00  0.00    -0.020 C 
ATOM     32  C   UNL     1       5.791   1.207   1.474  0.00  0.00    -0.020 C 
ATOM     33  C   UNL     1       4.822   0.582   0.452  0.00  0.00    -0.078 C 
ATOM     34  N   UNL     1       3.686   1.500   0.355  0.00  0.00    +0.385 N 
ATOM     35  H   UNL     1       3.838   2.160  -0.416  0.00  0.00    -0.081 HD
ENDBRANCH  23  34
ENDBRANCH  22  23
ENDBRANCH   3  22
TORSDOF 7
