REMARK  Name = ZINC12565749
REMARK  10 active torsions:
REMARK  status: ('A' for Active; 'I' for Inactive)
REMARK    1  A    between atoms: C_1  and  C_2
REMARK    2  A    between atoms: C_2  and  O_3
REMARK    3  A    between atoms: O_3  and  C_4
REMARK    4  A    between atoms: C_4  and  C_6
REMARK    5  A    between atoms: C_10  and  N_11
REMARK    6  A    between atoms: C_12  and  C_14
REMARK    7  A    between atoms: C_14  and  C_16
REMARK    8  A    between atoms: C_14  and  N_71
REMARK    9  A    between atoms: C_22  and  N_71
REMARK   10  A    between atoms: C_31  and  C_35
REMARK                            x       y       z     vdW  Elec       q    Type
REMARK                         _______ _______ _______ _____ _____    ______ ____
ROOT
ATOM      1  N   UNL     1      -1.793   1.685  -2.372  0.00  0.00    -0.280 N 
ATOM      2  C   UNL     1      -1.656   2.582  -1.375  0.00  0.00    +0.208 C 
ATOM      3  O   UNL     1      -1.795   3.765  -1.601  0.00  0.00    -0.277 OA
ATOM      4  H   UNL     1      -1.682   0.739  -2.192  0.00  0.00    +0.155 HD
ENDROOT
BRANCH   1   9
ATOM      5  C   UNL     1      -2.263   1.354  -4.803  0.00  0.00    +0.091 A 
ATOM      6  C   UNL     1      -2.578   2.058  -6.035  0.00  0.00    -0.021 A 
ATOM      7  C   UNL     1      -2.660   3.401  -5.926  0.00  0.00    -0.004 A 
ATOM      8  S   UNL     1      -2.333   3.737  -4.218  0.00  0.00    -0.077 S 
ATOM      9  C   UNL     1      -2.091   2.116  -3.656  0.00  0.00    +0.086 A 
ATOM     10  C   UNL     1      -2.963   4.380  -7.018  0.00  0.00    +0.046 C 
ATOM     11  C   UNL     1      -3.538   3.607  -8.214  0.00  0.00    -0.009 C 
ATOM     12  C   UNL     1      -2.645   2.395  -8.494  0.00  0.00    +0.008 C 
ATOM     13  C   UNL     1      -2.801   1.365  -7.374  0.00  0.00    +0.037 C 
ATOM     14  C   UNL     1      -3.572   4.517  -9.444  0.00  0.00    +0.008 C 
BRANCH   5  15
ATOM     15  C   UNL     1      -2.136  -0.105  -4.773  0.00  0.00    +0.342 C 
ATOM     16  O   UNL     1      -3.112  -0.796  -4.550  0.00  0.00    -0.245 OA
BRANCH  15  17
ATOM     17  O   UNL     1      -0.937  -0.682  -4.992  0.00  0.00    -0.461 OA
BRANCH  17  19
ATOM     18  C   UNL     1       0.546  -2.601  -5.216  0.00  0.00    +0.048 C 
ATOM     19  C   UNL     1      -0.885  -2.133  -4.947  0.00  0.00    +0.229 C 
ENDBRANCH  17  19
ENDBRANCH  15  17
ENDBRANCH   5  15
ENDBRANCH   1   9
BRANCH   2  20
ATOM     20  C   UNL     1      -1.332   2.114   0.020  0.00  0.00    +0.047 C 
BRANCH  20  21
ATOM     21  C   UNL     1      -0.017   1.378   0.010  0.00  0.00    -0.053 A 
ATOM     22  C   UNL     1       1.171   2.086   0.002  0.00  0.00    +0.002 A 
ATOM     23  C   UNL     1       2.377   1.411  -0.014  0.00  0.00    +0.000 A 
ATOM     24  C   UNL     1       2.396   0.029  -0.022  0.00  0.00    +0.000 A 
ATOM     25  C   UNL     1       1.208  -0.679  -0.014  0.00  0.00    +0.000 A 
ATOM     26  C   UNL     1       0.002  -0.004   0.002  0.00  0.00    +0.002 A 
ENDBRANCH  20  21
BRANCH  20  27
ATOM     27  N   UNL     1      -1.235   3.284   0.913  0.00  0.00    +0.391 N 
ATOM     28  H   UNL     1      -1.917   3.992   0.619  0.00  0.00    -0.084 HD
ATOM     29  H   UNL     1      -0.288   3.676   0.855  0.00  0.00    -0.084 HD
BRANCH  27  30
ATOM     30  C   UNL     1      -1.513   2.889   2.307  0.00  0.00    -0.070 C 
ATOM     31  C   UNL     1      -3.024   2.907   2.550  0.00  0.00    -0.016 C 
ATOM     32  C   UNL     1      -3.342   2.142   3.836  0.00  0.00    -0.002 C 
ATOM     33  C   UNL     1      -2.534   0.843   3.871  0.00  0.00    -0.000 C 
ATOM     34  C   UNL     1      -1.504   0.913   5.000  0.00  0.00    -0.000 C 
ATOM     35  C   UNL     1      -0.343   1.814   4.575  0.00  0.00    -0.000 C 
ATOM     36  C   UNL     1      -0.775   3.279   4.661  0.00  0.00    -0.002 C 
ATOM     37  C   UNL     1      -0.832   3.878   3.255  0.00  0.00    -0.016 C 
ENDBRANCH  27  30
ENDBRANCH  20  27
ENDBRANCH   2  20
TORSDOF 8
