REMARK  Name = ZINC22085203
REMARK  9 active torsions:
REMARK  status: ('A' for Active; 'I' for Inactive)
REMARK    1  A    between atoms: C_1  and  C_2
REMARK    2  A    between atoms: C_2  and  C_4
REMARK    3  A    between atoms: C_2  and  S_18
REMARK    4  A    between atoms: N_6  and  C_7
REMARK    5  A    between atoms: S_18  and  C_19
REMARK    6  A    between atoms: C_22  and  C_25
REMARK    7  A    between atoms: N_23  and  N_24
REMARK    8  A    between atoms: C_25  and  O_26
REMARK    9  A    between atoms: O_26  and  C_27
REMARK                            x       y       z     vdW  Elec       q    Type
REMARK                         _______ _______ _______ _____ _____    ______ ____
ROOT
ATOM      1  S   UNL     1       7.523   2.693  -0.534  0.00  0.00    -0.072 S 
ENDROOT
BRANCH   1   2
ATOM      2  C   UNL     1       8.514   3.305  -1.856  0.00  0.00    +0.209 A 
ATOM      3  N   UNL     1       8.302   3.125  -3.139  0.00  0.00    -0.121 NA
ATOM      4  N   UNL     1       9.220   3.712  -3.821  0.00  0.00    -0.128 NA
ATOM      5  C   UNL     1      10.070   4.289  -3.020  0.00  0.00    +0.189 A 
ATOM      6  N   UNL     1       9.652   4.051  -1.740  0.00  0.00    -0.225 N 
BRANCH   6   7
ATOM      7  N   UNL     1      10.248   4.472  -0.586  0.00  0.00    -0.295 N 
ATOM      8  H   UNL     1      11.169   5.072  -0.629  0.00  0.00    +0.163 HD
ATOM      9  H   UNL     1       9.807   4.211   0.388  0.00  0.00    +0.163 HD
ENDBRANCH   6   7
BRANCH   5  10
ATOM     10  C   UNL     1      11.290   5.074  -3.429  0.00  0.00    +0.306 C 
BRANCH  10  11
ATOM     11  O   UNL     1      12.412   4.195  -3.528  0.00  0.00    -0.481 OA
BRANCH  11  12
ATOM     12  C   UNL     1      13.600   4.748  -3.890  0.00  0.00    +0.156 A 
ATOM     13  C   UNL     1      13.683   6.107  -4.150  0.00  0.00    +0.048 A 
ATOM     14  C   UNL     1      14.892   6.668  -4.514  0.00  0.00    +0.004 A 
ATOM     15  C   UNL     1      16.018   5.874  -4.628  0.00  0.00    +0.003 A 
ATOM     16  C   UNL     1      15.939   4.517  -4.374  0.00  0.00    +0.042 A 
ATOM     17  C   UNL     1      14.732   3.951  -4.005  0.00  0.00    +0.165 A 
ATOM     18  F   UNL     1      14.654   2.625  -3.757  0.00  0.00    -0.202 F 
ENDBRANCH  11  12
ENDBRANCH  10  11
ENDBRANCH   5  10
ENDBRANCH   1   2
BRANCH   1  20
ATOM     19  C   UNL     1       5.437   2.845  -2.290  0.00  0.00    +0.029 C 
ATOM     20  C   UNL     1       6.241   1.830  -1.475  0.00  0.00    +0.137 C 
BRANCH  20  21
ATOM     21  C   UNL     1       5.321   1.107  -0.525  0.00  0.00    +0.227 C 
ATOM     22  O   UNL     1       5.202   1.496   0.617  0.00  0.00    -0.275 OA
ATOM     23  N   UNL     1       4.631   0.029  -0.946  0.00  0.00    -0.308 N 
ATOM     24  H   UNL     1       4.739  -0.324  -1.982  0.00  0.00    +0.149 HD
BRANCH  23  25
ATOM     25  C   UNL     1       3.737  -0.675  -0.022  0.00  0.00    +0.103 C 
ATOM     26  C   UNL     1       3.599  -2.130  -0.465  0.00  0.00    +0.027 C 
ATOM     27  C   UNL     1       2.501  -2.789   0.378  0.00  0.00    +0.007 C 
ATOM     28  C   UNL     1       1.155  -2.199  -0.036  0.00  0.00    +0.035 C 
ATOM     29  C   UNL     1       1.208  -0.693  -0.014  0.00  0.00    -0.042 A 
ATOM     30  C   UNL     1       2.393   0.007  -0.016  0.00  0.00    -0.024 A 
ATOM     31  C   UNL     1       2.372   1.395  -0.011  0.00  0.00    +0.006 A 
ATOM     32  C   UNL     1       1.174   2.078   0.002  0.00  0.00    +0.000 A 
ATOM     33  C   UNL     1      -0.017   1.375   0.010  0.00  0.00    +0.000 A 
ATOM     34  C   UNL     1       0.002  -0.004   0.002  0.00  0.00    +0.004 A 
ENDBRANCH  23  25
ENDBRANCH  20  21
ENDBRANCH   1  20
TORSDOF 8
