REMARK  Name = ZINC40036100
REMARK  9 active torsions:
REMARK  status: ('A' for Active; 'I' for Inactive)
REMARK    1  A    between atoms: C_1  and  C_2
REMARK    2  A    between atoms: C_2  and  C_3
REMARK    3  A    between atoms: C_3  and  C_4
REMARK    4  A    between atoms: C_4  and  C_38
REMARK    5  A    between atoms: N_16  and  C_31
REMARK    6  A    between atoms: N_19  and  N_20
REMARK    7  A    between atoms: C_21  and  C_22
REMARK    8  A    between atoms: C_27  and  N_28
REMARK    9  A    between atoms: C_34  and  C_37
REMARK                            x       y       z     vdW  Elec       q    Type
REMARK                         _______ _______ _______ _____ _____    ______ ____
ROOT
ATOM      1  C   UNL     1      -1.333  -2.305  -2.640  0.00  0.00    +0.004 C 
ATOM      2  C   UNL     1      -0.781  -2.258  -4.062  0.00  0.00    +0.047 C 
ATOM      3  C   UNL     1       0.682  -1.907  -4.050  0.00  0.00    -0.037 A 
ATOM      4  C   UNL     1       1.222  -1.127  -5.052  0.00  0.00    +0.004 A 
ATOM      5  C   UNL     1       2.569  -0.812  -5.035  0.00  0.00    +0.000 A 
ATOM      6  C   UNL     1       3.384  -1.276  -4.019  0.00  0.00    +0.001 A 
ATOM      7  C   UNL     1       2.856  -2.058  -3.010  0.00  0.00    +0.010 A 
ATOM      8  C   UNL     1       1.501  -2.374  -3.021  0.00  0.00    +0.004 A 
ATOM      9  C   UNL     1       0.904  -3.201  -1.948  0.00  0.00    +0.084 A 
ATOM     10  C   UNL     1      -0.471  -3.171  -1.766  0.00  0.00    +0.050 A 
ATOM     11  C   UNL     1      -1.035  -3.961  -0.756  0.00  0.00    +0.264 A 
ATOM     12  O   UNL     1      -2.241  -3.963  -0.567  0.00  0.00    -0.267 OA
ATOM     13  N   UNL     1      -0.217  -4.720   0.005  0.00  0.00    -0.248 N 
ATOM     14  C   UNL     1       1.130  -4.707  -0.212  0.00  0.00    +0.223 A 
ATOM     15  N   UNL     1       1.666  -3.968  -1.162  0.00  0.00    -0.214 NA
ATOM     16  N   UNL     1       1.943  -5.481   0.575  0.00  0.00    -0.206 N 
ATOM     17  C   UNL     1      -2.753  -2.874  -2.669  0.00  0.00    +0.017 C 
ATOM     18  H   UNL     1       1.556  -6.067   1.243  0.00  0.00    +0.177 HD
ENDROOT
BRANCH  13  19
ATOM     19  C   UNL     1      -0.752  -5.522   1.020  0.00  0.00    +0.053 A 
ATOM     20  C   UNL     1      -0.670  -5.115   2.345  0.00  0.00    +0.026 A 
ATOM     21  C   UNL     1      -1.199  -5.908   3.344  0.00  0.00    +0.005 A 
ATOM     22  C   UNL     1      -1.810  -7.107   3.026  0.00  0.00    -0.050 A 
ATOM     23  C   UNL     1      -1.894  -7.515   1.708  0.00  0.00    +0.005 A 
ATOM     24  C   UNL     1      -1.372  -6.723   0.704  0.00  0.00    +0.026 A 
ATOM     25  C   UNL     1      -2.387  -7.970   4.119  0.00  0.00    +0.044 C 
ENDBRANCH  13  19
BRANCH  16  26
ATOM     26  N   UNL     1       3.334  -5.425   0.413  0.00  0.00    -0.187 NA
ATOM     27  C   UNL     1       4.103  -6.158   1.158  0.00  0.00    +0.140 C 
BRANCH  27  28
ATOM     28  C   UNL     1       5.567  -6.099   0.988  0.00  0.00    +0.025 A 
ATOM     29  C   UNL     1       6.121  -5.400  -0.087  0.00  0.00    +0.012 A 
ATOM     30  C   UNL     1       7.491  -5.349  -0.240  0.00  0.00    +0.001 A 
ATOM     31  C   UNL     1       8.316  -5.988   0.669  0.00  0.00    +0.002 A 
ATOM     32  C   UNL     1       7.774  -6.681   1.737  0.00  0.00    +0.033 A 
ATOM     33  C   UNL     1       6.406  -6.737   1.905  0.00  0.00    +0.135 A 
BRANCH  33  34
ATOM     34  N   UNL     1       5.829  -7.474   3.051  0.00  0.00    +0.057 N 
ATOM     35  O   UNL     1       6.544  -8.136   3.766  0.00  0.00    -0.126 OA
ATOM     36  O   UNL     1       4.641  -7.414   3.272  0.00  0.00    -0.126 OA
ENDBRANCH  33  34
ENDBRANCH  27  28
ENDBRANCH  16  26
BRANCH   1  37
ATOM     37  C   UNL     1      -1.370  -0.888  -2.066  0.00  0.00    +0.011 C 
BRANCH  37  39
ATOM     38  C   UNL     1      -1.986   0.492  -0.076  0.00  0.00    +0.004 C 
ATOM     39  C   UNL     1      -1.949  -0.925  -0.650  0.00  0.00    -0.003 C 
ENDBRANCH  37  39
ENDBRANCH   1  37
TORSDOF 6
