REMARK  Name = ZINC40986254
REMARK  13 active torsions:
REMARK  status: ('A' for Active; 'I' for Inactive)
REMARK    1  A    between atoms: C_1  and  C_2
REMARK    2  A    between atoms: C_2  and  C_3
REMARK    3  A    between atoms: C_3  and  C_4
REMARK    4  A    between atoms: C_4  and  S_5
REMARK    5  A    between atoms: S_5  and  C_8
REMARK    6  A    between atoms: C_11  and  C_15
REMARK    7  A    between atoms: N_17  and  C_18
REMARK    8  A    between atoms: C_18  and  C_19
REMARK    9  A    between atoms: C_19  and  C_21
REMARK   10  A    between atoms: C_19  and  N_30
REMARK   11  A    between atoms: C_24  and  C_27
REMARK   12  A    between atoms: C_27  and  C_28
REMARK   13  A    between atoms: C_27  and  C_29
REMARK                            x       y       z     vdW  Elec       q    Type
REMARK                         _______ _______ _______ _____ _____    ______ ____
ROOT
ATOM      1  C   UNL     1       1.252 -11.107  -3.772  0.00  0.00    +0.248 C 
ATOM      2  O   UNL     1       0.268 -10.531  -3.352  0.00  0.00    -0.270 OA
ATOM      3  N   UNL     1       2.322 -11.285  -2.972  0.00  0.00    -0.312 N 
ATOM      4  H   UNL     1       3.107 -11.745  -3.308  0.00  0.00    +0.149 HD
ENDROOT
BRANCH   1   8
ATOM      5  C   UNL     1       1.318 -12.529  -7.678  0.00  0.00    +0.272 A 
ATOM      6  N   UNL     1       2.376 -12.713  -6.913  0.00  0.00    -0.219 NA
ATOM      7  C   UNL     1       2.398 -12.278  -5.665  0.00  0.00    +0.130 A 
ATOM      8  C   UNL     1       1.276 -11.612  -5.161  0.00  0.00    +0.092 A 
ATOM      9  C   UNL     1       0.174 -11.438  -6.010  0.00  0.00    +0.146 A 
ATOM     10  N   UNL     1       0.241 -11.903  -7.247  0.00  0.00    -0.199 NA
ATOM     11 CL   UNL     1      -1.251 -10.621  -5.450  0.00  0.00    -0.061 Cl
BRANCH   5  12
ATOM     12  S   UNL     1       1.348 -13.132  -9.334  0.00  0.00    +0.032 S 
ATOM     13  O   UNL     1      -0.017 -13.344  -9.667  0.00  0.00    -0.166 OA
ATOM     14  O   UNL     1       2.265 -14.217  -9.308  0.00  0.00    -0.166 OA
BRANCH  12  15
ATOM     15  C   UNL     1       2.025 -11.765 -10.315  0.00  0.00    +0.175 C 
BRANCH  15  16
ATOM     16  C   UNL     1       2.098 -12.180 -11.786  0.00  0.00    +0.023 C 
BRANCH  16  18
ATOM     17  C   UNL     1       2.741 -11.443 -14.085  0.00  0.00    +0.004 C 
ATOM     18  C   UNL     1       2.669 -11.027 -12.614  0.00  0.00    -0.002 C 
ENDBRANCH  16  18
ENDBRANCH  15  16
ENDBRANCH  12  15
ENDBRANCH   5  12
ENDBRANCH   1   8
BRANCH   3  19
ATOM     19  C   UNL     1       2.298 -10.784  -1.595  0.00  0.00    +0.094 C 
BRANCH  19  20
ATOM     20  C   UNL     1       3.570 -11.229  -0.870  0.00  0.00    -0.020 C 
BRANCH  20  21
ATOM     21  N   UNL     1       3.590 -10.651   0.481  0.00  0.00    +0.385 N 
ATOM     22  C   UNL     1       3.617  -9.186   0.385  0.00  0.00    -0.078 C 
ATOM     23  C   UNL     1       3.557  -8.578   1.787  0.00  0.00    -0.019 C 
ATOM     24  C   UNL     1       4.762  -9.060   2.600  0.00  0.00    -0.004 C 
ATOM     25  C   UNL     1       4.764 -10.591   2.631  0.00  0.00    -0.019 C 
ATOM     26  C   UNL     1       4.780 -11.125   1.197  0.00  0.00    -0.078 C 
ATOM     27  H   UNL     1       2.761 -10.938   0.981  0.00  0.00    -0.081 HD
ENDBRANCH  20  21
BRANCH  20  28
ATOM     28  C   UNL     1       3.594 -12.732  -0.773  0.00  0.00    -0.059 A 
ATOM     29  C   UNL     1       2.850 -13.374   0.199  0.00  0.00    +0.002 A 
ATOM     30  C   UNL     1       2.872 -14.754   0.287  0.00  0.00    +0.004 A 
ATOM     31  C   UNL     1       3.638 -15.491  -0.596  0.00  0.00    -0.045 A 
ATOM     32  C   UNL     1       4.382 -14.849  -1.569  0.00  0.00    +0.004 A 
ATOM     33  C   UNL     1       4.356 -13.470  -1.660  0.00  0.00    +0.002 A 
BRANCH  31  34
ATOM     34  C   UNL     1       3.663 -16.995  -0.499  0.00  0.00    +0.013 C 
ATOM     35  C   UNL     1       3.156 -17.599  -1.810  0.00  0.00    +0.012 C 
ATOM     36  C   UNL     1       5.096 -17.465  -0.241  0.00  0.00    +0.012 C 
ENDBRANCH  31  34
ENDBRANCH  20  28
ENDBRANCH  19  20
ENDBRANCH   3  19
TORSDOF 10
