REMARK  Name = ZINC20681800
REMARK  6 active torsions:
REMARK  status: ('A' for Active; 'I' for Inactive)
REMARK    1  A    between atoms: C_1  and  N_2
REMARK    2  A    between atoms: N_5  and  S_8
REMARK    3  A    between atoms: S_8  and  C_11
REMARK    4  A    between atoms: C_24  and  C_27
REMARK    5  A    between atoms: C_30  and  O_34
REMARK    6  A    between atoms: C_32  and  O_33
REMARK                            x       y       z     vdW  Elec       q    Type
REMARK                         _______ _______ _______ _____ _____    ______ ____
ROOT
ATOM      1  C   UNL     1      -3.749   3.362  -1.404  0.00  0.00    +0.106 A 
ATOM      2  C   UNL     1      -3.911   3.293  -0.033  0.00  0.00    +0.030 A 
ATOM      3  C   UNL     1      -3.432   2.199   0.659  0.00  0.00    +0.025 A 
ATOM      4  C   UNL     1      -2.791   1.172  -0.023  0.00  0.00    +0.031 A 
ATOM      5  C   UNL     1      -2.627   1.236  -1.398  0.00  0.00    -0.018 A 
ATOM      6  C   UNL     1      -3.113   2.342  -2.082  0.00  0.00    +0.034 A 
ATOM      7  C   UNL     1      -1.945   0.154  -2.174  0.00  0.00    +0.049 C 
ATOM      8  C   UNL     1      -0.553   0.579  -2.578  0.00  0.00    -0.023 C 
ATOM      9  C   UNL     1       0.267  -0.442  -2.524  0.00  0.00    -0.030 C 
ATOM     10  C   UNL     1      -0.470  -1.692  -2.081  0.00  0.00    +0.033 C 
ATOM     11  C   UNL     1      -1.724  -1.129  -1.350  0.00  0.00    +0.029 C 
ATOM     12  C   UNL     1      -1.296  -0.768   0.075  0.00  0.00    +0.108 C 
ATOM     13  N   UNL     1      -2.338   0.063   0.688  0.00  0.00    -0.336 N 
ATOM     14  H   UNL     1      -2.737  -0.198   1.680  0.00  0.00    +0.147 HD
ENDROOT
BRANCH  12  15
ATOM     15  C   UNL     1       0.001  -0.001   0.033  0.00  0.00    +0.015 A 
ATOM     16  C   UNL     1      -0.012   1.365  -0.176  0.00  0.00    +0.012 A 
ATOM     17  C   UNL     1       1.175   2.071  -0.215  0.00  0.00    +0.046 A 
ATOM     18  C   UNL     1       2.383   1.410  -0.044  0.00  0.00    +0.120 A 
ATOM     19  C   UNL     1       2.398   0.040   0.165  0.00  0.00    +0.091 A 
ATOM     20  C   UNL     1       1.206  -0.667   0.204  0.00  0.00    +0.125 A 
BRANCH  20  21
ATOM     21  O   UNL     1       1.217  -2.010   0.410  0.00  0.00    -0.506 OA
ATOM     22  H   UNL     1       2.173  -2.537   0.545  0.00  0.00    +0.292 HD
ENDBRANCH  20  21
BRANCH  18  23
ATOM     23  O   UNL     1       3.551   2.105  -0.082  0.00  0.00    -0.507 OA
ATOM     24  H   UNL     1       4.508   1.580   0.053  0.00  0.00    +0.292 HD
ENDBRANCH  18  23
ENDBRANCH  12  15
BRANCH   1  25
ATOM     25  S   UNL     1      -4.358   4.757  -2.291  0.00  0.00    +0.061 S 
ATOM     26  O   UNL     1      -4.567   4.329  -3.630  0.00  0.00    -0.153 OA
ATOM     27  O   UNL     1      -5.397   5.319  -1.500  0.00  0.00    -0.153 OA
BRANCH  25  32
ATOM     28  C   UNL     1       0.745   7.180  -1.429  0.00  0.00    -0.096 C 
ATOM     29  N   UNL     1      -0.639   7.025  -1.896  0.00  0.00    +0.380 N 
ATOM     30  C   UNL     1      -0.754   5.903  -2.837  0.00  0.00    -0.062 C 
ATOM     31  C   UNL     1      -2.164   5.887  -3.438  0.00  0.00    +0.091 C 
ATOM     32  N   UNL     1      -3.140   5.878  -2.337  0.00  0.00    -0.180 NA
ATOM     33  C   UNL     1      -3.009   6.894  -1.283  0.00  0.00    +0.091 C 
ATOM     34  C   UNL     1      -1.562   6.867  -0.764  0.00  0.00    -0.062 C 
ATOM     35  H   UNL     1      -0.921   7.942  -2.433  0.00  0.00    -0.082 HD
ENDBRANCH  25  32
ENDBRANCH   1  25
TORSDOF 5
