REMARK  Name = ZINC49705899
REMARK  1 active torsions:
REMARK  status: ('A' for Active; 'I' for Inactive)
REMARK    1  A    between atoms: C_4  and  N_7
REMARK                            x       y       z     vdW  Elec       q    Type
REMARK                         _______ _______ _______ _____ _____    ______ ____
ROOT
ATOM      1  N   UNL     1       3.379  -2.434  -1.385  0.00  0.00    -0.296 N 
ATOM      2  C   UNL     1       3.424  -1.655  -2.483  0.00  0.00    +0.302 C 
ATOM      3  O   UNL     1       2.820  -0.600  -2.506  0.00  0.00    -0.253 OA
ATOM      4  N   UNL     1       4.140  -2.044  -3.557  0.00  0.00    -0.285 N 
ATOM      5  C   UNL     1       4.294  -1.156  -4.717  0.00  0.00    +0.114 C 
ATOM      6  C   UNL     1       5.787  -1.000  -5.023  0.00  0.00    +0.084 C 
ATOM      7  C   UNL     1       6.415  -2.383  -5.203  0.00  0.00    +0.173 C 
ATOM      8  C   UNL     1       6.268  -3.186  -3.908  0.00  0.00    +0.084 C 
ATOM      9  C   UNL     1       4.785  -3.364  -3.588  0.00  0.00    +0.114 C 
ATOM     10  O   UNL     1       7.803  -2.239  -5.516  0.00  0.00    -0.348 OA
ATOM     11  C   UNL     1       8.049  -1.525  -6.732  0.00  0.00    +0.165 C 
ATOM     12  C   UNL     1       7.346  -2.249  -7.885  0.00  0.00    +0.056 C 
ATOM     13  C   UNL     1       5.863  -2.414  -7.534  0.00  0.00    +0.165 C 
ATOM     14  O   UNL     1       5.755  -3.071  -6.268  0.00  0.00    -0.348 OA
ATOM     15  H   UNL     1       3.800  -3.308  -1.392  0.00  0.00    +0.151 HD
ENDROOT
BRANCH   1  19
ATOM     16  C   UNL     1       2.483  -1.808   2.740  0.00  0.00    +0.000 C 
ATOM     17  C   UNL     1       1.524  -2.667   1.912  0.00  0.00    +0.002 C 
ATOM     18  C   UNL     1       2.238  -3.161   0.653  0.00  0.00    +0.022 C 
ATOM     19  C   UNL     1       2.695  -1.960  -0.179  0.00  0.00    +0.074 C 
ATOM     20  C   UNL     1       3.654  -1.102   0.648  0.00  0.00    +0.022 C 
ATOM     21  C   UNL     1       2.940  -0.608   1.908  0.00  0.00    +0.002 C 
ENDBRANCH   1  19
TORSDOF 1
