REMARK  Name = ZINC03814382
REMARK  8 active torsions:
REMARK  status: ('A' for Active; 'I' for Inactive)
REMARK    1  A    between atoms: C_1  and  C_2
REMARK    2  A    between atoms: C_3  and  C_4
REMARK    3  A    between atoms: C_4  and  O_35
REMARK    4  A    between atoms: C_9  and  C_34
REMARK    5  A    between atoms: C_11  and  C_25
REMARK    6  A    between atoms: C_28  and  N_31
REMARK    7  A    between atoms: N_31  and  C_32
REMARK    8  A    between atoms: N_31  and  C_33
REMARK                            x       y       z     vdW  Elec       q    Type
REMARK                         _______ _______ _______ _____ _____    ______ ____
ROOT
ATOM      1  C   UNL     1      -1.460   1.683  -0.227  0.00  0.00    +0.132 C 
ATOM      2  C   UNL     1      -1.002   1.667  -1.706  0.00  0.00    +0.049 C 
ATOM      3  C   UNL     1       0.575   1.705  -1.693  0.00  0.00    +0.008 C 
ATOM      4  C   UNL     1       0.893   1.137  -0.303  0.00  0.00    +0.006 C 
ATOM      5  C   UNL     1      -0.178   1.812   0.594  0.00  0.00    +0.012 C 
ATOM      6  C   UNL     1      -0.192   1.068   1.918  0.00  0.00    +0.023 C 
ATOM      7  C   UNL     1       1.146   1.357   2.616  0.00  0.00    +0.046 C 
ATOM      8  C   UNL     1       2.310   1.075   1.687  0.00  0.00    -0.055 C 
ATOM      9  C   UNL     1       3.368   0.449   2.199  0.00  0.00    -0.044 C 
ATOM     10  C   UNL     1       3.374   0.009   3.645  0.00  0.00    +0.043 C 
ATOM     11  C   UNL     1       3.993  -1.389   3.729  0.00  0.00    +0.083 C 
ATOM     12  C   UNL     1       5.309  -1.412   3.000  0.00  0.00    +0.157 C 
ATOM     13  O   UNL     1       6.222  -2.082   3.439  0.00  0.00    -0.293 OA
ATOM     14  C   UNL     1       5.502  -0.673   1.821  0.00  0.00    +0.050 C 
ATOM     15  C   UNL     1       4.562   0.198   1.392  0.00  0.00    -0.041 C 
ATOM     16  C   UNL     1       4.705   0.941   0.087  0.00  0.00    +0.036 C 
ATOM     17  C   UNL     1       3.348   0.917  -0.615  0.00  0.00    +0.013 C 
ATOM     18  C   UNL     1       2.257   1.527   0.249  0.00  0.00    +0.020 C 
ATOM     19  C   UNL     1       0.172   3.286   0.807  0.00  0.00    +0.015 C 
ENDROOT
BRANCH   7  20
ATOM     20  C   UNL     1       1.183   2.805   3.033  0.00  0.00    -0.040 A 
ATOM     21  C   UNL     1       2.337   3.546   2.850  0.00  0.00    +0.006 A 
ATOM     22  C   UNL     1       2.373   4.874   3.226  0.00  0.00    +0.023 A 
ATOM     23  C   UNL     1       1.253   5.463   3.799  0.00  0.00    +0.029 A 
ATOM     24  C   UNL     1       0.098   4.715   3.986  0.00  0.00    +0.023 A 
ATOM     25  C   UNL     1       0.067   3.388   3.603  0.00  0.00    +0.006 A 
BRANCH  23  26
ATOM     26  N   UNL     1       1.288   6.805   4.186  0.00  0.00    -0.336 N 
ATOM     27  C   UNL     1       0.105   7.424   4.790  0.00  0.00    +0.129 C 
ATOM     28  C   UNL     1       2.507   7.593   3.987  0.00  0.00    +0.129 C 
ENDBRANCH  23  26
ENDBRANCH   7  20
BRANCH   1  31
ATOM     29  C   UNL     1      -3.927   4.907   0.466  0.00  0.00    +0.106 C 
ATOM     30  C   UNL     1      -3.045   3.755   0.218  0.00  0.00    -0.103 C 
ATOM     31  C   UNL     1      -2.341   2.836   0.021  0.00  0.00    -0.067 C 
ENDBRANCH   1  31
BRANCH   1  32
ATOM     32  O   UNL     1      -2.134   0.465   0.096  0.00  0.00    -0.376 OA
ATOM     33  H   UNL     1      -2.955   0.328  -0.395  0.00  0.00    +0.211 HD
ENDBRANCH   1  32
TORSDOF 4
