REMARK  Name = ZINC09514986
REMARK  14 active torsions:
REMARK  status: ('A' for Active; 'I' for Inactive)
REMARK    1  A    between atoms: C_1  and  C_2
REMARK    2  A    between atoms: C_2  and  O_3
REMARK    3  A    between atoms: O_3  and  C_4
REMARK    4  A    between atoms: C_4  and  C_6
REMARK    5  A    between atoms: C_7  and  C_24
REMARK    6  A    between atoms: C_12  and  C_14
REMARK    7  A    between atoms: C_19  and  O_20
REMARK    8  A    between atoms: O_20  and  C_21
REMARK    9  A    between atoms: C_24  and  N_61
REMARK   10  A    between atoms: C_25  and  N_61
REMARK   11  A    between atoms: C_26  and  C_27
REMARK   12  A    between atoms: C_26  and  N_61
REMARK   13  A    between atoms: C_30  and  O_33
REMARK   14  A    between atoms: O_33  and  C_34
REMARK                            x       y       z     vdW  Elec       q    Type
REMARK                         _______ _______ _______ _____ _____    ______ ____
ROOT
ATOM      1  C   UNL     1       1.049  -1.648   2.513  0.00  0.00    +0.076 C 
ATOM      2  C   UNL     1       0.007  -0.834   2.785  0.00  0.00    +0.008 C 
ATOM      3  N   UNL     1      -1.270  -1.316   2.835  0.00  0.00    -0.274 N 
ATOM      4  C   UNL     1      -1.589  -2.597   2.614  0.00  0.00    +0.304 C 
ATOM      5  O   UNL     1      -2.756  -2.932   2.675  0.00  0.00    -0.252 OA
ATOM      6  N   UNL     1      -0.658  -3.530   2.330  0.00  0.00    -0.288 N 
ATOM      7  C   UNL     1       0.753  -3.112   2.259  0.00  0.00    +0.147 C 
ATOM      8  H   UNL     1      -1.986  -0.694   3.039  0.00  0.00    +0.156 HD
ATOM      9  H   UNL     1      -0.910  -4.453   2.177  0.00  0.00    +0.151 HD
ENDROOT
BRANCH   7  10
ATOM     10  C   UNL     1       1.271  -3.460   0.887  0.00  0.00    +0.019 A 
ATOM     11  C   UNL     1       0.435  -3.376  -0.210  0.00  0.00    +0.009 A 
ATOM     12  C   UNL     1       0.910  -3.693  -1.469  0.00  0.00    +0.001 A 
ATOM     13  C   UNL     1       2.223  -4.096  -1.633  0.00  0.00    +0.004 A 
ATOM     14  C   UNL     1       3.062  -4.182  -0.540  0.00  0.00    +0.046 A 
ATOM     15  C   UNL     1       2.590  -3.859   0.723  0.00  0.00    +0.132 A 
BRANCH  15  16
ATOM     16  O   UNL     1       3.415  -3.937   1.800  0.00  0.00    -0.434 OA
BRANCH  16  17
ATOM     17  C   UNL     1       4.766  -4.332   1.554  0.00  0.00    +0.541 C 
ATOM     18  F   UNL     1       4.783  -5.615   0.998  0.00  0.00    -0.166 F 
ATOM     19  F   UNL     1       5.361  -3.431   0.664  0.00  0.00    -0.166 F 
ENDBRANCH  16  17
ENDBRANCH  15  16
ENDBRANCH   7  10
BRANCH   1  20
ATOM     20  C   UNL     1       2.373  -1.151   2.467  0.00  0.00    +0.339 C 
ATOM     21  O   UNL     1       2.882  -0.875   1.397  0.00  0.00    -0.245 OA
BRANCH  20  22
ATOM     22  O   UNL     1       3.071  -0.984   3.610  0.00  0.00    -0.462 OA
BRANCH  22  24
ATOM     23  C   UNL     1       4.941  -0.157   4.898  0.00  0.00    +0.048 C 
ATOM     24  C   UNL     1       4.358  -0.373   3.500  0.00  0.00    +0.229 C 
ENDBRANCH  22  24
ENDBRANCH  20  22
ENDBRANCH   1  20
BRANCH   2  25
ATOM     25  C   UNL     1       0.258   0.629   3.045  0.00  0.00    -0.026 C 
BRANCH  25  27
ATOM     26  C   UNL     1       0.259   1.191   0.690  0.00  0.00    -0.095 C 
ATOM     27  N   UNL     1      -0.407   1.421   1.989  0.00  0.00    +0.384 N 
ATOM     28  H   UNL     1      -1.388   1.126   1.918  0.00  0.00    -0.081 HD
BRANCH  27  29
ATOM     29  C   UNL     1      -0.362   2.859   2.332  0.00  0.00    -0.043 C 
BRANCH  29  30
ATOM     30  C   UNL     1      -1.231   3.617   1.362  0.00  0.00    -0.064 A 
ATOM     31  C   UNL     1      -0.683   4.130   0.201  0.00  0.00    +0.005 A 
ATOM     32  C   UNL     1      -1.478   4.821  -0.693  0.00  0.00    +0.046 A 
ATOM     33  C   UNL     1      -2.825   5.010  -0.419  0.00  0.00    +0.120 A 
ATOM     34  C   UNL     1      -3.371   4.499   0.750  0.00  0.00    +0.046 A 
ATOM     35  C   UNL     1      -2.573   3.804   1.638  0.00  0.00    +0.005 A 
BRANCH  33  36
ATOM     36  O   UNL     1      -3.608   5.694  -1.294  0.00  0.00    -0.495 OA
ATOM     37  C   UNL     1      -2.979   6.191  -2.477  0.00  0.00    +0.277 C 
ENDBRANCH  33  36
ENDBRANCH  29  30
ENDBRANCH  27  29
ENDBRANCH  25  27
ENDBRANCH   2  25
TORSDOF 11
