REMARK  Name = ZINC39678597
REMARK  8 active torsions:
REMARK  status: ('A' for Active; 'I' for Inactive)
REMARK    1  A    between atoms: C_1  and  C_2
REMARK    2  A    between atoms: C_6  and  C_8
REMARK    3  A    between atoms: C_8  and  C_9
REMARK    4  A    between atoms: C_13  and  C_22
REMARK    5  A    between atoms: N_24  and  C_25
REMARK    6  A    between atoms: C_25  and  C_26
REMARK    7  A    between atoms: C_30  and  O_32
REMARK    8  A    between atoms: O_32  and  C_33
REMARK                            x       y       z     vdW  Elec       q    Type
REMARK                         _______ _______ _______ _____ _____    ______ ____
ROOT
ATOM      1  C   UNL     1       1.186  -3.003   3.003  0.00  0.00    +0.220 C 
ATOM      2  O   UNL     1       2.031  -2.528   2.273  0.00  0.00    -0.275 OA
ATOM      3  N   UNL     1       1.554  -3.689   4.103  0.00  0.00    -0.300 N 
ATOM      4  C   UNL     1       0.676  -4.343   5.102  0.00  0.00    +0.121 C 
ATOM      5  C   UNL     1       1.397  -5.665   5.449  0.00  0.00    +0.100 C 
ATOM      6  C   UNL     1       2.875  -5.407   5.111  0.00  0.00    -0.004 C 
ATOM      7  C   UNL     1       2.929  -3.966   4.584  0.00  0.00    +0.115 C 
ATOM      8  C   UNL     1       3.735  -5.545   6.363  0.00  0.00    -0.010 C 
ATOM      9  C   UNL     1       5.207  -5.342   5.991  0.00  0.00    -0.082 C 
ATOM     10  N   UNL     1       5.602  -6.338   4.988  0.00  0.00    +0.379 N 
ATOM     11  C   UNL     1       4.834  -6.139   3.754  0.00  0.00    -0.082 C 
ATOM     12  C   UNL     1       3.347  -6.376   4.031  0.00  0.00    -0.010 C 
ATOM     13  H   UNL     1       6.587  -6.241   4.790  0.00  0.00    -0.086 HD
ATOM     14  H   UNL     1       5.424  -7.264   5.348  0.00  0.00    -0.086 HD
ENDROOT
BRANCH   5  15
ATOM     15  C   UNL     1       0.854  -6.794   4.612  0.00  0.00    +0.218 C 
ATOM     16  O   UNL     1       0.423  -6.572   3.500  0.00  0.00    -0.275 OA
ATOM     17  N   UNL     1       0.847  -8.051   5.098  0.00  0.00    -0.311 N 
ATOM     18  H   UNL     1       1.192  -8.229   5.987  0.00  0.00    +0.149 HD
BRANCH  17  19
ATOM     19  C   UNL     1       0.320  -9.149   4.284  0.00  0.00    +0.139 C 
BRANCH  19  20
ATOM     20  C   UNL     1       0.426 -10.440   5.053  0.00  0.00    -0.027 A 
ATOM     21  C   UNL     1       1.568 -11.213   4.950  0.00  0.00    +0.005 A 
ATOM     22  C   UNL     1       1.669 -12.399   5.654  0.00  0.00    +0.004 A 
ATOM     23  C   UNL     1       0.628 -12.815   6.462  0.00  0.00    +0.046 A 
ATOM     24  C   UNL     1      -0.519 -12.041   6.567  0.00  0.00    +0.127 A 
ATOM     25  C   UNL     1      -0.615 -10.848   5.864  0.00  0.00    +0.051 A 
BRANCH  24  26
ATOM     26  O   UNL     1      -1.544 -12.447   7.361  0.00  0.00    -0.434 OA
BRANCH  26  27
ATOM     27  C   UNL     1      -1.373 -13.682   8.059  0.00  0.00    +0.541 C 
ATOM     28  F   UNL     1      -1.179 -14.716   7.138  0.00  0.00    -0.166 F 
ATOM     29  F   UNL     1      -0.259 -13.592   8.901  0.00  0.00    -0.166 F 
ENDBRANCH  26  27
ENDBRANCH  24  26
ENDBRANCH  19  20
ENDBRANCH  17  19
ENDBRANCH   5  15
BRANCH   1  30
ATOM     30  C   UNL     1      -0.275  -2.827   2.678  0.00  0.00    +0.131 C 
BRANCH  30  36
ATOM     31  C   UNL     1      -0.721   1.584   0.357  0.00  0.00    +0.044 C 
ATOM     32  C   UNL     1      -0.629   0.081   0.297  0.00  0.00    -0.050 A 
ATOM     33  C   UNL     1      -0.673  -0.566  -0.924  0.00  0.00    +0.003 A 
ATOM     34  C   UNL     1      -0.589  -1.945  -0.979  0.00  0.00    +0.001 A 
ATOM     35  C   UNL     1      -0.460  -2.677   0.187  0.00  0.00    +0.004 A 
ATOM     36  C   UNL     1      -0.415  -2.030   1.407  0.00  0.00    -0.038 A 
ATOM     37  C   UNL     1      -0.495  -0.650   1.462  0.00  0.00    +0.007 A 
ENDBRANCH  30  36
ENDBRANCH   1  30
TORSDOF 7
