REMARK  Name = ZINC65384133
REMARK  11 active torsions:
REMARK  status: ('A' for Active; 'I' for Inactive)
REMARK    1  A    between atoms: C_1  and  C_2
REMARK    2  A    between atoms: C_2  and  C_3
REMARK    3  A    between atoms: C_2  and  C_4
REMARK    4  A    between atoms: C_7  and  C_10
REMARK    5  A    between atoms: C_10  and  N_11
REMARK    6  A    between atoms: C_12  and  C_14
REMARK    7  A    between atoms: C_17  and  C_19
REMARK    8  A    between atoms: C_20  and  C_21
REMARK    9  A    between atoms: C_21  and  C_22
REMARK   10  A    between atoms: C_21  and  C_23
REMARK   11  A    between atoms: C_21  and  O_24
REMARK                            x       y       z     vdW  Elec       q    Type
REMARK                         _______ _______ _______ _____ _____    ______ ____
ROOT
ATOM      1  N   UNL     1      -4.976  -1.691  -2.223  0.00  0.00    -0.305 N 
ATOM      2  C   UNL     1      -5.416  -1.692  -3.497  0.00  0.00    +0.280 C 
ATOM      3  O   UNL     1      -4.638  -1.897  -4.410  0.00  0.00    -0.267 OA
ATOM      4  H   UNL     1      -5.596  -1.528  -1.496  0.00  0.00    +0.149 HD
ENDROOT
BRANCH   2   5
ATOM      5  C   UNL     1      -6.831  -1.444  -3.783  0.00  0.00    +0.191 A 
ATOM      6  C   UNL     1      -7.410  -1.422  -5.033  0.00  0.00    +0.056 A 
ATOM      7  C   UNL     1      -8.768  -1.152  -4.847  0.00  0.00    +0.059 A 
ATOM      8  C   UNL     1      -8.969  -1.019  -3.490  0.00  0.00    +0.179 A 
ATOM      9  O   UNL     1      -7.792  -1.204  -2.866  0.00  0.00    -0.442 OA
BRANCH   8  10
ATOM     10  C   UNL     1     -10.219  -0.738  -2.852  0.00  0.00    -0.026 C 
ATOM     11  C   UNL     1     -11.245  -0.507  -2.329  0.00  0.00    -0.060 C 
BRANCH  11  12
ATOM     12  C   UNL     1     -12.530  -0.218  -1.673  0.00  0.00    +0.121 C 
ATOM     13  C   UNL     1     -12.326  -0.150  -0.158  0.00  0.00    +0.055 C 
ATOM     14  C   UNL     1     -13.068   1.124  -2.175  0.00  0.00    +0.055 C 
BRANCH  12  15
ATOM     15  O   UNL     1     -13.466  -1.252  -1.982  0.00  0.00    -0.377 OA
ATOM     16  H   UNL     1     -13.190  -2.132  -1.692  0.00  0.00    +0.211 HD
ENDBRANCH  12  15
ENDBRANCH  11  12
ENDBRANCH   8  10
ENDBRANCH   2   5
BRANCH   1  17
ATOM     17  C   UNL     1      -3.560  -1.939  -1.938  0.00  0.00    +0.152 C 
BRANCH  17  21
ATOM     18  C   UNL     1      -1.412  -0.526   0.013  0.00  0.00    +0.064 C 
ATOM     19  N   UNL     1      -2.468   0.184   0.111  0.00  0.00    -0.093 NA
ATOM     20  O   UNL     1      -3.656  -0.582   0.101  0.00  0.00    -0.389 OA
ATOM     21  C   UNL     1      -3.328  -1.884  -0.426  0.00  0.00    +0.227 C 
ATOM     22  C   UNL     1      -1.820  -1.982  -0.099  0.00  0.00    +0.103 C 
BRANCH  18  24
ATOM     23  C   UNL     1      -0.019   1.526   0.010  0.00  0.00    +0.013 C 
ATOM     24  C   UNL     1       0.002  -0.004   0.002  0.00  0.00    +0.031 C 
ATOM     25  C   UNL     1       0.742  -0.511   1.242  0.00  0.00    +0.013 C 
ENDBRANCH  18  24
ENDBRANCH  17  21
ENDBRANCH   1  17
TORSDOF 7
