REMARK  Name = ZINC30983432
REMARK  10 active torsions:
REMARK  status: ('A' for Active; 'I' for Inactive)
REMARK    1  A    between atoms: C_1  and  C_2
REMARK    2  A    between atoms: C_2  and  C_3
REMARK    3  A    between atoms: C_3  and  C_5
REMARK    4  A    between atoms: C_3  and  N_15
REMARK    5  A    between atoms: C_8  and  S_11
REMARK    6  A    between atoms: S_11  and  C_14
REMARK    7  A    between atoms: C_16  and  C_18
REMARK    8  A    between atoms: N_21  and  C_24
REMARK    9  A    between atoms: C_24  and  C_25
REMARK   10  A    between atoms: C_27  and  C_30
REMARK                            x       y       z     vdW  Elec       q    Type
REMARK                         _______ _______ _______ _____ _____    ______ ____
ROOT
ATOM      1  C   UNL     1      -4.462   6.208   5.931  0.00  0.00    +0.071 C 
ATOM      2  C   UNL     1      -3.269   7.061   6.370  0.00  0.00    -0.006 C 
ATOM      3  C   UNL     1      -3.685   8.534   6.398  0.00  0.00    -0.077 C 
ATOM      4  N   UNL     1      -4.805   8.710   7.330  0.00  0.00    +0.386 N 
ATOM      5  C   UNL     1      -5.978   7.937   6.903  0.00  0.00    -0.077 C 
ATOM      6  C   UNL     1      -5.631   6.446   6.890  0.00  0.00    -0.006 C 
ATOM      7  H   UNL     1      -4.489   8.325   8.311  0.00  0.00    -0.081 HD
ENDROOT
BRANCH   1   9
ATOM      8  N   UNL     1      -3.064   4.307   5.187  0.00  0.00    -0.308 N 
ATOM      9  C   UNL     1      -4.076   4.751   5.959  0.00  0.00    +0.216 C 
ATOM     10  O   UNL     1      -4.677   3.979   6.675  0.00  0.00    -0.276 OA
ATOM     11  H   UNL     1      -2.519   5.008   4.537  0.00  0.00    +0.149 HD
BRANCH   8  12
ATOM     12  C   UNL     1      -2.689   2.891   5.215  0.00  0.00    +0.103 C 
BRANCH  12  13
ATOM     13  C   UNL     1      -2.022   2.523   3.915  0.00  0.00    -0.027 A 
ATOM     14  C   UNL     1      -2.295   1.306   3.318  0.00  0.00    +0.007 A 
ATOM     15  C   UNL     1      -1.683   0.968   2.126  0.00  0.00    +0.027 A 
ATOM     16  C   UNL     1      -0.798   1.847   1.530  0.00  0.00    +0.088 A 
ATOM     17  C   UNL     1      -0.521   3.062   2.129  0.00  0.00    +0.027 A 
ATOM     18  C   UNL     1      -1.137   3.402   3.319  0.00  0.00    +0.007 A 
BRANCH  16  19
ATOM     19  S   UNL     1      -0.017   1.417   0.010  0.00  0.00    -0.006 S 
ATOM     20  O   UNL     1       0.002  -0.004   0.002  0.00  0.00    -0.170 OA
ATOM     21  O   UNL     1       1.195   2.158   0.002  0.00  0.00    -0.170 OA
ATOM     22  C   UNL     1      -1.135   2.034  -1.279  0.00  0.00    +0.200 C 
ENDBRANCH  16  19
ENDBRANCH  12  13
BRANCH  12  24
ATOM     23  C   UNL     1      -2.439   2.897   7.701  0.00  0.00    +0.006 C 
ATOM     24  C   UNL     1      -1.722   2.642   6.373  0.00  0.00    +0.024 C 
ENDBRANCH  12  24
ENDBRANCH   8  12
ENDBRANCH   1   9
BRANCH   4  25
ATOM     25  C   UNL     1      -5.141  10.132   7.488  0.00  0.00    +0.022 C 
BRANCH  25  26
ATOM     26  C   UNL     1      -3.995  10.847   8.156  0.00  0.00    +0.211 A 
ATOM     27  N   UNL     1      -2.981  11.421   7.558  0.00  0.00    -0.193 NA
ATOM     28  C   UNL     1      -2.214  11.928   8.550  0.00  0.00    +0.202 A 
ATOM     29  N   UNL     1      -2.802  11.635   9.681  0.00  0.00    -0.056 NA
ATOM     30  O   UNL     1      -3.827  11.020   9.471  0.00  0.00    -0.340 OA
BRANCH  28  31
ATOM     31  C   UNL     1      -0.943  12.676   8.386  0.00  0.00    +0.023 A 
ATOM     32  C   UNL     1      -0.430  12.909   7.112  0.00  0.00    +0.014 A 
ATOM     33  C   UNL     1       0.750  13.609   6.963  0.00  0.00    +0.039 A 
ATOM     34  C   UNL     1       1.429  14.070   8.079  0.00  0.00    +0.123 A 
ATOM     35  C   UNL     1       0.925  13.836   9.348  0.00  0.00    +0.039 A 
ATOM     36  C   UNL     1      -0.257  13.142   9.505  0.00  0.00    +0.014 A 
ATOM     37  F   UNL     1       2.587  14.751   7.930  0.00  0.00    -0.205 F 
ENDBRANCH  28  31
ENDBRANCH  25  26
ENDBRANCH   4  25
TORSDOF 8
