REMARK  Name = ZINC66702204
REMARK  9 active torsions:
REMARK  status: ('A' for Active; 'I' for Inactive)
REMARK    1  A    between atoms: C_1  and  C_2
REMARK    2  A    between atoms: C_4  and  C_14
REMARK    3  A    between atoms: C_8  and  C_13
REMARK    4  A    between atoms: C_9  and  C_12
REMARK    5  A    between atoms: C_14  and  N_15
REMARK    6  A    between atoms: N_18  and  C_19
REMARK    7  A    between atoms: N_18  and  C_20
REMARK    8  A    between atoms: C_20  and  C_21
REMARK    9  A    between atoms: C_22  and  C_26
REMARK                            x       y       z     vdW  Elec       q    Type
REMARK                         _______ _______ _______ _____ _____    ______ ____
ROOT
ATOM      1  C   UNL     1      -0.727  -2.891  -1.891  0.00  0.00    +0.143 C 
ENDROOT
BRANCH   1   5
ATOM      2  C   UNL     1      -1.647   1.038   1.065  0.00  0.00    +0.044 C 
ATOM      3  C   UNL     1      -1.453  -0.447   0.905  0.00  0.00    -0.049 A 
ATOM      4  C   UNL     1      -1.190  -0.976  -0.352  0.00  0.00    +0.010 A 
ATOM      5  C   UNL     1      -1.010  -2.331  -0.521  0.00  0.00    -0.006 A 
ATOM      6  C   UNL     1      -1.092  -3.181   0.577  0.00  0.00    +0.052 A 
ATOM      7  C   UNL     1      -1.358  -2.641   1.849  0.00  0.00    +0.003 A 
ATOM      8  C   UNL     1      -1.532  -1.263   1.998  0.00  0.00    +0.013 A 
ATOM      9  C   UNL     1      -1.380  -3.776   2.774  0.00  0.00    -0.022 A 
ATOM     10  C   UNL     1      -1.138  -4.879   2.049  0.00  0.00    +0.017 A 
ATOM     11  N   UNL     1      -0.964  -4.543   0.734  0.00  0.00    -0.358 N 
ATOM     12  H   UNL     1      -0.777  -5.171   0.018  0.00  0.00    +0.166 HD
ATOM     13  C   UNL     1      -1.070  -6.279   2.600  0.00  0.00    +0.063 C 
ATOM     14  C   UNL     1      -1.626  -3.716   4.260  0.00  0.00    +0.046 C 
ENDBRANCH   1   5
BRANCH   1  15
ATOM     15  N   UNL     1      -1.960  -3.444  -2.457  0.00  0.00    -0.295 N 
ATOM     16  C   UNL     1      -1.946  -4.003  -3.684  0.00  0.00    +0.303 C 
ATOM     17  O   UNL     1      -0.911  -4.048  -4.320  0.00  0.00    -0.253 OA
ATOM     18  N   UNL     1      -3.080  -4.511  -4.205  0.00  0.00    -0.284 N 
ATOM     19  C   UNL     1      -4.328  -4.457  -3.438  0.00  0.00    +0.134 C 
ATOM     20  H   UNL     1      -2.785  -3.408  -1.950  0.00  0.00    +0.151 HD
BRANCH  18  21
ATOM     21  C   UNL     1      -3.066  -5.119  -5.538  0.00  0.00    +0.153 C 
BRANCH  21  22
ATOM     22  C   UNL     1      -2.901  -6.611  -5.408  0.00  0.00    +0.029 A 
ATOM     23  C   UNL     1      -1.776  -7.368  -5.485  0.00  0.00    +0.050 A 
ATOM     24  N   UNL     1      -1.921  -8.670  -5.332  0.00  0.00    -0.252 NA
ATOM     25  C   UNL     1      -3.098  -9.204  -5.117  0.00  0.00    +0.156 A 
ATOM     26  S   UNL     1      -4.127  -7.872  -5.104  0.00  0.00    -0.079 S 
ATOM     27  C   UNL     1      -0.425  -6.750  -5.734  0.00  0.00    +0.066 C 
ENDBRANCH  21  22
ENDBRANCH  18  21
ENDBRANCH   1  15
TORSDOF 4
