REMARK  Name = ZINC22228041
REMARK  6 active torsions:
REMARK  status: ('A' for Active; 'I' for Inactive)
REMARK    1  A    between atoms: C_1  and  C_2
REMARK    2  A    between atoms: N_5  and  C_11
REMARK    3  A    between atoms: C_7  and  C_10
REMARK    4  A    between atoms: C_11  and  C_12
REMARK    5  A    between atoms: N_14  and  C_15
REMARK    6  A    between atoms: C_16  and  C_25
REMARK                            x       y       z     vdW  Elec       q    Type
REMARK                         _______ _______ _______ _____ _____    ______ ____
ROOT
ATOM      1  C   UNL     1       0.002  -0.004   0.002  0.00  0.00    +0.232 C 
ATOM      2  O   UNL     1      -0.506  -0.623   0.913  0.00  0.00    -0.274 OA
ATOM      3  N   UNL     1       0.585  -0.664  -1.018  0.00  0.00    -0.278 N 
ATOM      4  H   UNL     1       1.046  -0.104  -1.844  0.00  0.00    +0.155 HD
ENDROOT
BRANCH   3   5
ATOM      5  C   UNL     1       0.604  -2.052  -1.026  0.00  0.00    +0.090 A 
ATOM      6  C   UNL     1       1.144  -2.901  -1.978  0.00  0.00    +0.084 A 
ATOM      7  C   UNL     1       1.037  -4.335  -1.747  0.00  0.00    -0.018 A 
ATOM      8  C   UNL     1       0.393  -4.682  -0.612  0.00  0.00    -0.004 A 
ATOM      9  S   UNL     1      -0.049  -3.144   0.149  0.00  0.00    -0.077 S 
ATOM     10  C   UNL     1       0.098  -6.062  -0.113  0.00  0.00    +0.043 C 
ATOM     11  C   UNL     1       1.378  -6.907  -0.174  0.00  0.00    +0.005 C 
ATOM     12  C   UNL     1       1.449  -7.575  -1.544  0.00  0.00    +0.001 C 
ATOM     13  C   UNL     1       0.828  -6.669  -2.605  0.00  0.00    +0.005 C 
ATOM     14  C   UNL     1       1.608  -5.364  -2.715  0.00  0.00    +0.037 C 
BRANCH   6  15
ATOM     15  C   UNL     1       1.789  -2.385  -3.148  0.00  0.00    +0.102 C 
ATOM     16  N   UNL     1       2.300  -1.976  -4.076  0.00  0.00    -0.191 NA
ENDBRANCH   6  15
ENDBRANCH   3   5
BRANCH   1  17
ATOM     17  C   UNL     1      -0.018   1.503   0.010  0.00  0.00    +0.181 C 
BRANCH  17  21
ATOM     18  C   UNL     1      -0.528   3.202   3.874  0.00  0.00    +0.039 C 
ATOM     19  C   UNL     1      -1.220   3.869   2.684  0.00  0.00    +0.130 C 
ATOM     20  C   UNL     1      -0.541   3.428   1.384  0.00  0.00    +0.116 C 
ATOM     21  N   UNL     1      -0.706   1.976   1.219  0.00  0.00    -0.289 NA
ATOM     22  C   UNL     1      -2.131   1.614   1.191  0.00  0.00    +0.116 C 
ATOM     23  C   UNL     1      -2.794   2.073   2.492  0.00  0.00    +0.130 C 
ATOM     24  O   UNL     1      -2.596   3.481   2.651  0.00  0.00    -0.371 OA
ATOM     25  C   UNL     1      -4.293   1.771   2.437  0.00  0.00    +0.039 C 
ENDBRANCH  17  21
ENDBRANCH   1  17
TORSDOF 4
