REMARK  Name = ZINC37423185
REMARK  14 active torsions:
REMARK  status: ('A' for Active; 'I' for Inactive)
REMARK    1  A    between atoms: C_1  and  C_2
REMARK    2  A    between atoms: C_2  and  C_3
REMARK    3  A    between atoms: C_3  and  C_5
REMARK    4  A    between atoms: C_3  and  N_6
REMARK    5  A    between atoms: N_6  and  C_7
REMARK    6  A    between atoms: C_7  and  C_8
REMARK    7  A    between atoms: C_13  and  O_14
REMARK    8  A    between atoms: O_14  and  S_15
REMARK    9  A    between atoms: S_15  and  C_18
REMARK   10  A    between atoms: C_21  and  N_24
REMARK   11  A    between atoms: C_25  and  C_27
REMARK   12  A    between atoms: N_31  and  C_32
REMARK   13  A    between atoms: C_32  and  C_33
REMARK   14  A    between atoms: C_32  and  C_34
REMARK                            x       y       z     vdW  Elec       q    Type
REMARK                         _______ _______ _______ _____ _____    ______ ____
ROOT
ATOM      1  C   UNL     1      -1.632   1.767  -0.555  0.00  0.00    +0.016 A 
ATOM      2  C   UNL     1      -1.288   2.007   0.761  0.00  0.00    +0.029 A 
ATOM      3  C   UNL     1      -0.429   3.045   1.075  0.00  0.00    +0.042 A 
ATOM      4  C   UNL     1       0.088   3.845   0.071  0.00  0.00    +0.023 A 
ATOM      5  C   UNL     1      -0.253   3.608  -1.246  0.00  0.00    +0.050 A 
ATOM      6  C   UNL     1      -1.110   2.564  -1.563  0.00  0.00    +0.162 A 
ATOM      7 CL   UNL     1       0.000   3.345   2.730  0.00  0.00    -0.084 Cl
ENDROOT
BRANCH   1   8
ATOM      8  C   UNL     1      -2.568   0.636  -0.896  0.00  0.00    +0.148 C 
BRANCH   8   9
ATOM      9  N   UNL     1      -1.794  -0.509  -1.381  0.00  0.00    -0.278 N 
ATOM     10  C   UNL     1      -1.629  -0.700  -2.705  0.00  0.00    +0.303 C 
ATOM     11  O   UNL     1      -2.052   0.122  -3.494  0.00  0.00    -0.253 OA
ATOM     12  N   UNL     1      -0.996  -1.802  -3.153  0.00  0.00    -0.297 N 
ATOM     13  H   UNL     1      -0.726  -2.494  -2.529  0.00  0.00    +0.150 HD
BRANCH  12  14
ATOM     14  C   UNL     1      -0.716  -1.956  -4.583  0.00  0.00    +0.068 C 
ATOM     15  C   UNL     1       0.483  -2.887  -4.771  0.00  0.00    +0.027 C 
ATOM     16  C   UNL     1      -1.940  -2.553  -5.281  0.00  0.00    +0.027 C 
ENDBRANCH  12  14
BRANCH   9  17
ATOM     17  C   UNL     1      -1.198  -1.447  -0.426  0.00  0.00    +0.075 C 
ATOM     18  C   UNL     1      -0.279  -0.685   0.531  0.00  0.00    +0.028 C 
BRANCH  17  20
ATOM     19  C   UNL     1      -3.166  -2.980  -0.572  0.00  0.00    +0.006 C 
ATOM     20  C   UNL     1      -2.307  -2.135   0.372  0.00  0.00    +0.019 C 
ENDBRANCH  17  20
ENDBRANCH   9  17
ENDBRANCH   8   9
ENDBRANCH   1   8
BRANCH   6  21
ATOM     21  O   UNL     1      -1.442   2.326  -2.860  0.00  0.00    -0.342 OA
BRANCH  21  22
ATOM     22  S   UNL     1      -2.678   3.079  -3.331  0.00  0.00    +0.151 S 
ATOM     23  O   UNL     1      -3.002   2.565  -4.615  0.00  0.00    -0.131 OA
ATOM     24  O   UNL     1      -3.600   3.063  -2.249  0.00  0.00    -0.131 OA
BRANCH  22  25
ATOM     25  C   UNL     1      -2.206   4.760  -3.565  0.00  0.00    +0.128 A 
ATOM     26  C   UNL     1      -2.304   5.657  -2.517  0.00  0.00    +0.032 A 
ATOM     27  C   UNL     1      -1.935   6.976  -2.698  0.00  0.00    +0.025 A 
ATOM     28  C   UNL     1      -1.465   7.400  -3.934  0.00  0.00    +0.033 A 
ATOM     29  C   UNL     1      -1.368   6.497  -4.984  0.00  0.00    +0.025 A 
ATOM     30  C   UNL     1      -1.734   5.179  -4.796  0.00  0.00    +0.032 A 
BRANCH  28  31
ATOM     31  N   UNL     1      -1.091   8.736  -4.120  0.00  0.00    -0.286 N 
ATOM     32  C   UNL     1      -0.538   9.429  -3.105  0.00  0.00    +0.214 C 
ATOM     33  O   UNL     1      -0.275   8.870  -2.062  0.00  0.00    -0.276 OA
ATOM     34  C   UNL     1      -0.247  10.898  -3.267  0.00  0.00    +0.109 C 
ATOM     35  H   UNL     1      -1.229   9.163  -4.980  0.00  0.00    +0.155 HD
ENDBRANCH  28  31
ENDBRANCH  22  25
ENDBRANCH  21  22
ENDBRANCH   6  21
TORSDOF 9
