REMARK  Name = ZINC07362582
REMARK  6 active torsions:
REMARK  status: ('A' for Active; 'I' for Inactive)
REMARK    1  A    between atoms: C_7  and  C_11
REMARK    2  A    between atoms: C_11  and  C_12
REMARK    3  A    between atoms: C_12  and  N_13
REMARK    4  A    between atoms: C_14  and  C_16
REMARK    5  A    between atoms: C_16  and  N_57
REMARK    6  A    between atoms: C_20  and  C_22
REMARK                            x       y       z     vdW  Elec       q    Type
REMARK                         _______ _______ _______ _____ _____    ______ ____
ROOT
ATOM      1  C   UNL     1      -4.341  -3.630   2.622  0.00  0.00    +0.019 C 
ENDROOT
BRANCH   1   6
ATOM      2  C   UNL     1      -3.665  -5.034   4.494  0.00  0.00    -0.077 C 
ATOM      3  C   UNL     1      -4.382  -5.736   5.667  0.00  0.00    -0.020 C 
ATOM      4  C   UNL     1      -5.887  -5.537   5.394  0.00  0.00    -0.013 C 
ATOM      5  C   UNL     1      -5.953  -4.731   4.078  0.00  0.00    -0.037 C 
ATOM      6  N   UNL     1      -4.649  -4.061   4.022  0.00  0.00    +0.390 N 
ATOM      7  H   UNL     1      -4.649  -3.238   4.636  0.00  0.00    -0.080 HD
BRANCH   5   8
ATOM      8  C   UNL     1      -7.081  -3.733   4.130  0.00  0.00    -0.057 A 
ATOM      9  C   UNL     1      -6.950  -2.582   4.883  0.00  0.00    +0.006 A 
ATOM     10  C   UNL     1      -7.983  -1.665   4.934  0.00  0.00    +0.049 A 
ATOM     11  C   UNL     1      -9.153  -1.897   4.226  0.00  0.00    +0.162 A 
ATOM     12  C   UNL     1      -9.284  -3.053   3.466  0.00  0.00    +0.162 A 
ATOM     13  C   UNL     1      -8.242  -3.968   3.418  0.00  0.00    +0.051 A 
ATOM     14  O   UNL     1     -10.422  -3.298   2.761  0.00  0.00    -0.485 OA
ATOM     15  C   UNL     1     -11.582  -2.543   3.128  0.00  0.00    +0.270 C 
ATOM     16  C   UNL     1     -11.170  -1.072   3.274  0.00  0.00    +0.270 C 
ATOM     17  O   UNL     1     -10.163  -0.986   4.288  0.00  0.00    -0.485 OA
ENDBRANCH   5   8
ENDBRANCH   1   6
BRANCH   1  19
ATOM     18  N   UNL     1      -2.679  -2.221   1.452  0.00  0.00    -0.317 N 
ATOM     19  C   UNL     1      -3.142  -2.717   2.616  0.00  0.00    +0.196 C 
ATOM     20  O   UNL     1      -2.595  -2.429   3.659  0.00  0.00    -0.278 OA
ATOM     21  H   UNL     1      -3.117  -2.452   0.618  0.00  0.00    +0.149 HD
BRANCH  18  22
ATOM     22  C   UNL     1      -1.513  -1.334   1.446  0.00  0.00    +0.109 C 
BRANCH  22  23
ATOM     23  C   UNL     1      -1.197  -0.917   0.008  0.00  0.00    +0.056 C 
BRANCH  23  30
ATOM     24  C   UNL     1       3.425  -1.695  -0.041  0.00  0.00    +0.001 A 
ATOM     25  C   UNL     1       4.171  -0.523  -0.041  0.00  0.00    +0.002 A 
ATOM     26  C   UNL     1       3.549   0.705  -0.029  0.00  0.00    +0.026 A 
ATOM     27  C   UNL     1       2.159   0.776  -0.014  0.00  0.00    +0.047 A 
ATOM     28  C   UNL     1       1.409  -0.413  -0.014  0.00  0.00    +0.003 A 
ATOM     29  C   UNL     1       2.060  -1.648  -0.027  0.00  0.00    +0.010 A 
ATOM     30  C   UNL     1       0.002  -0.004   0.002  0.00  0.00    -0.021 A 
ATOM     31  C   UNL     1      -0.016   1.338   0.009  0.00  0.00    +0.087 A 
ATOM     32  N   UNL     1       1.264   1.822  -0.000  0.00  0.00    -0.360 N 
ATOM     33  H   UNL     1       1.504   2.762   0.003  0.00  0.00    +0.165 HD
ENDBRANCH  23  30
ENDBRANCH  22  23
ENDBRANCH  18  22
ENDBRANCH   1  19
TORSDOF 6
