REMARK  Name = ZINC10475413
REMARK  10 active torsions:
REMARK  status: ('A' for Active; 'I' for Inactive)
REMARK    1  A    between atoms: C_1  and  C_2
REMARK    2  A    between atoms: C_2  and  O_3
REMARK    3  A    between atoms: O_3  and  C_4
REMARK    4  A    between atoms: C_7  and  C_11
REMARK    5  A    between atoms: C_11  and  N_45
REMARK    6  A    between atoms: C_12  and  C_13
REMARK    7  A    between atoms: C_12  and  N_45
REMARK    8  A    between atoms: C_13  and  S_14
REMARK    9  A    between atoms: S_14  and  C_15
REMARK   10  A    between atoms: N_19  and  C_20
REMARK                            x       y       z     vdW  Elec       q    Type
REMARK                         _______ _______ _______ _____ _____    ______ ____
ROOT
ATOM      1  N   UNL     1       2.898   0.816  -1.415  0.00  0.00    +0.382 N 
ATOM      2  H   UNL     1       3.000   1.720  -1.891  0.00  0.00    -0.085 HD
ATOM      3  H   UNL     1       2.179   0.258  -1.891  0.00  0.00    -0.085 HD
ENDROOT
BRANCH   1   4
ATOM      4  C   UNL     1       2.490   1.045  -0.016  0.00  0.00    -0.047 C 
BRANCH   4   8
ATOM      5  C   UNL     1      -1.237   3.138   0.029  0.00  0.00    +0.148 A 
ATOM      6  C   UNL     1      -1.219   1.750   0.017  0.00  0.00    +0.061 A 
ATOM      7  C   UNL     1      -0.013   1.076   0.008  0.00  0.00    +0.020 A 
ATOM      8  C   UNL     1       1.176   1.783   0.000  0.00  0.00    -0.062 A 
ATOM      9  C   UNL     1       1.161   3.165   0.007  0.00  0.00    +0.020 A 
ATOM     10  C   UNL     1      -0.043   3.845   0.022  0.00  0.00    +0.061 A 
ATOM     11 BR   UNL     1      -0.063   5.735   0.032  0.00  0.00    -0.046 Br
ATOM     12 BR   UNL     1      -2.844   0.782   0.020  0.00  0.00    -0.046 Br
BRANCH   5  13
ATOM     13  O   UNL     1      -2.423   3.803   0.043  0.00  0.00    -0.490 OA
BRANCH  13  15
ATOM     14  C   UNL     1      -4.321   4.868  -1.007  0.00  0.00    +0.048 C 
ATOM     15  C   UNL     1      -3.000   4.127  -1.223  0.00  0.00    +0.226 C 
ENDBRANCH  13  15
ENDBRANCH   5  13
ENDBRANCH   4   8
ENDBRANCH   1   4
BRANCH   1  16
ATOM     16  C   UNL     1       4.183   0.094  -1.462  0.00  0.00    -0.071 C 
BRANCH  16  17
ATOM     17  C   UNL     1       4.580  -0.129  -2.922  0.00  0.00    +0.058 C 
BRANCH  17  18
ATOM     18  S   UNL     1       6.157  -1.015  -2.990  0.00  0.00    -0.086 S 
BRANCH  18  19
ATOM     19  C   UNL     1       6.367  -1.132  -4.736  0.00  0.00    +0.214 A 
ATOM     20  N   UNL     1       5.547  -0.671  -5.655  0.00  0.00    -0.101 NA
ATOM     21  N   UNL     1       5.999  -0.925  -6.830  0.00  0.00    -0.022 NA
ATOM     22  N   UNL     1       7.121  -1.555  -6.754  0.00  0.00    -0.038 NA
ATOM     23  N   UNL     1       7.408  -1.711  -5.386  0.00  0.00    -0.187 N 
BRANCH  23  24
ATOM     24  C   UNL     1       8.529  -2.332  -4.817  0.00  0.00    +0.070 A 
ATOM     25  C   UNL     1       9.073  -1.840  -3.639  0.00  0.00    +0.028 A 
ATOM     26  C   UNL     1      10.174  -2.457  -3.077  0.00  0.00    +0.002 A 
ATOM     27  C   UNL     1      10.740  -3.558  -3.694  0.00  0.00    +0.000 A 
ATOM     28  C   UNL     1      10.203  -4.047  -4.870  0.00  0.00    +0.002 A 
ATOM     29  C   UNL     1       9.099  -3.437  -5.434  0.00  0.00    +0.028 A 
ENDBRANCH  23  24
ENDBRANCH  18  19
ENDBRANCH  17  18
ENDBRANCH  16  17
ENDBRANCH   1  16
TORSDOF 9
