REMARK  Name = ZINC20805300
REMARK  11 active torsions:
REMARK  status: ('A' for Active; 'I' for Inactive)
REMARK    1  A    between atoms: C_1  and  C_2
REMARK    2  A    between atoms: C_3  and  C_11
REMARK    3  A    between atoms: C_4  and  C_10
REMARK    4  A    between atoms: N_5  and  C_7
REMARK    5  A    between atoms: C_7  and  C_8
REMARK    6  A    between atoms: C_7  and  C_9
REMARK    7  A    between atoms: N_12  and  N_13
REMARK    8  A    between atoms: C_17  and  S_20
REMARK    9  A    between atoms: N_18  and  N_19
REMARK   10  A    between atoms: S_20  and  C_21
REMARK   11  A    between atoms: C_21  and  C_22
REMARK                            x       y       z     vdW  Elec       q    Type
REMARK                         _______ _______ _______ _____ _____    ______ ____
ROOT
ATOM      1  N   UNL     1      -2.939   1.591   0.046  0.00  0.00    -0.204 N 
ATOM      2  C   UNL     1      -2.081   1.760  -1.031  0.00  0.00    +0.254 A 
ATOM      3  N   UNL     1      -2.412   2.209  -2.217  0.00  0.00    -0.109 NA
ATOM      4  N   UNL     1      -1.258   2.229  -3.011  0.00  0.00    -0.119 NA
ATOM      5  C   UNL     1      -0.257   1.797  -2.281  0.00  0.00    +0.210 A 
ATOM      6  N   UNL     1      -0.741   1.490  -1.041  0.00  0.00    -0.211 N 
ATOM      7  H   UNL     1      -2.553   1.206   1.001  0.00  0.00    +0.177 HD
ENDROOT
BRANCH   6   8
ATOM      8  N   UNL     1      -0.012   1.005   0.008  0.00  0.00    -0.294 N 
ATOM      9  H   UNL     1       1.067   0.823  -0.110  0.00  0.00    +0.163 HD
ATOM     10  H   UNL     1      -0.503   0.796   0.969  0.00  0.00    +0.163 HD
ENDBRANCH   6   8
BRANCH   1  12
ATOM     11  C   UNL     1      -5.100   1.750   0.923  0.00  0.00    +0.141 C 
ATOM     12  N   UNL     1      -4.297   1.909  -0.084  0.00  0.00    -0.187 NA
BRANCH  11  15
ATOM     13  C   UNL     1      -6.500   2.873  -1.692  0.00  0.00    +0.068 C 
ATOM     14  C   UNL     1      -7.166   2.586  -0.371  0.00  0.00    +0.069 A 
ATOM     15  C   UNL     1      -6.531   2.086   0.786  0.00  0.00    +0.038 A 
ATOM     16  C   UNL     1      -7.495   1.964   1.763  0.00  0.00    +0.045 A 
ATOM     17  N   UNL     1      -8.663   2.379   1.230  0.00  0.00    -0.265 N 
ATOM     18  N   UNL     1      -8.432   2.757  -0.098  0.00  0.00    -0.175 NA
ATOM     19  C   UNL     1      -7.284   1.462   3.168  0.00  0.00    +0.066 C 
BRANCH  17  20
ATOM     20  C   UNL     1      -9.954   2.421   1.921  0.00  0.00    +0.101 C 
ATOM     21  C   UNL     1     -10.477   3.859   1.937  0.00  0.00    +0.032 C 
ATOM     22  C   UNL     1     -10.953   1.522   1.190  0.00  0.00    +0.032 C 
ENDBRANCH  17  20
ENDBRANCH  11  15
ENDBRANCH   1  12
BRANCH   5  23
ATOM     23  S   UNL     1       1.416   1.635  -2.810  0.00  0.00    -0.080 S 
BRANCH  23  24
ATOM     24  C   UNL     1       1.388   2.200  -4.534  0.00  0.00    +0.112 C 
BRANCH  24  25
ATOM     25  C   UNL     1       2.776   2.111  -5.114  0.00  0.00    -0.036 A 
ATOM     26  C   UNL     1       3.190   0.952  -5.743  0.00  0.00    +0.004 A 
ATOM     27  C   UNL     1       4.462   0.870  -6.276  0.00  0.00    +0.001 A 
ATOM     28  C   UNL     1       5.322   1.948  -6.180  0.00  0.00    +0.015 A 
ATOM     29  C   UNL     1       4.909   3.108  -5.550  0.00  0.00    +0.018 A 
ATOM     30  C   UNL     1       3.633   3.191  -5.022  0.00  0.00    +0.019 A 
ATOM     31 BR   UNL     1       6.085   4.583  -5.418  0.00  0.00    -0.050 Br
ENDBRANCH  24  25
ENDBRANCH  23  24
ENDBRANCH   5  23
TORSDOF 7
