REMARK  Name = ZINC02211623
REMARK  8 active torsions:
REMARK  status: ('A' for Active; 'I' for Inactive)
REMARK    1  A    between atoms: C_1  and  C_2
REMARK    2  A    between atoms: C_2  and  C_34
REMARK    3  A    between atoms: C_12  and  S_18
REMARK    4  A    between atoms: C_14  and  S_16
REMARK    5  A    between atoms: S_16  and  C_17
REMARK    6  A    between atoms: S_18  and  C_19
REMARK    7  A    between atoms: C_19  and  C_20
REMARK    8  A    between atoms: C_20  and  N_21
REMARK                            x       y       z     vdW  Elec       q    Type
REMARK                         _______ _______ _______ _____ _____    ______ ____
ROOT
ATOM      1  C   UNL     1      -5.704   4.719   8.864  0.00  0.00    +0.041 C 
ATOM      2  C   UNL     1      -4.606   3.711   9.210  0.00  0.00    +0.068 C 
ATOM      3  C   UNL     1      -3.642   3.585   8.026  0.00  0.00    +0.071 C 
ATOM      4  C   UNL     1      -2.440   2.762   8.482  0.00  0.00    -0.019 A 
ATOM      5  C   UNL     1      -2.205   2.601   9.805  0.00  0.00    +0.021 A 
ATOM      6  S   UNL     1      -0.758   1.585   9.890  0.00  0.00    -0.071 S 
ATOM      7  C   UNL     1      -0.468   1.390   8.148  0.00  0.00    +0.115 A 
ATOM      8  C   UNL     1      -1.510   2.123   7.560  0.00  0.00    +0.056 A 
ATOM      9  C   UNL     1      -1.516   2.126   6.080  0.00  0.00    +0.174 A 
ATOM     10  N   UNL     1      -2.298   2.661   5.175  0.00  0.00    -0.128 NA
ATOM     11  N   UNL     1      -1.867   2.364   3.999  0.00  0.00    -0.122 NA
ATOM     12  C   UNL     1      -0.786   1.622   4.084  0.00  0.00    +0.198 A 
ATOM     13  N   UNL     1      -0.526   1.438   5.415  0.00  0.00    -0.248 N 
ATOM     14  C   UNL     1       0.442   0.766   6.113  0.00  0.00    +0.177 A 
ATOM     15  N   UNL     1       0.452   0.756   7.426  0.00  0.00    -0.216 NA
ATOM     16  C   UNL     1      -3.023   3.164  10.925  0.00  0.00    +0.203 C 
ATOM     17  O   UNL     1      -3.903   4.156  10.373  0.00  0.00    -0.368 OA
ATOM     18  C   UNL     1      -5.240   2.348   9.494  0.00  0.00    +0.041 C 
ENDROOT
BRANCH  14  19
ATOM     19  S   UNL     1       1.699  -0.100   5.232  0.00  0.00    -0.091 S 
ATOM     20  C   UNL     1       2.654  -0.764   6.619  0.00  0.00    +0.093 C 
ENDBRANCH  14  19
BRANCH  12  21
ATOM     21  S   UNL     1       0.148   0.978   2.736  0.00  0.00    -0.084 S 
BRANCH  21  22
ATOM     22  C   UNL     1      -0.729   1.579   1.267  0.00  0.00    +0.097 C 
BRANCH  22  23
ATOM     23  C   UNL     1      -0.013   1.086   0.008  0.00  0.00    +0.128 C 
BRANCH  23  24
ATOM     24  N   UNL     1      -0.721   1.571  -1.179  0.00  0.00    -0.233 N 
ATOM     25  C   UNL     1      -1.714   0.906  -1.798  0.00  0.00    +0.254 C 
ATOM     26  O   UNL     1      -2.158  -0.174  -1.466  0.00  0.00    -0.270 OA
ATOM     27  C   UNL     1      -2.175   1.713  -2.947  0.00  0.00    +0.049 A 
ATOM     28  C   UNL     1      -3.146   1.542  -3.921  0.00  0.00    +0.014 A 
ATOM     29  C   UNL     1      -3.326   2.517  -4.890  0.00  0.00    +0.001 A 
ATOM     30  C   UNL     1      -2.544   3.657  -4.891  0.00  0.00    +0.001 A 
ATOM     31  C   UNL     1      -1.569   3.841  -3.923  0.00  0.00    +0.014 A 
ATOM     32  C   UNL     1      -1.377   2.875  -2.949  0.00  0.00    +0.049 A 
ATOM     33  C   UNL     1      -0.461   2.737  -1.797  0.00  0.00    +0.254 C 
ATOM     34  O   UNL     1       0.384   3.543  -1.464  0.00  0.00    -0.270 OA
ENDBRANCH  23  24
ENDBRANCH  22  23
ENDBRANCH  21  22
ENDBRANCH  12  21
TORSDOF 5
