REMARK  Name = ZINC06136262
REMARK  10 active torsions:
REMARK  status: ('A' for Active; 'I' for Inactive)
REMARK    1  A    between atoms: C_1  and  O_2
REMARK    2  A    between atoms: O_2  and  C_3
REMARK    3  A    between atoms: C_3  and  C_4
REMARK    4  A    between atoms: C_4  and  N_5
REMARK    5  A    between atoms: C_6  and  C_10
REMARK    6  A    between atoms: C_10  and  C_12
REMARK    7  A    between atoms: C_10  and  N_67
REMARK    8  A    between atoms: N_29  and  C_32
REMARK    9  A    between atoms: C_37  and  O_38
REMARK   10  A    between atoms: O_38  and  C_39
REMARK                            x       y       z     vdW  Elec       q    Type
REMARK                         _______ _______ _______ _____ _____    ______ ____
ROOT
ATOM      1  C   UNL     1       0.190   1.073   0.128  0.00  0.00    +0.039 C 
ENDROOT
BRANCH   1   2
ATOM      2  C   UNL     1       1.665   1.356   0.246  0.00  0.00    +0.011 A 
ATOM      3  C   UNL     1       2.561   0.346   0.104  0.00  0.00    +0.017 A 
ATOM      4  C   UNL     1       3.985   0.652   0.224  0.00  0.00    +0.002 A 
ATOM      5  C   UNL     1       4.954  -0.350   0.085  0.00  0.00    +0.059 A 
ATOM      6  C   UNL     1       6.288  -0.031   0.202  0.00  0.00    +0.167 A 
ATOM      7  C   UNL     1       6.678   1.289   0.459  0.00  0.00    +0.168 A 
ATOM      8  C   UNL     1       5.729   2.285   0.598  0.00  0.00    +0.075 A 
ATOM      9  C   UNL     1       4.379   1.979   0.482  0.00  0.00    +0.053 A 
ATOM     10  N   UNL     1       3.418   2.961   0.617  0.00  0.00    -0.322 N 
ATOM     11  H   UNL     1       3.698   3.902   0.805  0.00  0.00    +0.169 HD
ATOM     12  C   UNL     1       2.111   2.669   0.498  0.00  0.00    +0.251 A 
ATOM     13  O   UNL     1       1.290   3.562   0.617  0.00  0.00    -0.268 OA
ATOM     14  O   UNL     1       8.041   1.332   0.527  0.00  0.00    -0.453 OA
ATOM     15  C   UNL     1       8.497   0.117  -0.096  0.00  0.00    +0.466 C 
ATOM     16  O   UNL     1       7.411  -0.805   0.110  0.00  0.00    -0.453 OA
ENDBRANCH   1   2
BRANCH   1  22
ATOM     17  C   UNL     1       0.078   0.937   2.543  0.00  0.00    -0.058 C 
ATOM     18  C   UNL     1      -0.611   1.515   3.782  0.00  0.00    +0.086 C 
ATOM     19  N   UNL     1      -2.055   1.256   3.702  0.00  0.00    -0.331 N 
ATOM     20  C   UNL     1      -2.631   1.866   2.495  0.00  0.00    +0.086 C 
ATOM     21  C   UNL     1      -1.942   1.288   1.257  0.00  0.00    -0.058 C 
ATOM     22  N   UNL     1      -0.494   1.575   1.339  0.00  0.00    +0.391 N 
ATOM     23  H   UNL     1      -0.359   2.591   1.403  0.00  0.00    -0.080 HD
BRANCH  19  24
ATOM     24  C   UNL     1      -2.710   1.707   4.854  0.00  0.00    +0.072 A 
ATOM     25  C   UNL     1      -2.033   2.488   5.778  0.00  0.00    +0.027 A 
ATOM     26  C   UNL     1      -2.683   2.937   6.912  0.00  0.00    +0.002 A 
ATOM     27  C   UNL     1      -4.006   2.601   7.133  0.00  0.00    +0.004 A 
ATOM     28  C   UNL     1      -4.686   1.818   6.218  0.00  0.00    +0.047 A 
ATOM     29  C   UNL     1      -4.043   1.368   5.077  0.00  0.00    +0.141 A 
BRANCH  29  30
ATOM     30  O   UNL     1      -4.711   0.598   4.177  0.00  0.00    -0.493 OA
ATOM     31  C   UNL     1      -6.075   0.290   4.472  0.00  0.00    +0.277 C 
ENDBRANCH  29  30
ENDBRANCH  19  24
ENDBRANCH   1  22
BRANCH   1  33
ATOM     32  N   UNL     1      -0.706   1.233  -2.255  0.00  0.00    -0.228 N 
ATOM     33  C   UNL     1      -0.364   1.788  -1.078  0.00  0.00    +0.143 A 
ATOM     34  N   UNL     1      -0.611   3.071  -1.181  0.00  0.00    -0.115 NA
ATOM     35  N   UNL     1      -1.073   3.293  -2.364  0.00  0.00    -0.023 NA
ATOM     36  N   UNL     1      -1.134   2.184  -3.014  0.00  0.00    -0.044 NA
BRANCH  32  37
ATOM     37  C   UNL     1      -0.609  -0.186  -2.608  0.00  0.00    +0.175 C 
BRANCH  37  38
ATOM     38  C   UNL     1      -1.915  -0.893  -2.241  0.00  0.00    +0.183 C 
BRANCH  38  40
ATOM     39  C   UNL     1      -2.995  -3.032  -2.282  0.00  0.00    +0.194 C 
ATOM     40  O   UNL     1      -1.821  -2.276  -2.586  0.00  0.00    -0.381 OA
ENDBRANCH  38  40
ENDBRANCH  37  38
ENDBRANCH  32  37
ENDBRANCH   1  33
TORSDOF 8
