REMARK  Name = ZINC59250188
REMARK  4 active torsions:
REMARK  status: ('A' for Active; 'I' for Inactive)
REMARK    1  A    between atoms: C_4  and  N_7
REMARK    2  A    between atoms: N_10  and  N_11
REMARK    3  A    between atoms: C_12  and  C_13
REMARK    4  A    between atoms: N_17  and  C_18
REMARK                            x       y       z     vdW  Elec       q    Type
REMARK                         _______ _______ _______ _____ _____    ______ ____
ROOT
ATOM      1  N   UNL     1       6.023  -1.922   0.134  0.00  0.00    -0.185 NA
ATOM      2  C   UNL     1       7.159  -2.548   0.217  0.00  0.00    +0.156 C 
ENDROOT
BRANCH   1   6
ATOM      3  N   UNL     1       3.622  -0.651  -0.037  0.00  0.00    -0.268 N 
ATOM      4  C   UNL     1       3.645  -1.995   0.057  0.00  0.00    +0.323 C 
ATOM      5  O   UNL     1       2.603  -2.622   0.064  0.00  0.00    -0.251 OA
ATOM      6  N   UNL     1       4.823  -2.644   0.143  0.00  0.00    -0.190 N 
ATOM      7  H   UNL     1       4.452  -0.156  -0.121  0.00  0.00    +0.156 HD
ATOM      8  H   UNL     1       4.839  -3.612   0.210  0.00  0.00    +0.179 HD
BRANCH   3  12
ATOM      9  C   UNL     1      -0.015   1.381   0.032  0.00  0.00    +0.000 A 
ATOM     10  C   UNL     1       0.140   0.219   0.765  0.00  0.00    +0.002 A 
ATOM     11  C   UNL     1       1.344  -0.457   0.744  0.00  0.00    +0.023 A 
ATOM     12  C   UNL     1       2.400   0.031  -0.015  0.00  0.00    +0.035 A 
ATOM     13  C   UNL     1       2.241   1.198  -0.750  0.00  0.00    +0.023 A 
ATOM     14  C   UNL     1       1.034   1.870  -0.725  0.00  0.00    +0.002 A 
ENDBRANCH   3  12
ENDBRANCH   1   6
BRANCH   2  15
ATOM     15  C   UNL     1       8.416  -1.792   0.208  0.00  0.00    +0.066 A 
ATOM     16  C   UNL     1       8.541  -0.423   0.123  0.00  0.00    +0.029 A 
ATOM     17  C   UNL     1       9.913  -0.129   0.147  0.00  0.00    +0.020 A 
ATOM     18  C   UNL     1      10.585  -1.298   0.245  0.00  0.00    +0.092 A 
ATOM     19  N   UNL     1       9.684  -2.321   0.288  0.00  0.00    -0.315 N 
BRANCH  19  20
ATOM     20  C   UNL     1       9.997  -3.683   0.394  0.00  0.00    +0.047 A 
ATOM     21  C   UNL     1       9.364  -4.470   1.347  0.00  0.00    +0.027 A 
ATOM     22  C   UNL     1       9.674  -5.812   1.448  0.00  0.00    +0.017 A 
ATOM     23  C   UNL     1      10.615  -6.372   0.602  0.00  0.00    +0.018 A 
ATOM     24  C   UNL     1      11.248  -5.590  -0.347  0.00  0.00    +0.017 A 
ATOM     25  C   UNL     1      10.937  -4.248  -0.458  0.00  0.00    +0.027 A 
ATOM     26 BR   UNL     1      11.037  -8.210   0.745  0.00  0.00    -0.050 Br
ENDBRANCH  19  20
ENDBRANCH   2  15
TORSDOF 4
