REMARK  Name = ZINC39311466
REMARK  6 active torsions:
REMARK  status: ('A' for Active; 'I' for Inactive)
REMARK    1  A    between atoms: C_4  and  C_7
REMARK    2  A    between atoms: C_7  and  N_8
REMARK    3  A    between atoms: C_11  and  N_15
REMARK    4  A    between atoms: C_17  and  S_19
REMARK    5  A    between atoms: S_19  and  C_20
REMARK    6  A    between atoms: C_20  and  C_21
REMARK                            x       y       z     vdW  Elec       q    Type
REMARK                         _______ _______ _______ _____ _____    ______ ____
ROOT
ATOM      1  N   UNL     1       4.152  -0.952   1.338  0.00  0.00    -0.282 N 
ATOM      2  C   UNL     1       4.941  -0.109   2.110  0.00  0.00    +0.150 A 
ATOM      3  C   UNL     1       5.153  -0.673   3.364  0.00  0.00    +0.110 A 
ATOM      4  C   UNL     1       5.929   0.030   4.287  0.00  0.00    +0.142 A 
ATOM      5  N   UNL     1       6.434   1.210   3.935  0.00  0.00    -0.219 NA
ATOM      6  C   UNL     1       6.210   1.711   2.738  0.00  0.00    +0.225 A 
ATOM      7  N   UNL     1       5.484   1.079   1.839  0.00  0.00    -0.219 NA
ATOM      8  N   UNL     1       4.502  -1.913   3.444  0.00  0.00    -0.312 N 
ATOM      9  C   UNL     1       3.834  -2.131   2.153  0.00  0.00    +0.221 C 
ATOM     10  H   UNL     1       4.491  -2.512   4.207  0.00  0.00    +0.149 HD
ENDROOT
BRANCH   4  11
ATOM     11  N   UNL     1       6.168  -0.493   5.552  0.00  0.00    -0.342 N 
ATOM     12  H   UNL     1       5.795  -1.354   5.800  0.00  0.00    +0.144 HD
ATOM     13  H   UNL     1       6.708   0.002   6.188  0.00  0.00    +0.144 HD
ENDBRANCH   4  11
BRANCH   1  14
ATOM     14  C   UNL     1       3.711  -0.707  -0.038  0.00  0.00    +0.144 C 
BRANCH  14  18
ATOM     15  C   UNL     1      -0.017   1.378   0.010  0.00  0.00    +0.000 A 
ATOM     16  C   UNL     1       1.171   2.086   0.002  0.00  0.00    +0.000 A 
ATOM     17  C   UNL     1       2.377   1.411  -0.013  0.00  0.00    +0.005 A 
ATOM     18  C   UNL     1       2.396   0.029  -0.020  0.00  0.00    -0.030 A 
ATOM     19  C   UNL     1       1.208  -0.679  -0.012  0.00  0.00    +0.005 A 
ATOM     20  C   UNL     1       0.002  -0.004   0.002  0.00  0.00    +0.000 A 
ENDBRANCH  14  18
ENDBRANCH   1  14
BRANCH   9  21
ATOM     21  S   UNL     1       4.480  -3.631   1.363  0.00  0.00    -0.112 S 
BRANCH  21  22
ATOM     22  C   UNL     1       6.268  -3.341   1.265  0.00  0.00    +0.146 C 
BRANCH  22  23
ATOM     23  C   UNL     1       6.935  -4.528   0.620  0.00  0.00    +0.118 A 
ATOM     24  N   UNL     1       7.139  -4.665  -0.658  0.00  0.00    -0.232 NA
ATOM     25  C   UNL     1       7.761  -5.848  -0.897  0.00  0.00    +0.089 A 
ATOM     26  C   UNL     1       8.206  -6.485  -2.058  0.00  0.00    +0.030 A 
ATOM     27  C   UNL     1       8.814  -7.706  -1.974  0.00  0.00    +0.002 A 
ATOM     28  C   UNL     1       8.994  -8.324  -0.745  0.00  0.00    +0.002 A 
ATOM     29  C   UNL     1       8.563  -7.714   0.414  0.00  0.00    +0.028 A 
ATOM     30  C   UNL     1       7.944  -6.473   0.348  0.00  0.00    +0.066 A 
ATOM     31  N   UNL     1       7.416  -5.611   1.288  0.00  0.00    -0.341 N 
ATOM     32  H   UNL     1       7.391  -5.752   2.248  0.00  0.00    +0.167 HD
ENDBRANCH  22  23
ENDBRANCH  21  22
ENDBRANCH   9  21
TORSDOF 6
