REMARK  Name = ZINC19419318
REMARK  9 active torsions:
REMARK  status: ('A' for Active; 'I' for Inactive)
REMARK    1  A    between atoms: C_1  and  N_2
REMARK    2  A    between atoms: N_2  and  C_3
REMARK    3  A    between atoms: N_2  and  C_4
REMARK    4  A    between atoms: C_13  and  S_14
REMARK    5  A    between atoms: S_14  and  N_17
REMARK    6  A    between atoms: N_17  and  C_18
REMARK    7  A    between atoms: C_18  and  C_19
REMARK    8  A    between atoms: C_19  and  C_20
REMARK    9  A    between atoms: C_27  and  O_30
REMARK                            x       y       z     vdW  Elec       q    Type
REMARK                         _______ _______ _______ _____ _____    ______ ____
ROOT
ATOM      1  S   UNL     1       7.562   1.007  -2.796  0.00  0.00    +0.059 S 
ATOM      2  O   UNL     1       8.936   0.729  -2.567  0.00  0.00    -0.153 OA
ATOM      3  O   UNL     1       6.618  -0.012  -3.094  0.00  0.00    -0.153 OA
ENDROOT
BRANCH   1  13
ATOM      4  C   UNL     1       9.034   5.388  -5.158  0.00  0.00    +0.037 A 
ATOM      5  C   UNL     1       9.869   5.610  -4.083  0.00  0.00    +0.024 A 
ATOM      6  C   UNL     1       9.926   4.705  -3.028  0.00  0.00    +0.002 A 
ATOM      7  C   UNL     1       9.161   3.578  -3.026  0.00  0.00    +0.010 A 
ATOM      8  C   UNL     1       8.297   3.315  -4.102  0.00  0.00    +0.010 A 
ATOM      9  C   UNL     1       8.230   4.229  -5.182  0.00  0.00    +0.005 A 
ATOM     10  C   UNL     1       7.366   3.964  -6.257  0.00  0.00    +0.010 A 
ATOM     11  C   UNL     1       6.605   2.836  -6.247  0.00  0.00    +0.003 A 
ATOM     12  C   UNL     1       6.674   1.933  -5.188  0.00  0.00    +0.029 A 
ATOM     13  C   UNL     1       7.496   2.159  -4.127  0.00  0.00    +0.113 A 
BRANCH   4  15
ATOM     14  C   UNL     1       8.564   7.626  -5.736  0.00  0.00    +0.129 C 
ATOM     15  N   UNL     1       8.985   6.301  -6.209  0.00  0.00    -0.336 N 
ATOM     16  C   UNL     1      10.278   6.375  -6.903  0.00  0.00    +0.129 C 
ENDBRANCH   4  15
ENDBRANCH   1  13
BRANCH   1  17
ATOM     17  N   UNL     1       7.005   1.788  -1.445  0.00  0.00    -0.190 NA
ATOM     18  H   UNL     1       7.723   2.108  -0.675  0.00  0.00    +0.148 HD
BRANCH  17  19
ATOM     19  C   UNL     1       5.612   2.238  -1.381  0.00  0.00    +0.110 C 
BRANCH  19  20
ATOM     20  C   UNL     1       5.248   2.565   0.068  0.00  0.00    +0.054 C 
BRANCH  20  21
ATOM     21  C   UNL     1       3.816   3.028   0.134  0.00  0.00    -0.021 A 
ATOM     22  C   UNL     1       3.386   4.300   0.115  0.00  0.00    +0.087 A 
ATOM     23  N   UNL     1       2.021   4.332   0.193  0.00  0.00    -0.360 N 
ATOM     24  H   UNL     1       1.492   5.297   0.190  0.00  0.00    +0.165 HD
ATOM     25  C   UNL     1       1.525   3.047   0.266  0.00  0.00    +0.047 A 
ATOM     26  C   UNL     1       2.628   2.175   0.233  0.00  0.00    +0.006 A 
ATOM     27  C   UNL     1       2.429   0.795   0.293  0.00  0.00    +0.055 A 
ATOM     28  C   UNL     1       1.145   0.294   0.386  0.00  0.00    +0.118 A 
ATOM     29  C   UNL     1       0.055   1.160   0.419  0.00  0.00    +0.047 A 
ATOM     30  C   UNL     1       0.240   2.523   0.360  0.00  0.00    +0.030 A 
BRANCH  28  31
ATOM     31  O   UNL     1       0.945  -1.049   0.445  0.00  0.00    -0.507 OA
ATOM     32  H   UNL     1      -0.077  -1.450   0.518  0.00  0.00    +0.292 HD
ENDBRANCH  28  31
ENDBRANCH  20  21
ENDBRANCH  19  20
ENDBRANCH  17  19
ENDBRANCH   1  17
TORSDOF 7
