REMARK  Name = ZINC39440835
REMARK  11 active torsions:
REMARK  status: ('A' for Active; 'I' for Inactive)
REMARK    1  A    between atoms: C_1  and  C_2
REMARK    2  A    between atoms: C_2  and  C_3
REMARK    3  A    between atoms: C_3  and  N_4
REMARK    4  A    between atoms: N_4  and  C_5
REMARK    5  A    between atoms: N_4  and  C_18
REMARK    6  A    between atoms: C_5  and  C_6
REMARK    7  A    between atoms: C_10  and  C_13
REMARK    8  A    between atoms: C_18  and  C_19
REMARK    9  A    between atoms: N_21  and  C_22
REMARK   10  A    between atoms: C_22  and  C_23
REMARK   11  A    between atoms: C_23  and  C_24
REMARK                            x       y       z     vdW  Elec       q    Type
REMARK                         _______ _______ _______ _____ _____    ______ ____
ROOT
ATOM      1  C   UNL     1       1.512  -2.238   0.098  0.00  0.00    +0.019 C 
ENDROOT
BRANCH   1   2
ATOM      2  C   UNL     1       0.835  -1.919  -1.210  0.00  0.00    +0.196 C 
ATOM      3  O   UNL     1      -0.271  -1.423  -1.215  0.00  0.00    -0.278 OA
ATOM      4  N   UNL     1       1.460  -2.187  -2.374  0.00  0.00    -0.317 N 
ATOM      5  H   UNL     1       2.345  -2.584  -2.370  0.00  0.00    +0.149 HD
BRANCH   4   6
ATOM      6  C   UNL     1       0.802  -1.877  -3.646  0.00  0.00    +0.109 C 
BRANCH   6   7
ATOM      7  C   UNL     1       1.718  -2.275  -4.804  0.00  0.00    +0.056 C 
BRANCH   7   8
ATOM      8  C   UNL     1       1.041  -1.957  -6.113  0.00  0.00    -0.021 A 
ATOM      9  C   UNL     1       1.049  -0.667  -6.806  0.00  0.00    +0.003 A 
ATOM     10  C   UNL     1       1.618   0.578  -6.534  0.00  0.00    +0.010 A 
ATOM     11  C   UNL     1       1.436   1.613  -7.407  0.00  0.00    +0.001 A 
ATOM     12  C   UNL     1       0.688   1.438  -8.563  0.00  0.00    +0.002 A 
ATOM     13  C   UNL     1       0.117   0.217  -8.851  0.00  0.00    +0.026 A 
ATOM     14  C   UNL     1       0.290  -0.850  -7.977  0.00  0.00    +0.047 A 
ATOM     15  N   UNL     1      -0.140  -2.159  -7.981  0.00  0.00    -0.360 N 
ATOM     16  C   UNL     1       0.322  -2.804  -6.866  0.00  0.00    +0.087 A 
ATOM     17  H   UNL     1      -0.685  -2.564  -8.674  0.00  0.00    +0.165 HD
ENDBRANCH   7   8
ENDBRANCH   6   7
ENDBRANCH   4   6
ENDBRANCH   1   2
BRANCH   1  18
ATOM     18  N   UNL     1       0.699  -1.724   1.208  0.00  0.00    +0.388 N 
ATOM     19  H   UNL     1      -0.245  -2.069   1.122  0.00  0.00    -0.081 HD
BRANCH  18  20
ATOM     20  C   UNL     1       0.688  -0.255   1.168  0.00  0.00    -0.078 C 
BRANCH  20  22
ATOM     21  C   UNL     1       2.086   1.801   1.413  0.00  0.00    +0.002 C 
ATOM     22  C   UNL     1       2.106   0.272   1.396  0.00  0.00    -0.022 C 
ENDBRANCH  20  22
ENDBRANCH  18  20
BRANCH  18  23
ATOM     23  C   UNL     1       1.270  -2.174   2.484  0.00  0.00    -0.020 C 
BRANCH  23  24
ATOM     24  C   UNL     1       0.349  -1.756   3.632  0.00  0.00    +0.243 C 
ATOM     25  N   UNL     1      -0.901  -2.526   3.588  0.00  0.00    -0.159 NA
ATOM     26  N   UNL     1      -0.879  -3.423   4.441  0.00  0.00    -0.152 NA
ATOM     27  C   UNL     1       0.390  -3.384   5.181  0.00  0.00    +0.296 C 
ATOM     28  O   UNL     1       0.952  -2.082   4.902  0.00  0.00    -0.324 OA
BRANCH  27  29
ATOM     29  C   UNL     1       0.138  -3.541   6.658  0.00  0.00    +0.042 A 
ATOM     30  C   UNL     1      -0.718  -4.378   7.294  0.00  0.00    +0.016 A 
ATOM     31  C   UNL     1      -0.781  -4.349   8.675  0.00  0.00    +0.008 A 
ATOM     32  C   UNL     1       0.013  -3.485   9.352  0.00  0.00    +0.045 A 
ATOM     33  S   UNL     1       0.895  -2.678   8.025  0.00  0.00    -0.097 S 
ENDBRANCH  27  29
ENDBRANCH  23  24
ENDBRANCH  18  23
ENDBRANCH   1  18
TORSDOF 10
