REMARK  Name = ZINC39412965
REMARK  8 active torsions:
REMARK  status: ('A' for Active; 'I' for Inactive)
REMARK    1  A    between atoms: C_1  and  C_2
REMARK    2  A    between atoms: C_7  and  N_8
REMARK    3  A    between atoms: C_12  and  C_34
REMARK    4  A    between atoms: C_12  and  C_35
REMARK    5  A    between atoms: C_14  and  N_20
REMARK    6  A    between atoms: N_20  and  C_21
REMARK    7  A    between atoms: C_21  and  C_22
REMARK    8  A    between atoms: C_27  and  C_28
REMARK                            x       y       z     vdW  Elec       q    Type
REMARK                         _______ _______ _______ _____ _____    ______ ____
ROOT
ATOM      1  N   UNL     1       0.025  -0.017   2.415  0.00  0.00    -0.221 N 
ATOM      2  C   UNL     1      -0.901  -0.168   3.527  0.00  0.00    +0.106 C 
ATOM      3  C   UNL     1      -1.579  -1.494   3.775  0.00  0.00    +0.031 C 
ATOM      4  C   UNL     1      -2.416  -1.331   5.057  0.00  0.00    -0.035 C 
ATOM      5  C   UNL     1      -1.569  -0.882   6.243  0.00  0.00    -0.009 C 
ATOM      6  C   UNL     1      -0.754   0.386   5.918  0.00  0.00    -0.061 C 
ATOM      7  C   UNL     1       0.085   0.062   4.709  0.00  0.00    +0.040 C 
ATOM      8  C   UNL     1       1.009   1.077   4.129  0.00  0.00    +0.107 C 
ATOM      9  N   UNL     1       0.934   0.982   2.845  0.00  0.00    -0.192 NA
ATOM     10  C   UNL     1      -3.074  -2.671   5.395  0.00  0.00    +0.011 C 
ATOM     11  C   UNL     1      -3.511  -0.292   4.807  0.00  0.00    +0.011 C 
ENDROOT
BRANCH   1  18
ATOM     12  C   UNL     1      -0.018   1.503   0.010  0.00  0.00    +0.046 C 
ATOM     13  C   UNL     1       0.002  -0.004   0.002  0.00  0.00    -0.028 A 
ATOM     14  C   UNL     1       0.006  -0.689  -1.197  0.00  0.00    +0.005 A 
ATOM     15  C   UNL     1       0.024  -2.071  -1.206  0.00  0.00    +0.000 A 
ATOM     16  C   UNL     1       0.039  -2.774  -0.014  0.00  0.00    +0.002 A 
ATOM     17  C   UNL     1       0.035  -2.096   1.188  0.00  0.00    +0.025 A 
ATOM     18  C   UNL     1       0.023  -0.706   1.201  0.00  0.00    +0.055 A 
ENDBRANCH   1  18
BRANCH   6  19
ATOM     19  N   UNL     1       0.109   0.736   7.054  0.00  0.00    +0.382 N 
ATOM     20  H   UNL     1       0.686  -0.056   7.295  0.00  0.00    -0.085 HD
ATOM     21  H   UNL     1       0.697   1.517   6.802  0.00  0.00    -0.085 HD
BRANCH  19  22
ATOM     22  C   UNL     1      -0.724   1.103   8.207  0.00  0.00    -0.067 C 
BRANCH  22  23
ATOM     23  C   UNL     1       0.174   1.468   9.390  0.00  0.00    +0.066 C 
ATOM     24  C   UNL     1       0.898   0.242   9.910  0.00  0.00    +0.115 C 
ATOM     25  N   UNL     1       0.508   0.087  11.133  0.00  0.00    -0.161 NA
ATOM     26  N   UNL     1      -0.402   1.061  11.530  0.00  0.00    -0.153 NA
ATOM     27  C   UNL     1      -0.658   1.917  10.575  0.00  0.00    +0.077 C 
BRANCH  27  28
ATOM     28  C   UNL     1      -1.565   3.075  10.635  0.00  0.00    -0.001 A 
ATOM     29  C   UNL     1      -1.734   3.894   9.515  0.00  0.00    +0.010 A 
ATOM     30  C   UNL     1      -2.585   4.977   9.579  0.00  0.00    +0.001 A 
ATOM     31  C   UNL     1      -3.272   5.254  10.748  0.00  0.00    +0.000 A 
ATOM     32  C   UNL     1      -3.110   4.447  11.861  0.00  0.00    +0.001 A 
ATOM     33  C   UNL     1      -2.268   3.357  11.811  0.00  0.00    +0.010 A 
ENDBRANCH  27  28
ENDBRANCH  22  23
ENDBRANCH  19  22
ENDBRANCH   6  19
TORSDOF 5
