REMARK  Name = ZINC02621308
REMARK  7 active torsions:
REMARK  status: ('A' for Active; 'I' for Inactive)
REMARK    1  A    between atoms: C_1  and  N_2
REMARK    2  A    between atoms: N_2  and  C_3
REMARK    3  A    between atoms: N_2  and  S_4
REMARK    4  A    between atoms: S_4  and  C_7
REMARK    5  A    between atoms: C_10  and  N_13
REMARK    6  A    between atoms: C_14  and  C_16
REMARK    7  A    between atoms: C_16  and  N_17
REMARK                            x       y       z     vdW  Elec       q    Type
REMARK                         _______ _______ _______ _____ _____    ______ ____
ROOT
ATOM      1  C   UNL     1      -2.869   3.382  -1.438  0.00  0.00    +0.214 C 
ENDROOT
BRANCH   1   2
ATOM      2  N   UNL     1      -1.841   2.702  -0.646  0.00  0.00    -0.215 N 
ATOM      3  C   UNL     1      -0.802   2.025  -1.175  0.00  0.00    +0.251 C 
ATOM      4  O   UNL     1      -0.551   1.867  -2.350  0.00  0.00    -0.272 OA
ATOM      5  C   UNL     1      -0.016   1.503   0.007  0.00  0.00    +0.138 C 
ATOM      6  C   UNL     1       1.393   2.084   0.002  0.00  0.00    +0.040 C 
ATOM      7  C   UNL     1       2.184   1.421  -1.133  0.00  0.00    +0.008 C 
ATOM      8  C   UNL     1       2.424  -0.042  -0.766  0.00  0.00    +0.035 C 
ATOM      9  C   UNL     1       1.134  -0.712  -0.372  0.00  0.00    -0.042 A 
ATOM     10  C   UNL     1       0.011   0.000  -0.011  0.00  0.00    -0.012 A 
ATOM     11  C   UNL     1      -1.145  -0.677   0.353  0.00  0.00    +0.006 A 
ATOM     12  C   UNL     1      -1.179  -2.057   0.351  0.00  0.00    +0.000 A 
ATOM     13  C   UNL     1      -0.055  -2.771  -0.017  0.00  0.00    +0.000 A 
ATOM     14  C   UNL     1       1.095  -2.100  -0.377  0.00  0.00    +0.004 A 
ATOM     15  N   UNL     1      -0.766   1.987   1.174  0.00  0.00    -0.281 N 
ATOM     16  C   UNL     1      -1.817   2.678   0.692  0.00  0.00    +0.310 C 
ATOM     17  O   UNL     1      -2.649   3.218   1.393  0.00  0.00    -0.252 OA
ATOM     18  H   UNL     1      -0.548   1.838   2.107  0.00  0.00    +0.152 HD
ENDBRANCH   1   2
BRANCH   1  20
ATOM     19  N   UNL     1      -5.066   2.835  -2.436  0.00  0.00    -0.284 N 
ATOM     20  C   UNL     1      -4.001   2.426  -1.718  0.00  0.00    +0.235 C 
ATOM     21  O   UNL     1      -3.953   1.290  -1.297  0.00  0.00    -0.274 OA
ATOM     22  H   UNL     1      -5.136   3.761  -2.715  0.00  0.00    +0.155 HD
BRANCH  19  26
ATOM     23  C   UNL     1      -8.057   0.119  -3.455  0.00  0.00    +0.106 A 
ATOM     24  C   UNL     1      -7.408   0.007  -2.239  0.00  0.00    +0.030 A 
ATOM     25  C   UNL     1      -6.416   0.906  -1.898  0.00  0.00    +0.025 A 
ATOM     26  C   UNL     1      -6.071   1.923  -2.778  0.00  0.00    +0.034 A 
ATOM     27  C   UNL     1      -6.728   2.036  -3.996  0.00  0.00    +0.025 A 
ATOM     28  C   UNL     1      -7.715   1.130  -4.334  0.00  0.00    +0.030 A 
BRANCH  23  29
ATOM     29  S   UNL     1      -9.322  -1.029  -3.886  0.00  0.00    +0.060 S 
ATOM     30  O   UNL     1      -9.396  -1.039  -5.305  0.00  0.00    -0.153 OA
ATOM     31  O   UNL     1      -9.077  -2.206  -3.128  0.00  0.00    -0.153 OA
BRANCH  29  33
ATOM     32  C   UNL     1     -11.552   0.465  -4.209  0.00  0.00    +0.131 C 
ATOM     33  N   UNL     1     -10.756  -0.405  -3.341  0.00  0.00    -0.183 NA
ATOM     34  C   UNL     1     -11.228  -0.724  -1.991  0.00  0.00    +0.131 C 
ENDBRANCH  29  33
ENDBRANCH  23  29
ENDBRANCH  19  26
ENDBRANCH   1  20
TORSDOF 5
