REMARK  Name = ZINC08398364
REMARK  5 active torsions:
REMARK  status: ('A' for Active; 'I' for Inactive)
REMARK    1  A    between atoms: C_1  and  C_2
REMARK    2  A    between atoms: C_2  and  C_4
REMARK    3  A    between atoms: C_5  and  C_29
REMARK    4  A    between atoms: C_11  and  C_23
REMARK    5  A    between atoms: C_14  and  C_17
REMARK                            x       y       z     vdW  Elec       q    Type
REMARK                         _______ _______ _______ _____ _____    ______ ____
ROOT
ATOM      1  C   UNL     1      -0.843  -0.806   0.517  0.00  0.00    +0.120 A 
ATOM      2  C   UNL     1      -2.114  -0.317   0.821  0.00  0.00    +0.102 A 
ATOM      3  N   UNL     1      -2.938  -1.365   0.929  0.00  0.00    -0.212 NA
ATOM      4  C   UNL     1      -2.276  -2.486   0.715  0.00  0.00    +0.221 A 
ATOM      5  N   UNL     1      -0.974  -2.191   0.450  0.00  0.00    -0.246 N 
ATOM      6  C   UNL     1      -0.284  -3.372   0.219  0.00  0.00    +0.223 C 
ATOM      7  N   UNL     1       0.972  -3.569  -0.067  0.00  0.00    -0.239 NA
ATOM      8  C   UNL     1       1.464  -4.938  -0.268  0.00  0.00    +0.163 C 
ATOM      9  C   UNL     1       0.463  -6.066  -0.128  0.00  0.00    +0.030 C 
ATOM     10  C   UNL     1      -0.798  -5.743   0.167  0.00  0.00    +0.062 C 
ATOM     11  N   UNL     1      -1.173  -4.409   0.340  0.00  0.00    -0.187 N 
ATOM     12  N   UNL     1      -2.425  -3.852   0.659  0.00  0.00    -0.226 N 
ATOM     13  H   UNL     1      -3.248  -4.343   0.804  0.00  0.00    +0.174 HD
ENDROOT
BRANCH  10  14
ATOM     14  C   UNL     1      -1.811  -6.813   0.313  0.00  0.00    -0.002 A 
ATOM     15  C   UNL     1      -3.049  -6.695  -0.319  0.00  0.00    +0.010 A 
ATOM     16  C   UNL     1      -3.989  -7.696  -0.179  0.00  0.00    +0.001 A 
ATOM     17  C   UNL     1      -3.706  -8.813   0.586  0.00  0.00    +0.000 A 
ATOM     18  C   UNL     1      -2.480  -8.935   1.215  0.00  0.00    +0.001 A 
ATOM     19  C   UNL     1      -1.530  -7.944   1.078  0.00  0.00    +0.010 A 
ENDBRANCH  10  14
BRANCH   8  20
ATOM     20  C   UNL     1       2.573  -5.181   0.723  0.00  0.00    -0.019 A 
ATOM     21  C   UNL     1       2.461  -4.705   2.017  0.00  0.00    +0.006 A 
ATOM     22  C   UNL     1       3.478  -4.928   2.925  0.00  0.00    +0.000 A 
ATOM     23  C   UNL     1       4.608  -5.626   2.541  0.00  0.00    +0.000 A 
ATOM     24  C   UNL     1       4.720  -6.102   1.248  0.00  0.00    +0.000 A 
ATOM     25  C   UNL     1       3.700  -5.883   0.340  0.00  0.00    +0.006 A 
ENDBRANCH   8  20
BRANCH   2  26
ATOM     26  C   UNL     1      -2.485   1.106   0.992  0.00  0.00    +0.003 A 
ATOM     27  C   UNL     1      -1.954   2.075   0.140  0.00  0.00    +0.010 A 
ATOM     28  C   UNL     1      -2.303   3.400   0.304  0.00  0.00    +0.001 A 
ATOM     29  C   UNL     1      -3.178   3.768   1.311  0.00  0.00    +0.000 A 
ATOM     30  C   UNL     1      -3.707   2.812   2.160  0.00  0.00    +0.001 A 
ATOM     31  C   UNL     1      -3.370   1.483   2.002  0.00  0.00    +0.010 A 
ENDBRANCH   2  26
BRANCH   1  33
ATOM     32  C   UNL     1       1.159   0.373   1.496  0.00  0.00    +0.093 C 
ATOM     33  C   UNL     1       0.327  -0.057   0.316  0.00  0.00    +0.179 C 
ATOM     34  O   UNL     1       0.667   0.246  -0.811  0.00  0.00    -0.291 OA
ENDBRANCH   1  33
TORSDOF 4
