REMARK  Name = ZINC23030499
REMARK  15 active torsions:
REMARK  status: ('A' for Active; 'I' for Inactive)
REMARK    1  A    between atoms: C_1  and  C_2
REMARK    2  A    between atoms: C_2  and  C_3
REMARK    3  A    between atoms: C_2  and  C_4
REMARK    4  A    between atoms: C_4  and  C_6
REMARK    5  A    between atoms: C_4  and  N_27
REMARK    6  A    between atoms: C_6  and  N_7
REMARK    7  A    between atoms: N_7  and  C_8
REMARK    8  A    between atoms: C_11  and  S_17
REMARK    9  A    between atoms: C_13  and  N_14
REMARK   10  A    between atoms: S_17  and  N_20
REMARK   11  A    between atoms: N_23  and  C_26
REMARK   12  A    between atoms: N_27  and  C_28
REMARK   13  A    between atoms: N_27  and  C_31
REMARK   14  A    between atoms: C_28  and  C_29
REMARK   15  A    between atoms: C_31  and  C_32
REMARK                            x       y       z     vdW  Elec       q    Type
REMARK                         _______ _______ _______ _____ _____    ______ ____
ROOT
ATOM      1  C   UNL     1       2.671  -0.210   4.449  0.00  0.00    +0.058 A 
ATOM      2  C   UNL     1       2.585  -1.461   3.851  0.00  0.00    +0.027 A 
ATOM      3  C   UNL     1       1.795  -1.637   2.733  0.00  0.00    +0.030 A 
ATOM      4  C   UNL     1       1.097  -0.567   2.202  0.00  0.00    +0.108 A 
ATOM      5  C   UNL     1       1.180   0.679   2.794  0.00  0.00    +0.063 A 
ATOM      6  C   UNL     1       1.965   0.861   3.916  0.00  0.00    +0.149 A 
ENDROOT
BRANCH   6   7
ATOM      7  N   UNL     1       2.053   2.196   4.551  0.00  0.00    +0.058 N 
ATOM      8  O   UNL     1       1.061   2.898   4.631  0.00  0.00    -0.126 OA
ATOM      9  O   UNL     1       3.117   2.591   4.992  0.00  0.00    -0.126 OA
ENDBRANCH   6   7
BRANCH   4  10
ATOM     10  S   UNL     1       0.094  -0.795   0.771  0.00  0.00    +0.061 S 
ATOM     11  O   UNL     1      -0.888   0.231   0.796  0.00  0.00    -0.153 OA
ATOM     12  O   UNL     1      -0.245  -2.174   0.728  0.00  0.00    -0.153 OA
BRANCH  10  13
ATOM     13  N   UNL     1       1.051  -0.502  -0.549  0.00  0.00    -0.180 NA
ATOM     14  C   UNL     1       1.813  -1.587  -1.185  0.00  0.00    +0.091 C 
ATOM     15  C   UNL     1       1.523  -1.574  -2.690  0.00  0.00    -0.062 C 
ATOM     16  N   UNL     1       1.790  -0.232  -3.224  0.00  0.00    +0.380 N 
ATOM     17  C   UNL     1       0.894   0.767  -2.628  0.00  0.00    -0.062 C 
ATOM     18  C   UNL     1       1.157   0.850  -1.121  0.00  0.00    +0.091 C 
ATOM     19  C   UNL     1       1.691  -0.220  -4.690  0.00  0.00    -0.096 C 
ATOM     20  H   UNL     1       2.821   0.038  -2.952  0.00  0.00    -0.082 HD
ENDBRANCH  10  13
ENDBRANCH   4  10
BRANCH   1  21
ATOM     21  N   UNL     1       3.465  -0.029   5.584  0.00  0.00    -0.344 N 
ATOM     22  H   UNL     1       3.453   0.933   6.117  0.00  0.00    +0.146 HD
BRANCH  21  23
ATOM     23  C   UNL     1       4.314  -1.122   6.065  0.00  0.00    +0.086 C 
BRANCH  23  24
ATOM     24  C   UNL     1       4.991  -0.704   7.372  0.00  0.00    -0.048 C 
BRANCH  24  26
ATOM     25  C   UNL     1       6.915  -2.235   6.925  0.00  0.00    +0.005 C 
ATOM     26  C   UNL     1       5.809  -1.876   7.920  0.00  0.00    -0.029 C 
ATOM     27  C   UNL     1       6.436  -1.478   9.258  0.00  0.00    +0.005 C 
ENDBRANCH  24  26
BRANCH  24  28
ATOM     28  N   UNL     1       3.967  -0.321   8.353  0.00  0.00    +0.387 N 
ATOM     29  H   UNL     1       3.185   0.241   7.822  0.00  0.00    -0.080 HD
BRANCH  28  30
ATOM     30  C   UNL     1       3.343  -1.507   8.954  0.00  0.00    -0.051 C 
BRANCH  30  31
ATOM     31  C   UNL     1       2.359  -2.104   7.981  0.00  0.00    -0.053 C 
ATOM     32  C   UNL     1       2.459  -3.365   7.639  0.00  0.00    +0.002 C 
ENDBRANCH  30  31
ENDBRANCH  28  30
BRANCH  28  33
ATOM     33  C   UNL     1       4.532   0.558   9.386  0.00  0.00    -0.051 C 
BRANCH  33  34
ATOM     34  C   UNL     1       3.413   1.249  10.123  0.00  0.00    -0.053 C 
ATOM     35  C   UNL     1       3.333   1.157  11.427  0.00  0.00    +0.002 C 
ENDBRANCH  33  34
ENDBRANCH  28  33
ENDBRANCH  24  28
ENDBRANCH  23  24
ENDBRANCH  21  23
ENDBRANCH   1  21
TORSDOF 12
