REMARK  Name = ZINC39694709
REMARK  7 active torsions:
REMARK  status: ('A' for Active; 'I' for Inactive)
REMARK    1  A    between atoms: C_1  and  C_2
REMARK    2  A    between atoms: C_4  and  C_37
REMARK    3  A    between atoms: C_6  and  C_8
REMARK    4  A    between atoms: C_8  and  N_9
REMARK    5  A    between atoms: C_10  and  C_12
REMARK    6  A    between atoms: C_23  and  C_25
REMARK    7  A    between atoms: C_31  and  C_33
REMARK                            x       y       z     vdW  Elec       q    Type
REMARK                         _______ _______ _______ _____ _____    ______ ____
ROOT
ATOM      1  C   UNL     1       3.127  -3.974   4.472  0.00  0.00    +0.100 C 
ATOM      2  C   UNL     1       3.874  -2.629   4.617  0.00  0.00    +0.121 C 
ATOM      3  N   UNL     1       3.762  -2.292   6.056  0.00  0.00    -0.299 N 
ATOM      4  C   UNL     1       3.931  -3.590   6.753  0.00  0.00    +0.115 C 
ATOM      5  C   UNL     1       3.170  -4.603   5.875  0.00  0.00    -0.004 C 
ATOM      6  C   UNL     1       1.754  -4.802   6.408  0.00  0.00    -0.010 C 
ATOM      7  C   UNL     1       1.821  -5.481   7.779  0.00  0.00    -0.082 C 
ATOM      8  N   UNL     1       2.505  -6.773   7.654  0.00  0.00    +0.379 N 
ATOM      9  C   UNL     1       3.895  -6.566   7.230  0.00  0.00    -0.082 C 
ATOM     10  C   UNL     1       3.916  -5.933   5.836  0.00  0.00    -0.010 C 
ATOM     11  C   UNL     1       3.554  -1.080   6.607  0.00  0.00    +0.236 C 
ATOM     12  O   UNL     1       3.486  -0.965   7.813  0.00  0.00    -0.274 OA
ATOM     13  H   UNL     1       2.494  -7.245   8.546  0.00  0.00    -0.086 HD
ATOM     14  H   UNL     1       2.027  -7.341   6.971  0.00  0.00    -0.086 HD
ENDROOT
BRANCH  11  15
ATOM     15  C   UNL     1       3.405   0.133   5.725  0.00  0.00    +0.162 C 
ATOM     16  C   UNL     1       4.796   0.631   5.279  0.00  0.00    +0.033 C 
ATOM     17  C   UNL     1       4.642   2.175   5.321  0.00  0.00    +0.021 C 
ATOM     18  C   UNL     1       3.708   2.361   6.543  0.00  0.00    +0.109 C 
ATOM     19  N   UNL     1       2.768   1.224   6.478  0.00  0.00    -0.283 N 
ATOM     20  C   UNL     1       1.533   1.189   7.017  0.00  0.00    +0.320 C 
ATOM     21  O   UNL     1       0.847   0.196   6.899  0.00  0.00    -0.266 OA
BRANCH  20  22
ATOM     22  C   UNL     1       1.004   2.385   7.766  0.00  0.00    +0.470 C 
ATOM     23  F   UNL     1      -0.288   2.112   8.229  0.00  0.00    -0.162 F 
ATOM     24  F   UNL     1       1.840   2.661   8.853  0.00  0.00    -0.162 F 
ATOM     25  F   UNL     1       0.969   3.492   6.912  0.00  0.00    -0.162 F 
ENDBRANCH  20  22
ENDBRANCH  11  15
BRANCH   1  27
ATOM     26  N   UNL     1       1.048  -4.676   3.331  0.00  0.00    -0.311 N 
ATOM     27  C   UNL     1       1.701  -3.739   4.046  0.00  0.00    +0.218 C 
ATOM     28  O   UNL     1       1.141  -2.705   4.346  0.00  0.00    -0.275 OA
ATOM     29  H   UNL     1       1.496  -5.503   3.091  0.00  0.00    +0.149 HD
BRANCH  26  30
ATOM     30  C   UNL     1      -0.339  -4.448   2.917  0.00  0.00    +0.139 C 
BRANCH  30  36
ATOM     31  C   UNL     1      -0.955  -6.818  -1.447  0.00  0.00    +0.044 C 
ATOM     32  C   UNL     1      -1.128  -6.773   0.049  0.00  0.00    -0.050 A 
ATOM     33  C   UNL     1      -1.740  -7.823   0.706  0.00  0.00    +0.006 A 
ATOM     34  C   UNL     1      -1.900  -7.782   2.079  0.00  0.00    -0.050 A 
ATOM     35  C   UNL     1      -1.446  -6.689   2.794  0.00  0.00    +0.008 A 
ATOM     36  C   UNL     1      -0.833  -5.639   2.137  0.00  0.00    -0.030 A 
ATOM     37  C   UNL     1      -0.670  -5.683   0.765  0.00  0.00    +0.008 A 
ATOM     38  C   UNL     1      -2.568  -8.927   2.795  0.00  0.00    +0.044 C 
ENDBRANCH  30  36
ENDBRANCH  26  30
ENDBRANCH   1  27
TORSDOF 5
