REMARK  Name = ZINC02280529
REMARK  7 active torsions:
REMARK  status: ('A' for Active; 'I' for Inactive)
REMARK    1  A    between atoms: C_1  and  C_2
REMARK    2  A    between atoms: C_5  and  N_8
REMARK    3  A    between atoms: N_18  and  N_19
REMARK    4  A    between atoms: C_21  and  C_25
REMARK    5  A    between atoms: C_25  and  C_26
REMARK    6  A    between atoms: C_25  and  C_27
REMARK    7  A    between atoms: C_25  and  C_28
REMARK                            x       y       z     vdW  Elec       q    Type
REMARK                         _______ _______ _______ _____ _____    ______ ____
ROOT
ATOM      1  N   UNL     1      -0.030  -6.363   1.614  0.00  0.00    -0.248 N 
ATOM      2  C   UNL     1       0.171  -5.074   1.978  0.00  0.00    +0.268 A 
ATOM      3  O   UNL     1       1.097  -4.742   2.697  0.00  0.00    -0.266 OA
ATOM      4  C   UNL     1      -0.772  -4.125   1.465  0.00  0.00    +0.076 A 
ATOM      5  C   UNL     1      -0.780  -2.691   1.704  0.00  0.00    -0.023 A 
ATOM      6  C   UNL     1      -1.770  -1.983   1.114  0.00  0.00    -0.004 A 
ATOM      7  S   UNL     1      -2.731  -3.180   0.223  0.00  0.00    -0.073 S 
ATOM      8  C   UNL     1      -1.806  -4.624   0.640  0.00  0.00    +0.118 A 
ATOM      9  N   UNL     1      -1.948  -5.904   0.320  0.00  0.00    -0.207 NA
ATOM     10  C   UNL     1      -1.058  -6.755   0.811  0.00  0.00    +0.218 A 
ATOM     11  N   UNL     1      -1.179  -8.087   0.499  0.00  0.00    -0.253 N 
ATOM     12  C   UNL     1      -2.002  -0.506   1.197  0.00  0.00    +0.046 C 
ATOM     13  C   UNL     1      -0.733   0.156   1.753  0.00  0.00    -0.000 C 
ATOM     14  C   UNL     1      -0.276  -0.624   2.990  0.00  0.00    +0.009 C 
ATOM     15  C   UNL     1       0.264  -1.991   2.571  0.00  0.00    +0.037 C 
ATOM     16  H   UNL     1      -0.585  -8.736   0.907  0.00  0.00    +0.169 HD
ENDROOT
BRANCH   1  21
ATOM     17  C   UNL     1       3.578 -10.306   3.522  0.00  0.00    +0.044 C 
ATOM     18  C   UNL     1       2.620  -9.259   3.015  0.00  0.00    -0.050 A 
ATOM     19  C   UNL     1       2.868  -8.620   1.814  0.00  0.00    +0.005 A 
ATOM     20  C   UNL     1       1.992  -7.659   1.347  0.00  0.00    +0.026 A 
ATOM     21  C   UNL     1       0.861  -7.337   2.085  0.00  0.00    +0.053 A 
ATOM     22  C   UNL     1       0.617  -7.978   3.292  0.00  0.00    +0.026 A 
ATOM     23  C   UNL     1       1.494  -8.940   3.751  0.00  0.00    +0.005 A 
ENDBRANCH   1  21
BRANCH  13  24
ATOM     24  C   UNL     1      -1.037   1.604   2.143  0.00  0.00    -0.035 C 
ATOM     25  C   UNL     1       0.224   2.253   2.716  0.00  0.00    +0.011 C 
ATOM     26  C   UNL     1      -1.494   2.380   0.905  0.00  0.00    +0.011 C 
ATOM     27  C   UNL     1      -2.147   1.626   3.196  0.00  0.00    +0.011 C 
ENDBRANCH  13  24
BRANCH  11  28
ATOM     28  N   UNL     1      -2.134  -8.497  -0.387  0.00  0.00    -0.254 NA
ATOM     29  H   UNL     1      -2.041  -8.015  -1.268  0.00  0.00    +0.140 HD
ATOM     30  H   UNL     1      -2.102  -9.497  -0.516  0.00  0.00    +0.140 HD
ENDBRANCH  11  28
TORSDOF 3
