REMARK  Name = ZINC64057928
REMARK  16 active torsions:
REMARK  status: ('A' for Active; 'I' for Inactive)
REMARK    1  A    between atoms: C_1  and  C_2
REMARK    2  A    between atoms: C_3  and  C_12
REMARK    3  A    between atoms: C_4  and  C_11
REMARK    4  A    between atoms: N_5  and  C_7
REMARK    5  A    between atoms: C_7  and  C_8
REMARK    6  A    between atoms: C_8  and  C_9
REMARK    7  A    between atoms: C_12  and  C_13
REMARK    8  A    between atoms: C_13  and  C_14
REMARK    9  A    between atoms: N_16  and  C_17
REMARK   10  A    between atoms: C_17  and  C_18
REMARK   11  A    between atoms: C_18  and  C_20
REMARK   12  A    between atoms: C_18  and  C_30
REMARK   13  A    between atoms: C_24  and  O_28
REMARK   14  A    between atoms: C_25  and  O_26
REMARK   15  A    between atoms: O_26  and  C_27
REMARK   16  A    between atoms: O_28  and  C_29
REMARK                            x       y       z     vdW  Elec       q    Type
REMARK                         _______ _______ _______ _____ _____    ______ ____
ROOT
ATOM      1  C   UNL     1       4.002   1.184  -7.015  0.00  0.00    +0.068 C 
ENDROOT
BRANCH   1   2
ATOM      2  C   UNL     1       4.664   2.290  -6.234  0.00  0.00    -0.033 C 
ATOM      3  C   UNL     1       5.774   2.192  -5.467  0.00  0.00    -0.000 A 
ATOM      4  C   UNL     1       6.662   1.069  -5.142  0.00  0.00    +0.010 A 
ATOM      5  C   UNL     1       7.719   1.284  -4.326  0.00  0.00    +0.001 A 
ATOM      6  C   UNL     1       7.987   2.548  -3.784  0.00  0.00    +0.002 A 
ATOM      7  C   UNL     1       7.217   3.628  -4.036  0.00  0.00    +0.026 A 
ATOM      8  C   UNL     1       6.079   3.517  -4.882  0.00  0.00    +0.043 A 
ATOM      9  N   UNL     1       5.192   4.400  -5.272  0.00  0.00    -0.380 N 
ATOM     10  C   UNL     1       4.226   3.735  -6.154  0.00  0.00    +0.145 C 
ATOM     11  H   UNL     1       5.178   5.337  -5.022  0.00  0.00    +0.160 HD
ENDBRANCH   1   2
BRANCH   1  12
ATOM     12  C   UNL     1       3.991   1.540  -8.479  0.00  0.00    +0.007 A 
ATOM     13  C   UNL     1       3.350   2.688  -8.907  0.00  0.00    +0.008 A 
ATOM     14  C   UNL     1       3.338   3.017 -10.249  0.00  0.00    +0.004 A 
ATOM     15  C   UNL     1       3.967   2.200 -11.170  0.00  0.00    +0.049 A 
ATOM     16  C   UNL     1       4.611   1.049 -10.748  0.00  0.00    +0.162 A 
ATOM     17  C   UNL     1       4.628   0.720  -9.396  0.00  0.00    +0.165 A 
BRANCH  17  18
ATOM     18  O   UNL     1       5.264  -0.406  -8.976  0.00  0.00    -0.491 OA
ATOM     19  C   UNL     1       4.492  -1.608  -8.929  0.00  0.00    +0.277 C 
ENDBRANCH  17  18
BRANCH  16  20
ATOM     20  O   UNL     1       5.230   0.244 -11.653  0.00  0.00    -0.491 OA
ATOM     21  C   UNL     1       5.177   0.646 -13.023  0.00  0.00    +0.277 C 
ENDBRANCH  16  20
ENDBRANCH   1  12
BRANCH   1  22
ATOM     22  C   UNL     1       2.564   1.003  -6.523  0.00  0.00    +0.116 C 
BRANCH  22  25
ATOM     23  C   UNL     1       1.417   0.313  -4.487  0.00  0.00    +0.213 C 
ATOM     24  O   UNL     1       0.361   0.489  -5.057  0.00  0.00    -0.276 OA
ATOM     25  N   UNL     1       2.578   0.542  -5.133  0.00  0.00    -0.314 N 
ATOM     26  H   UNL     1       3.423   0.401  -4.677  0.00  0.00    +0.149 HD
BRANCH  23  27
ATOM     27  C   UNL     1       1.431  -0.162  -3.057  0.00  0.00    +0.100 C 
BRANCH  27  28
ATOM     28  C   UNL     1      -0.006  -0.343  -2.566  0.00  0.00    +0.048 C 
BRANCH  28  31
ATOM     29  C   UNL     1      -0.018   1.503   0.010  0.00  0.00    +0.068 C 
ATOM     30  C   UNL     1       0.002  -0.004   0.002  0.00  0.00    +0.063 A 
ATOM     31  C   UNL     1       0.008  -0.818  -1.135  0.00  0.00    -0.004 A 
ATOM     32  C   UNL     1       0.028  -2.107  -0.725  0.00  0.00    +0.040 A 
ATOM     33  N   UNL     1       0.034  -2.109   0.625  0.00  0.00    -0.267 N 
ATOM     34  N   UNL     1       0.023  -0.777   1.058  0.00  0.00    -0.176 NA
ATOM     35  C   UNL     1       0.040  -3.323  -1.615  0.00  0.00    +0.065 C 
BRANCH  33  36
ATOM     36  C   UNL     1       0.055  -3.295   1.485  0.00  0.00    +0.158 C 
BRANCH  36  37
ATOM     37  C   UNL     1       1.504  -3.688   1.777  0.00  0.00    +0.141 C 
BRANCH  37  38
ATOM     38  C   UNL     1       1.525  -4.879   2.642  0.00  0.00    +0.064 C 
ATOM     39  N   UNL     1       1.541  -5.798   3.308  0.00  0.00    -0.197 NA
ENDBRANCH  37  38
ENDBRANCH  36  37
ENDBRANCH  33  36
ENDBRANCH  28  31
ENDBRANCH  27  28
ENDBRANCH  23  27
ENDBRANCH  22  25
ENDBRANCH   1  22
TORSDOF 12
