REMARK  Name = ZINC39530646
REMARK  9 active torsions:
REMARK  status: ('A' for Active; 'I' for Inactive)
REMARK    1  A    between atoms: C_1  and  C_2
REMARK    2  A    between atoms: C_2  and  C_3
REMARK    3  A    between atoms: C_2  and  S_4
REMARK    4  A    between atoms: S_4  and  C_7
REMARK    5  A    between atoms: C_9  and  C_27
REMARK    6  A    between atoms: C_12  and  N_13
REMARK    7  A    between atoms: C_17  and  C_20
REMARK    8  A    between atoms: C_25  and  O_26
REMARK    9  A    between atoms: C_27  and  C_28
REMARK                            x       y       z     vdW  Elec       q    Type
REMARK                         _______ _______ _______ _____ _____    ______ ____
ROOT
ATOM      1  C   UNL     1       2.351   0.121  -1.458  0.00  0.00    +0.110 A 
ATOM      2  C   UNL     1       3.504  -0.639  -1.444  0.00  0.00    +0.032 A 
ATOM      3  C   UNL     1       4.705  -0.069  -1.067  0.00  0.00    -0.041 A 
ATOM      4  C   UNL     1       4.758   1.264  -0.701  0.00  0.00    +0.006 A 
ATOM      5  C   UNL     1       3.609   2.030  -0.713  0.00  0.00    +0.025 A 
ATOM      6  C   UNL     1       2.401   1.462  -1.097  0.00  0.00    +0.055 A 
ENDROOT
BRANCH   6   7
ATOM      7  N   UNL     1       1.238   2.235  -1.115  0.00  0.00    -0.331 N 
ATOM      8  C   UNL     1       0.449   2.444   0.109  0.00  0.00    +0.086 C 
ATOM      9  C   UNL     1      -1.017   2.119  -0.197  0.00  0.00    -0.063 C 
ATOM     10  N   UNL     1      -1.463   2.913  -1.348  0.00  0.00    +0.386 N 
ATOM     11  C   UNL     1      -0.713   2.521  -2.548  0.00  0.00    -0.020 C 
ATOM     12  C   UNL     1       0.771   2.870  -2.357  0.00  0.00    +0.094 C 
ATOM     13  H   UNL     1      -2.448   2.756  -1.502  0.00  0.00    -0.085 HD
ATOM     14  H   UNL     1      -1.307   3.892  -1.161  0.00  0.00    -0.085 HD
BRANCH  11  15
ATOM     15  C   UNL     1      -1.253   3.263  -3.744  0.00  0.00    -0.018 A 
ATOM     16  C   UNL     1      -1.891   4.476  -3.574  0.00  0.00    +0.005 A 
ATOM     17  C   UNL     1      -2.387   5.157  -4.670  0.00  0.00    +0.000 A 
ATOM     18  C   UNL     1      -2.245   4.626  -5.939  0.00  0.00    +0.004 A 
ATOM     19  C   UNL     1      -1.608   3.413  -6.114  0.00  0.00    +0.045 A 
ATOM     20  C   UNL     1      -1.105   2.730  -5.016  0.00  0.00    +0.118 A 
BRANCH  20  21
ATOM     21  O   UNL     1      -0.472   1.540  -5.186  0.00  0.00    -0.507 OA
ATOM     22  H   UNL     1      -1.060   0.773  -5.149  0.00  0.00    +0.292 HD
ENDBRANCH  20  21
ENDBRANCH  11  15
ENDBRANCH   6   7
BRANCH   1  23
ATOM     23  S   UNL     1       0.820  -0.606  -1.939  0.00  0.00    +0.001 S 
ATOM     24  O   UNL     1      -0.168   0.344  -1.561  0.00  0.00    -0.169 OA
ATOM     25  O   UNL     1       0.837  -1.903  -1.359  0.00  0.00    -0.169 OA
BRANCH  23  27
ATOM     26  C   UNL     1       2.153  -1.526  -4.143  0.00  0.00    +0.032 C 
ATOM     27  C   UNL     1       0.909  -0.728  -3.747  0.00  0.00    +0.130 C 
ATOM     28  C   UNL     1      -0.340  -1.437  -4.272  0.00  0.00    +0.032 C 
ENDBRANCH  23  27
ENDBRANCH   1  23
BRANCH   3  29
ATOM     29  C   UNL     1       5.961  -0.903  -1.052  0.00  0.00    +0.070 C 
BRANCH  29  30
ATOM     30  C   UNL     1       6.634  -0.821  -2.398  0.00  0.00    -0.043 A 
ATOM     31  C   UNL     1       6.311  -1.730  -3.388  0.00  0.00    +0.004 A 
ATOM     32  C   UNL     1       6.929  -1.655  -4.623  0.00  0.00    +0.000 A 
ATOM     33  C   UNL     1       7.867  -0.671  -4.868  0.00  0.00    +0.000 A 
ATOM     34  C   UNL     1       8.189   0.239  -3.878  0.00  0.00    +0.000 A 
ATOM     35  C   UNL     1       7.569   0.167  -2.645  0.00  0.00    +0.004 A 
ENDBRANCH  29  30
ENDBRANCH   3  29
TORSDOF 7
