REMARK  Name = ZINC13208962
REMARK  8 active torsions:
REMARK  status: ('A' for Active; 'I' for Inactive)
REMARK    1  A    between atoms: C_1  and  C_2
REMARK    2  A    between atoms: C_2  and  C_22
REMARK    3  A    between atoms: C_4  and  C_15
REMARK    4  A    between atoms: C_15  and  O_17
REMARK    5  A    between atoms: O_17  and  C_18
REMARK    6  A    between atoms: C_18  and  C_19
REMARK    7  A    between atoms: C_18  and  C_20
REMARK    8  A    between atoms: C_18  and  C_21
REMARK                            x       y       z     vdW  Elec       q    Type
REMARK                         _______ _______ _______ _____ _____    ______ ____
ROOT
ATOM      1  C   UNL     1       4.204   1.735   0.567  0.00  0.00    +0.038 C 
ATOM      2  C   UNL     1       3.543   0.621  -0.247  0.00  0.00    +0.069 C 
ATOM      3  C   UNL     1       2.047   0.681  -0.073  0.00  0.00    +0.080 A 
ATOM      4  C   UNL     1       1.218   1.742   0.049  0.00  0.00    +0.171 A 
ATOM      5  N   UNL     1      -0.049   1.256   0.175  0.00  0.00    -0.228 NA
ATOM      6  C   UNL     1      -0.012  -0.049   0.134  0.00  0.00    +0.205 A 
ATOM      7  N   UNL     1       1.268  -0.446  -0.016  0.00  0.00    -0.298 N 
ATOM      8  C   UNL     1       1.832  -1.725  -0.105  0.00  0.00    +0.069 A 
ATOM      9  C   UNL     1       1.059  -2.852  -0.304  0.00  0.00    +0.028 A 
ATOM     10  C   UNL     1       1.664  -4.093  -0.395  0.00  0.00    +0.002 A 
ATOM     11  C   UNL     1       3.039  -4.205  -0.290  0.00  0.00    +0.002 A 
ATOM     12  C   UNL     1       3.818  -3.081  -0.087  0.00  0.00    +0.025 A 
ATOM     13  C   UNL     1       3.222  -1.834   0.011  0.00  0.00    +0.052 A 
ATOM     14  N   UNL     1       3.998  -0.692   0.242  0.00  0.00    -0.332 N 
ATOM     15  C   UNL     1       3.900   0.776  -1.726  0.00  0.00    +0.038 C 
ATOM     16  H   UNL     1       4.836  -0.765   0.724  0.00  0.00    +0.147 HD
ENDROOT
BRANCH   4  17
ATOM     17  C   UNL     1       1.611   3.160   0.047  0.00  0.00    +0.360 C 
ATOM     18  O   UNL     1       1.916   3.704  -0.996  0.00  0.00    -0.243 OA
BRANCH  17  19
ATOM     19  O   UNL     1       1.631   3.855   1.202  0.00  0.00    -0.454 OA
BRANCH  19  20
ATOM     20  C   UNL     1       2.029   5.250   1.125  0.00  0.00    +0.106 C 
ATOM     21  C   UNL     1       1.065   6.005   0.207  0.00  0.00    +0.055 C 
ATOM     22  C   UNL     1       1.992   5.869   2.523  0.00  0.00    +0.055 C 
ATOM     23  C   UNL     1       3.448   5.345   0.562  0.00  0.00    +0.055 C 
ENDBRANCH  19  20
ENDBRANCH  17  19
ENDBRANCH   4  17
TORSDOF 3
