REMARK  Name = ZINC41353817
REMARK  6 active torsions:
REMARK  status: ('A' for Active; 'I' for Inactive)
REMARK    1  A    between atoms: C_1  and  C_2
REMARK    2  A    between atoms: C_2  and  O_3
REMARK    3  A    between atoms: O_3  and  C_4
REMARK    4  A    between atoms: C_7  and  C_10
REMARK    5  A    between atoms: C_12  and  O_13
REMARK    6  A    between atoms: C_22  and  C_24
REMARK                            x       y       z     vdW  Elec       q    Type
REMARK                         _______ _______ _______ _____ _____    ______ ____
ROOT
ATOM      1  C   UNL     1      -1.551  -5.826   0.270  0.00  0.00    +0.139 A 
ATOM      2  C   UNL     1      -2.814  -6.241   0.649  0.00  0.00    +0.093 A 
ATOM      3  C   UNL     1      -3.072  -7.599   0.826  0.00  0.00    +0.131 A 
ATOM      4  C   UNL     1      -2.017  -8.520   0.608  0.00  0.00    +0.059 A 
ATOM      5  C   UNL     1      -2.221  -9.899   0.771  0.00  0.00    +0.017 A 
ATOM      6  C   UNL     1      -1.198 -10.768   0.557  0.00  0.00    +0.024 A 
ATOM      7  C   UNL     1       0.069 -10.292   0.173  0.00  0.00    +0.037 A 
ATOM      8  C   UNL     1       0.287  -8.922   0.007  0.00  0.00    +0.070 A 
ATOM      9  C   UNL     1      -0.750  -8.032   0.222  0.00  0.00    +0.141 A 
ATOM     10  O   UNL     1      -0.559  -6.705   0.060  0.00  0.00    -0.455 OA
ATOM     11  N   UNL     1       1.085 -11.168  -0.037  0.00  0.00    -0.279 N 
ATOM     12  C   UNL     1       2.171 -10.780  -0.696  0.00  0.00    +0.284 C 
ATOM     13  O   UNL     1       2.206  -9.678  -1.221  0.00  0.00    -0.266 OA
ATOM     14  H   UNL     1       1.017 -12.078   0.293  0.00  0.00    +0.155 HD
ENDROOT
BRANCH  12  15
ATOM     15  C   UNL     1       3.336 -11.680  -0.792  0.00  0.00    +0.191 A 
ATOM     16  C   UNL     1       4.496 -11.389  -1.432  0.00  0.00    +0.063 A 
ATOM     17  C   UNL     1       5.354 -12.563  -1.270  0.00  0.00    +0.022 A 
ATOM     18  C   UNL     1       6.647 -12.889  -1.686  0.00  0.00    +0.027 A 
ATOM     19  C   UNL     1       7.177 -14.107  -1.361  0.00  0.00    +0.019 A 
ATOM     20  C   UNL     1       6.437 -15.020  -0.622  0.00  0.00    +0.019 A 
ATOM     21  C   UNL     1       5.160 -14.717  -0.203  0.00  0.00    +0.048 A 
ATOM     22  C   UNL     1       4.601 -13.485  -0.520  0.00  0.00    +0.136 A 
ATOM     23  O   UNL     1       3.409 -12.915  -0.254  0.00  0.00    -0.450 OA
ATOM     24 BR   UNL     1       8.927 -14.550  -1.923  0.00  0.00    -0.050 Br
ENDBRANCH  12  15
BRANCH   1  28
ATOM     25  C   UNL     1      -0.799  -1.683  -0.261  0.00  0.00    +0.121 A 
ATOM     26  C   UNL     1       0.219  -2.605  -0.473  0.00  0.00    +0.046 A 
ATOM     27  C   UNL     1      -0.020  -3.950  -0.302  0.00  0.00    +0.015 A 
ATOM     28  C   UNL     1      -1.290  -4.388   0.086  0.00  0.00    +0.018 A 
ATOM     29  C   UNL     1      -2.312  -3.457   0.299  0.00  0.00    +0.015 A 
ATOM     30  C   UNL     1      -2.062  -2.114   0.131  0.00  0.00    +0.046 A 
BRANCH  25  31
ATOM     31  O   UNL     1      -0.559  -0.358  -0.430  0.00  0.00    -0.492 OA
BRANCH  31  33
ATOM     32  C   UNL     1       0.839   1.537  -0.973  0.00  0.00    +0.048 C 
ATOM     33  C   UNL     1       0.760   0.015  -0.834  0.00  0.00    +0.225 C 
ENDBRANCH  31  33
ENDBRANCH  25  31
ENDBRANCH   1  28
BRANCH   3  34
ATOM     34  O   UNL     1      -4.299  -8.028   1.195  0.00  0.00    -0.506 OA
ATOM     35  H   UNL     1      -4.944  -7.317   1.317  0.00  0.00    +0.292 HD
ENDBRANCH   3  34
TORSDOF 5
