REMARK  Name = ZINC40070628
REMARK  17 active torsions:
REMARK  status: ('A' for Active; 'I' for Inactive)
REMARK    1  A    between atoms: C_1  and  C_2
REMARK    2  A    between atoms: C_2  and  C_3
REMARK    3  A    between atoms: C_3  and  C_5
REMARK    4  A    between atoms: C_3  and  N_35
REMARK    5  A    between atoms: C_9  and  S_18
REMARK    6  A    between atoms: N_10  and  C_11
REMARK    7  A    between atoms: C_11  and  C_12
REMARK    8  A    between atoms: S_18  and  C_19
REMARK    9  A    between atoms: C_19  and  C_21
REMARK   10  A    between atoms: C_19  and  C_22
REMARK   11  A    between atoms: C_22  and  C_24
REMARK   12  A    between atoms: C_25  and  C_34
REMARK   13  A    between atoms: C_26  and  C_31
REMARK   14  A    between atoms: C_27  and  C_30
REMARK   15  A    between atoms: C_31  and  C_33
REMARK   16  A    between atoms: N_35  and  C_36
REMARK   17  A    between atoms: N_35  and  C_37
REMARK                            x       y       z     vdW  Elec       q    Type
REMARK                         _______ _______ _______ _____ _____    ______ ____
ROOT
ATOM      1  C   UNL     1      -1.545  -1.961  -0.345  0.00  0.00    +0.164 C 
ATOM      2  N   UNL     1      -0.749  -2.597   0.719  0.00  0.00    -0.248 N 
ATOM      3  N   UNL     1       0.294  -3.273   0.073  0.00  0.00    -0.163 NA
ATOM      4  C   UNL     1       0.230  -3.128  -1.207  0.00  0.00    +0.176 C 
ATOM      5  N   UNL     1      -0.854  -2.346  -1.587  0.00  0.00    -0.286 N 
ATOM      6  H   UNL     1      -0.913  -2.557   1.673  0.00  0.00    +0.170 HD
ENDROOT
BRANCH   1   7
ATOM      7  C   UNL     1      -1.542  -0.440  -0.180  0.00  0.00    -0.029 C 
BRANCH   7   8
ATOM      8  N   UNL     1      -2.160  -0.086   1.105  0.00  0.00    +0.380 N 
ATOM      9  C   UNL     1      -2.051   1.364   1.318  0.00  0.00    -0.096 C 
ATOM     10  C   UNL     1      -3.578  -0.473   1.090  0.00  0.00    -0.096 C 
ATOM     11  H   UNL     1      -1.687  -0.572   1.851  0.00  0.00    -0.082 HD
ENDBRANCH   7   8
BRANCH   7  13
ATOM     12  C   UNL     1       0.656  -0.457   1.007  0.00  0.00    +0.002 C 
ATOM     13  C   UNL     1      -0.102   0.075  -0.211  0.00  0.00    -0.015 C 
ENDBRANCH   7  13
ENDBRANCH   1   7
BRANCH   5  14
ATOM     14  C   UNL     1      -1.236  -1.977  -2.953  0.00  0.00    +0.144 C 
BRANCH  14  15
ATOM     15  C   UNL     1      -2.191  -3.005  -3.502  0.00  0.00    -0.030 A 
ATOM     16  C   UNL     1      -1.703  -4.141  -4.120  0.00  0.00    +0.005 A 
ATOM     17  C   UNL     1      -2.580  -5.084  -4.625  0.00  0.00    +0.000 A 
ATOM     18  C   UNL     1      -3.944  -4.890  -4.511  0.00  0.00    +0.000 A 
ATOM     19  C   UNL     1      -4.431  -3.754  -3.893  0.00  0.00    +0.000 A 
ATOM     20  C   UNL     1      -3.555  -2.814  -3.384  0.00  0.00    +0.005 A 
ENDBRANCH  14  15
ENDBRANCH   5  14
BRANCH   4  21
ATOM     21  S   UNL     1       1.378  -3.839  -2.339  0.00  0.00    -0.078 S 
BRANCH  21  22
ATOM     22  C   UNL     1       2.545  -4.735  -1.277  0.00  0.00    +0.123 C 
ATOM     23  C   UNL     1       1.816  -5.879  -0.570  0.00  0.00    +0.028 C 
BRANCH  22  24
ATOM     24  C   UNL     1       3.662  -5.296  -2.119  0.00  0.00    +0.192 C 
ATOM     25  O   UNL     1       3.479  -5.522  -3.298  0.00  0.00    -0.289 OA
BRANCH  24  26
ATOM     26  C   UNL     1       4.925  -5.559  -1.535  0.00  0.00    +0.087 A 
ATOM     27  C   UNL     1       6.027  -6.064  -2.188  0.00  0.00    -0.012 A 
ATOM     28  C   UNL     1       7.060  -6.164  -1.227  0.00  0.00    +0.041 A 
ATOM     29  C   UNL     1       6.541  -5.715  -0.022  0.00  0.00    +0.024 A 
ATOM     30  N   UNL     1       5.266  -5.349  -0.214  0.00  0.00    -0.355 N 
ATOM     31  H   UNL     1       4.675  -4.994   0.469  0.00  0.00    +0.166 HD
ATOM     32  C   UNL     1       7.288  -5.644   1.285  0.00  0.00    +0.064 C 
ATOM     33  C   UNL     1       6.116  -6.437  -3.645  0.00  0.00    +0.047 C 
BRANCH  28  34
ATOM     34  C   UNL     1       8.423  -6.653  -1.461  0.00  0.00    +0.162 C 
ATOM     35  O   UNL     1       8.660  -7.841  -1.401  0.00  0.00    -0.292 OA
ATOM     36  C   UNL     1       9.529  -5.679  -1.776  0.00  0.00    +0.091 C 
ENDBRANCH  28  34
ENDBRANCH  24  26
ENDBRANCH  22  24
ENDBRANCH  21  22
ENDBRANCH   4  21
TORSDOF 10
