REMARK  Name = ZINC08717677
REMARK  5 active torsions:
REMARK  status: ('A' for Active; 'I' for Inactive)
REMARK    1  A    between atoms: C_1  and  C_2
REMARK    2  A    between atoms: C_2  and  C_3
REMARK    3  A    between atoms: C_17  and  C_19
REMARK    4  A    between atoms: C_29  and  O_32
REMARK    5  A    between atoms: O_32  and  C_33
REMARK                            x       y       z     vdW  Elec       q    Type
REMARK                         _______ _______ _______ _____ _____    ______ ____
ROOT
ATOM      1  C   UNL     1       0.002  -0.004   0.002  0.00  0.00    -0.047 A 
ATOM      2  C   UNL     1       1.190  -0.707  -0.013  0.00  0.00    +0.005 A 
ATOM      3  C   UNL     1       2.420  -0.068  -0.022  0.00  0.00    +0.024 A 
ATOM      4  C   UNL     1       2.415   1.327  -0.015  0.00  0.00    +0.043 A 
ATOM      5  C   UNL     1       1.202   2.029   0.002  0.00  0.00    +0.047 A 
ATOM      6  C   UNL     1      -0.017   1.386   0.010  0.00  0.00    +0.015 A 
ATOM      7  C   UNL     1       1.562   3.478   0.007  0.00  0.00    +0.298 C 
ATOM      8  C   UNL     1       3.074   3.496  -0.008  0.00  0.00    +0.287 C 
ATOM      9  O   UNL     1       3.784   4.479  -0.009  0.00  0.00    -0.269 OA
ATOM     10  N   UNL     1       3.482   2.209  -0.022  0.00  0.00    -0.280 N 
ATOM     11  N   UNL     1       1.030   4.173  -1.164  0.00  0.00    -0.195 N 
ATOM     12  C   UNL     1       1.238   5.631  -1.332  0.00  0.00    +0.137 C 
ATOM     13  C   UNL     1       0.194   6.001  -2.394  0.00  0.00    +0.086 C 
ATOM     14  C   UNL     1      -0.268   4.658  -2.923  0.00  0.00    +0.068 C 
ATOM     15  N   UNL     1       0.249   3.712  -2.208  0.00  0.00    -0.184 NA
ATOM     16  C   UNL     1       0.939   6.263   0.002  0.00  0.00    +0.020 A 
ATOM     17  C   UNL     1       0.729   7.629   0.068  0.00  0.00    +0.009 A 
ATOM     18  C   UNL     1       0.500   8.245   1.282  0.00  0.00    +0.004 A 
ATOM     19  C   UNL     1       0.479   7.491   2.441  0.00  0.00    +0.049 A 
ATOM     20  C   UNL     1       0.676   6.124   2.381  0.00  0.00    +0.162 A 
ATOM     21  C   UNL     1       0.900   5.493   1.153  0.00  0.00    +0.171 A 
ATOM     22  O   UNL     1       1.065   4.143   1.165  0.00  0.00    -0.450 OA
ATOM     23  H   UNL     1       4.412   1.935  -0.033  0.00  0.00    +0.155 HD
ENDROOT
BRANCH  14  24
ATOM     24  C   UNL     1      -1.169   4.460  -4.074  0.00  0.00    -0.002 A 
ATOM     25  C   UNL     1      -1.673   5.562  -4.768  0.00  0.00    +0.010 A 
ATOM     26  C   UNL     1      -2.510   5.369  -5.847  0.00  0.00    +0.001 A 
ATOM     27  C   UNL     1      -2.861   4.088  -6.235  0.00  0.00    +0.000 A 
ATOM     28  C   UNL     1      -2.370   2.992  -5.548  0.00  0.00    +0.001 A 
ATOM     29  C   UNL     1      -1.527   3.169  -4.470  0.00  0.00    +0.010 A 
ENDBRANCH  14  24
BRANCH   1  31
ATOM     30  C   UNL     1      -1.757  -1.007  -1.429  0.00  0.00    +0.009 C 
ATOM     31  C   UNL     1      -1.302  -0.759   0.011  0.00  0.00    +0.032 C 
ENDBRANCH   1  31
BRANCH  20  32
ATOM     32  O   UNL     1       0.651   5.387   3.524  0.00  0.00    -0.491 OA
ATOM     33  C   UNL     1       0.417   6.092   4.745  0.00  0.00    +0.277 C 
ENDBRANCH  20  32
TORSDOF 3
