REMARK  Name = ZINC40919991
REMARK  9 active torsions:
REMARK  status: ('A' for Active; 'I' for Inactive)
REMARK    1  A    between atoms: C_1  and  C_2
REMARK    2  A    between atoms: C_2  and  O_3
REMARK    3  A    between atoms: O_3  and  C_4
REMARK    4  A    between atoms: C_6  and  C_19
REMARK    5  A    between atoms: C_9  and  O_10
REMARK    6  A    between atoms: O_10  and  C_11
REMARK    7  A    between atoms: C_11  and  C_12
REMARK    8  A    between atoms: C_24  and  C_28
REMARK    9  A    between atoms: C_24  and  C_29
REMARK                            x       y       z     vdW  Elec       q    Type
REMARK                         _______ _______ _______ _____ _____    ______ ____
ROOT
ATOM      1  C   UNL     1       0.777  -1.811  -1.336  0.00  0.00    +0.162 A 
ATOM      2  C   UNL     1       0.243  -2.669  -0.388  0.00  0.00    +0.055 A 
ATOM      3  C   UNL     1       0.352  -4.037  -0.555  0.00  0.00    -0.015 A 
ATOM      4  C   UNL     1       0.992  -4.552  -1.667  0.00  0.00    +0.010 A 
ATOM      5  C   UNL     1       1.526  -3.702  -2.616  0.00  0.00    +0.050 A 
ATOM      6  C   UNL     1       1.416  -2.330  -2.458  0.00  0.00    +0.162 A 
ENDROOT
BRANCH   3   7
ATOM      7  C   UNL     1      -0.229  -4.969   0.477  0.00  0.00    +0.177 C 
ATOM      8  C   UNL     1       0.875  -5.827   1.057  0.00  0.00    +0.041 C 
ATOM      9  C   UNL     1       1.004  -7.135   0.750  0.00  0.00    +0.020 C 
ATOM     10  C   UNL     1       2.116  -7.966   1.346  0.00  0.00    +0.058 C 
ATOM     11  C   UNL     1       3.338  -7.082   1.606  0.00  0.00    -0.023 C 
ATOM     12  C   UNL     1       2.922  -5.952   2.553  0.00  0.00    +0.086 C 
ATOM     13  C   UNL     1       1.773  -5.200   1.940  0.00  0.00    +0.164 C 
ATOM     14  O   UNL     1       1.617  -4.027   2.213  0.00  0.00    -0.292 OA
ATOM     15  C   UNL     1       4.448  -7.914   2.251  0.00  0.00    +0.011 C 
ATOM     16  C   UNL     1       3.837  -6.492   0.285  0.00  0.00    +0.011 C 
ATOM     17  N   UNL     1       0.136  -7.769  -0.107  0.00  0.00    -0.286 N 
ATOM     18  C   UNL     1      -1.051  -7.128  -0.420  0.00  0.00    +0.240 A 
ATOM     19  N   UNL     1      -1.237  -5.813  -0.146  0.00  0.00    -0.201 N 
ATOM     20  N   UNL     1      -2.527  -5.522  -0.584  0.00  0.00    -0.042 NA
ATOM     21  N   UNL     1      -3.006  -6.621  -1.073  0.00  0.00    -0.021 NA
ATOM     22  N   UNL     1      -2.143  -7.566  -0.979  0.00  0.00    -0.092 NA
ATOM     23  H   UNL     1       0.348  -8.638  -0.481  0.00  0.00    +0.155 HD
ENDBRANCH   3   7
BRANCH   1  24
ATOM     24  O   UNL     1       0.671  -0.465  -1.174  0.00  0.00    -0.489 OA
BRANCH  24  26
ATOM     25  C   UNL     1      -0.019   1.526   0.010  0.00  0.00    +0.048 C 
ATOM     26  C   UNL     1       0.002  -0.004   0.002  0.00  0.00    +0.226 C 
ENDBRANCH  24  26
ENDBRANCH   1  24
BRANCH   6  27
ATOM     27  O   UNL     1       1.936  -1.492  -3.394  0.00  0.00    -0.484 OA
BRANCH  27  28
ATOM     28  C   UNL     1       2.578  -2.095  -4.520  0.00  0.00    +0.266 C 
BRANCH  28  29
ATOM     29  C   UNL     1       3.088  -1.019  -5.443  0.00  0.00    +0.008 A 
ATOM     30  C   UNL     1       2.901   0.313  -5.123  0.00  0.00    +0.008 A 
ATOM     31  C   UNL     1       3.369   1.300  -5.970  0.00  0.00    +0.000 A 
ATOM     32  C   UNL     1       4.025   0.956  -7.138  0.00  0.00    +0.001 A 
ATOM     33  C   UNL     1       4.213  -0.375  -7.458  0.00  0.00    +0.020 A 
ATOM     34  C   UNL     1       3.750  -1.363  -6.608  0.00  0.00    +0.047 A 
ATOM     35 CL   UNL     1       3.992  -3.035  -7.007  0.00  0.00    -0.083 Cl
ENDBRANCH  28  29
ENDBRANCH  27  28
ENDBRANCH   6  27
TORSDOF 6
