REMARK  Name = ZINC58991044
REMARK  11 active torsions:
REMARK  status: ('A' for Active; 'I' for Inactive)
REMARK    1  A    between atoms: C_1  and  C_2
REMARK    2  A    between atoms: C_5  and  C_8
REMARK    3  A    between atoms: C_8  and  C_30
REMARK    4  A    between atoms: N_9  and  N_10
REMARK    5  A    between atoms: C_11  and  C_13
REMARK    6  A    between atoms: C_13  and  C_14
REMARK    7  A    between atoms: C_14  and  C_15
REMARK    8  A    between atoms: C_15  and  S_16
REMARK    9  A    between atoms: S_16  and  C_17
REMARK   10  A    between atoms: C_20  and  C_23
REMARK   11  A    between atoms: N_21  and  N_22
REMARK                            x       y       z     vdW  Elec       q    Type
REMARK                         _______ _______ _______ _____ _____    ______ ____
ROOT
ATOM      1  C   UNL     1      -0.452  -4.296  -7.300  0.00  0.00    +0.078 C 
ENDROOT
BRANCH   1   2
ATOM      2  C   UNL     1      -0.292  -5.067  -5.988  0.00  0.00    +0.020 C 
BRANCH   2   3
ATOM      3  C   UNL     1      -0.252  -4.081  -4.819  0.00  0.00    +0.098 C 
BRANCH   3   5
ATOM      4  N   UNL     1      -0.034  -4.174  -2.357  0.00  0.00    -0.207 N 
ATOM      5  C   UNL     1      -0.094  -4.840  -3.526  0.00  0.00    +0.232 C 
ATOM      6  O   UNL     1      -0.022  -6.051  -3.539  0.00  0.00    -0.274 OA
ATOM      7  H   UNL     1      -0.091  -3.205  -2.346  0.00  0.00    +0.177 HD
BRANCH   4   9
ATOM      8  C   UNL     1       0.284  -4.236  -0.041  0.00  0.00    +0.063 C 
ATOM      9  N   UNL     1       0.113  -4.880  -1.155  0.00  0.00    -0.185 NA
ATOM     10  C   UNL     1       0.280  -4.982   1.268  0.00  0.00    +0.068 C 
BRANCH   8  15
ATOM     11  C   UNL     1       1.058   1.462  -0.100  0.00  0.00    +0.044 C 
ATOM     12  C   UNL     1       0.855  -0.031  -0.085  0.00  0.00    -0.050 A 
ATOM     13  C   UNL     1       0.131  -0.617   0.938  0.00  0.00    +0.004 A 
ATOM     14  C   UNL     1      -0.059  -1.983   0.959  0.00  0.00    +0.010 A 
ATOM     15  C   UNL     1       0.482  -2.775  -0.057  0.00  0.00    -0.003 A 
ATOM     16  C   UNL     1       1.211  -2.176  -1.087  0.00  0.00    +0.010 A 
ATOM     17  C   UNL     1       1.389  -0.808  -1.097  0.00  0.00    +0.004 A 
ENDBRANCH   8  15
ENDBRANCH   4   9
ENDBRANCH   3   5
ENDBRANCH   2   3
ENDBRANCH   1   2
BRANCH   1  18
ATOM     18  S   UNL     1      -0.501  -5.465  -8.686  0.00  0.00    -0.084 S 
BRANCH  18  19
ATOM     19  C   UNL     1      -0.685  -4.436 -10.105  0.00  0.00    +0.209 A 
ATOM     20  N   UNL     1      -0.760  -3.124 -10.112  0.00  0.00    -0.121 NA
ATOM     21  N   UNL     1      -0.891  -2.696 -11.317  0.00  0.00    -0.127 NA
ATOM     22  C   UNL     1      -0.909  -3.708 -12.152  0.00  0.00    +0.183 A 
ATOM     23  N   UNL     1      -0.772  -4.854 -11.402  0.00  0.00    -0.224 N 
BRANCH  22  24
ATOM     24  C   UNL     1      -1.045  -3.632 -13.622  0.00  0.00    +0.035 A 
ATOM     25  C   UNL     1      -2.011  -4.397 -14.278  0.00  0.00    +0.013 A 
ATOM     26  C   UNL     1      -2.134  -4.321 -15.649  0.00  0.00    +0.001 A 
ATOM     27  C   UNL     1      -1.301  -3.488 -16.377  0.00  0.00    +0.001 A 
ATOM     28  C   UNL     1      -0.341  -2.727 -15.734  0.00  0.00    +0.016 A 
ATOM     29  C   UNL     1      -0.211  -2.790 -14.361  0.00  0.00    +0.029 A 
ATOM     30 BR   UNL     1       1.097  -1.743 -13.483  0.00  0.00    -0.050 Br
ENDBRANCH  22  24
BRANCH  23  31
ATOM     31  N   UNL     1      -0.733  -6.140 -11.860  0.00  0.00    -0.295 N 
ATOM     32  H   UNL     1      -1.664  -6.509 -11.981  0.00  0.00    +0.163 HD
ATOM     33  H   UNL     1      -0.204  -6.204 -12.717  0.00  0.00    +0.163 HD
ENDBRANCH  23  31
ENDBRANCH  18  19
ENDBRANCH   1  18
TORSDOF 9
