REMARK  Name = ZINC05494536
REMARK  6 active torsions:
REMARK  status: ('A' for Active; 'I' for Inactive)
REMARK    1  A    between atoms: C_4  and  C_7
REMARK    2  A    between atoms: C_12  and  S_30
REMARK    3  A    between atoms: C_20  and  S_25
REMARK    4  A    between atoms: S_25  and  N_28
REMARK    5  A    between atoms: S_30  and  C_31
REMARK    6  A    between atoms: C_36  and  N_37
REMARK                            x       y       z     vdW  Elec       q    Type
REMARK                         _______ _______ _______ _____ _____    ______ ____
ROOT
ATOM      1  C   UNL     1      -0.070   5.347   0.031  0.00  0.00    +0.104 C 
ATOM      2  C   UNL     1      -0.323   5.845   1.447  0.00  0.00    +0.024 C 
ATOM      3  C   UNL     1      -1.718   5.404   1.938  0.00  0.00    +0.022 C 
ATOM      4  C   UNL     1      -2.059   6.419   3.050  0.00  0.00    +0.070 C 
ATOM      5  C   UNL     1      -1.213   7.674   2.775  0.00  0.00    +0.101 C 
ATOM      6  C   UNL     1      -0.393   7.380   1.496  0.00  0.00    +0.045 C 
ATOM      7  C   UNL     1      -1.150   7.944   0.324  0.00  0.00    -0.020 A 
ATOM      8  C   UNL     1      -1.511   9.284   0.360  0.00  0.00    +0.034 A 
ATOM      9  C   UNL     1      -2.208   9.849  -0.689  0.00  0.00    +0.105 A 
ATOM     10  C   UNL     1      -2.553   9.084  -1.788  0.00  0.00    +0.030 A 
ATOM     11  C   UNL     1      -2.198   7.751  -1.834  0.00  0.00    +0.025 A 
ATOM     12  C   UNL     1      -1.496   7.181  -0.778  0.00  0.00    +0.031 A 
ATOM     13  N   UNL     1      -1.145   5.828  -0.845  0.00  0.00    -0.336 N 
ATOM     14 CL   UNL     1      -2.287   9.097   2.506  0.00  0.00    -0.120 Cl
ATOM     15  H   UNL     1      -1.600   5.225  -1.454  0.00  0.00    +0.147 HD
ENDROOT
BRANCH   1  19
ATOM     16  C   UNL     1      -0.013   1.076   0.008  0.00  0.00    +0.000 A 
ATOM     17  C   UNL     1      -1.219   1.751   0.017  0.00  0.00    +0.000 A 
ATOM     18  C   UNL     1      -1.238   3.133   0.030  0.00  0.00    +0.005 A 
ATOM     19  C   UNL     1      -0.050   3.840   0.023  0.00  0.00    -0.027 A 
ATOM     20  C   UNL     1       1.156   3.165   0.008  0.00  0.00    +0.005 A 
ATOM     21  C   UNL     1       1.175   1.783   0.000  0.00  0.00    +0.000 A 
ENDBRANCH   1  19
BRANCH   9  22
ATOM     22  S   UNL     1      -2.660  11.551  -0.627  0.00  0.00    +0.056 S 
ATOM     23  O   UNL     1      -3.781  11.705  -1.487  0.00  0.00    -0.153 OA
ATOM     24  O   UNL     1      -2.698  11.911   0.747  0.00  0.00    -0.153 OA
BRANCH  22  25
ATOM     25  N   UNL     1      -1.420  12.412  -1.308  0.00  0.00    -0.204 NA
ATOM     26  H   UNL     1      -0.636  11.949  -1.645  0.00  0.00    +0.144 HD
ATOM     27  H   UNL     1      -1.477  13.378  -1.370  0.00  0.00    +0.144 HD
ENDBRANCH  22  25
ENDBRANCH   9  22
BRANCH   4  28
ATOM     28  S   UNL     1      -3.824   6.833   2.993  0.00  0.00    -0.118 S 
BRANCH  28  29
ATOM     29  C   UNL     1      -4.065   7.868   4.399  0.00  0.00    +0.038 A 
ATOM     30  C   UNL     1      -2.995   8.170   5.232  0.00  0.00    +0.017 A 
ATOM     31  C   UNL     1      -3.187   8.982   6.333  0.00  0.00    +0.001 A 
ATOM     32  C   UNL     1      -4.443   9.493   6.606  0.00  0.00    +0.002 A 
ATOM     33  C   UNL     1      -5.510   9.195   5.779  0.00  0.00    +0.034 A 
ATOM     34  C   UNL     1      -5.324   8.389   4.673  0.00  0.00    +0.140 A 
BRANCH  34  35
ATOM     35  N   UNL     1      -6.465   8.075   3.784  0.00  0.00    +0.058 N 
ATOM     36  O   UNL     1      -7.568   8.532   4.025  0.00  0.00    -0.126 OA
ATOM     37  O   UNL     1      -6.301   7.360   2.812  0.00  0.00    -0.126 OA
ENDBRANCH  34  35
ENDBRANCH  28  29
ENDBRANCH   4  28
TORSDOF 6
