REMARK  Name = ZINC20872959
REMARK  14 active torsions:
REMARK  status: ('A' for Active; 'I' for Inactive)
REMARK    1  A    between atoms: C_1  and  C_2
REMARK    2  A    between atoms: C_2  and  C_3
REMARK    3  A    between atoms: C_2  and  C_4
REMARK    4  A    between atoms: C_2  and  N_5
REMARK    5  A    between atoms: C_6  and  C_8
REMARK    6  A    between atoms: C_8  and  O_9
REMARK    7  A    between atoms: O_9  and  C_10
REMARK    8  A    between atoms: C_19  and  C_20
REMARK    9  A    between atoms: C_20  and  N_21
REMARK   10  A    between atoms: N_21  and  C_22
REMARK   11  A    between atoms: C_22  and  C_23
REMARK   12  A    between atoms: C_23  and  N_24
REMARK   13  A    between atoms: N_24  and  C_25
REMARK   14  A    between atoms: C_28  and  N_32
REMARK                            x       y       z     vdW  Elec       q    Type
REMARK                         _______ _______ _______ _____ _____    ______ ____
ROOT
ATOM      1  C   UNL     1       2.124   1.648   2.364  0.00  0.00    +0.123 A 
ATOM      2  C   UNL     1       2.832   1.141   3.459  0.00  0.00    +0.046 A 
ATOM      3  C   UNL     1       3.547  -0.010   3.357  0.00  0.00    +0.012 A 
ATOM      4  C   UNL     1       3.574  -0.708   2.136  0.00  0.00    -0.017 A 
ATOM      5  C   UNL     1       4.303  -1.901   1.995  0.00  0.00    +0.008 A 
ATOM      6  C   UNL     1       4.309  -2.550   0.799  0.00  0.00    +0.001 A 
ATOM      7  C   UNL     1       3.599  -2.051  -0.292  0.00  0.00    +0.001 A 
ATOM      8  C   UNL     1       2.882  -0.898  -0.193  0.00  0.00    +0.009 A 
ATOM      9  C   UNL     1       2.854  -0.200   1.027  0.00  0.00    -0.013 A 
ATOM     10  C   UNL     1       2.125   0.993   1.166  0.00  0.00    -0.015 A 
ENDROOT
BRANCH   1  11
ATOM     11  O   UNL     1       1.423   2.804   2.496  0.00  0.00    -0.483 OA
BRANCH  11  12
ATOM     12  C   UNL     1       1.460   3.444   3.773  0.00  0.00    +0.324 C 
BRANCH  12  14
ATOM     13  N   UNL     1       0.520   5.474   4.829  0.00  0.00    -0.308 N 
ATOM     14  C   UNL     1       0.631   4.702   3.730  0.00  0.00    +0.251 C 
ATOM     15  O   UNL     1       0.064   5.019   2.706  0.00  0.00    -0.272 OA
ATOM     16  H   UNL     1       1.034   5.186   5.758  0.00  0.00    +0.149 HD
BRANCH  13  18
ATOM     17  C   UNL     1      -1.732   6.342   4.436  0.00  0.00    +0.031 C 
ATOM     18  C   UNL     1      -0.286   6.696   4.787  0.00  0.00    +0.026 C 
ATOM     19  C   UNL     1      -0.246   7.381   6.155  0.00  0.00    +0.031 C 
ATOM     20  C   UNL     1       0.279   7.643   3.726  0.00  0.00    +0.031 C 
ENDBRANCH  13  18
ENDBRANCH  12  14
ENDBRANCH  11  12
ENDBRANCH   1  11
BRANCH  10  21
ATOM     21  C   UNL     1       1.353   1.550  -0.003  0.00  0.00    -0.042 C 
BRANCH  21  22
ATOM     22  N   UNL     1      -0.012   1.005   0.008  0.00  0.00    +0.383 N 
ATOM     23  H   UNL     1       0.031  -0.092  -0.070  0.00  0.00    -0.085 HD
ATOM     24  H   UNL     1      -0.512   1.287   0.946  0.00  0.00    -0.085 HD
BRANCH  22  25
ATOM     25  C   UNL     1      -0.795   1.527  -1.120  0.00  0.00    -0.063 C 
BRANCH  25  26
ATOM     26  C   UNL     1      -2.207   0.938  -1.076  0.00  0.00    +0.082 C 
BRANCH  26  27
ATOM     27  N   UNL     1      -2.989   1.459  -2.200  0.00  0.00    -0.345 N 
ATOM     28  H   UNL     1      -2.530   2.163  -2.910  0.00  0.00    +0.146 HD
BRANCH  27  29
ATOM     29  C   UNL     1      -4.317   1.061  -2.371  0.00  0.00    +0.046 A 
ATOM     30  C   UNL     1      -4.899   0.172  -1.476  0.00  0.00    +0.026 A 
ATOM     31  C   UNL     1      -6.212  -0.219  -1.647  0.00  0.00    +0.034 A 
ATOM     32  C   UNL     1      -6.949   0.273  -2.709  0.00  0.00    +0.128 A 
ATOM     33  C   UNL     1      -6.374   1.158  -3.602  0.00  0.00    +0.054 A 
ATOM     34  C   UNL     1      -5.062   1.558  -3.433  0.00  0.00    +0.064 A 
ATOM     35 CL   UNL     1      -4.344   2.675  -4.551  0.00  0.00    -0.082 Cl
BRANCH  32  36
ATOM     36  N   UNL     1      -8.356  -0.148  -2.889  0.00  0.00    +0.056 N 
ATOM     37  O   UNL     1      -8.864  -0.928  -2.102  0.00  0.00    -0.126 OA
ATOM     38  O   UNL     1      -9.007   0.284  -3.823  0.00  0.00    -0.126 OA
ENDBRANCH  32  36
ENDBRANCH  27  29
ENDBRANCH  26  27
ENDBRANCH  25  26
ENDBRANCH  22  25
ENDBRANCH  21  22
ENDBRANCH  10  21
TORSDOF 11
