REMARK  Name = ZINC17920856
REMARK  7 active torsions:
REMARK  status: ('A' for Active; 'I' for Inactive)
REMARK    1  A    between atoms: C_1  and  C_2
REMARK    2  A    between atoms: C_2  and  O_3
REMARK    3  A    between atoms: O_3  and  C_4
REMARK    4  A    between atoms: C_6  and  C_11
REMARK    5  A    between atoms: C_9  and  O_10
REMARK    6  A    between atoms: N_19  and  C_22
REMARK    7  A    between atoms: N_30  and  C_31
REMARK                            x       y       z     vdW  Elec       q    Type
REMARK                         _______ _______ _______ _____ _____    ______ ____
ROOT
ATOM      1  C   UNL     1       0.654  -4.954  -0.018  0.00  0.00    +0.157 C 
ATOM      2  C   UNL     1       0.911  -5.522   1.372  0.00  0.00    +0.145 C 
ATOM      3  C   UNL     1       1.533  -6.896   0.914  0.00  0.00    +0.249 C 
ATOM      4  C   UNL     1       2.211  -7.324   2.122  0.00  0.00    +0.259 C 
ATOM      5  O   UNL     1       2.365  -8.460   2.515  0.00  0.00    -0.272 OA
ATOM      6  N   UNL     1       2.640  -6.170   2.725  0.00  0.00    -0.208 N 
ATOM      7  C   UNL     1       2.065  -5.036   2.192  0.00  0.00    +0.235 C 
ATOM      8  O   UNL     1       2.417  -3.886   2.346  0.00  0.00    -0.274 OA
ATOM      9  O   UNL     1       0.635  -7.341  -0.015  0.00  0.00    -0.257 OA
ATOM     10  N   UNL     1       0.398  -6.165  -0.852  0.00  0.00    -0.244 N 
ENDROOT
BRANCH   6  11
ATOM     11  C   UNL     1       3.558  -6.143   3.784  0.00  0.00    +0.044 A 
ATOM     12  C   UNL     1       3.937  -4.931   4.345  0.00  0.00    +0.025 A 
ATOM     13  C   UNL     1       4.843  -4.906   5.388  0.00  0.00    +0.022 A 
ATOM     14  C   UNL     1       5.371  -6.089   5.874  0.00  0.00    +0.041 A 
ATOM     15  C   UNL     1       4.995  -7.298   5.316  0.00  0.00    +0.022 A 
ATOM     16  C   UNL     1       4.086  -7.328   4.277  0.00  0.00    +0.025 A 
ATOM     17 CL   UNL     1       6.509  -6.055   7.185  0.00  0.00    -0.084 Cl
ENDBRANCH   6  11
BRANCH   1  20
ATOM     18  C   UNL     1      -1.498  -1.849   0.006  0.00  0.00    +0.162 A 
ATOM     19  C   UNL     1      -0.389  -2.680  -0.003  0.00  0.00    +0.055 A 
ATOM     20  C   UNL     1      -0.553  -4.052  -0.008  0.00  0.00    -0.018 A 
ATOM     21  C   UNL     1      -1.823  -4.600  -0.005  0.00  0.00    +0.009 A 
ATOM     22  C   UNL     1      -2.934  -3.777   0.004  0.00  0.00    +0.049 A 
ATOM     23  C   UNL     1      -2.776  -2.400   0.016  0.00  0.00    +0.158 A 
BRANCH  23  24
ATOM     24  O   UNL     1      -3.868  -1.589   0.030  0.00  0.00    -0.503 OA
ATOM     25  H   UNL     1      -4.192  -1.350  -0.849  0.00  0.00    +0.292 HD
ENDBRANCH  23  24
BRANCH  18  26
ATOM     26  O   UNL     1      -1.339  -0.499   0.012  0.00  0.00    -0.489 OA
BRANCH  26  28
ATOM     27  C   UNL     1      -0.019   1.526   0.010  0.00  0.00    +0.048 C 
ATOM     28  C   UNL     1       0.002  -0.004   0.002  0.00  0.00    +0.226 C 
ENDBRANCH  26  28
ENDBRANCH  18  26
ENDBRANCH   1  20
BRANCH  10  29
ATOM     29  C   UNL     1      -0.006  -6.170  -2.189  0.00  0.00    +0.065 A 
ATOM     30  C   UNL     1      -0.200  -4.971  -2.862  0.00  0.00    +0.028 A 
ATOM     31  C   UNL     1      -0.599  -4.980  -4.184  0.00  0.00    +0.002 A 
ATOM     32  C   UNL     1      -0.806  -6.181  -4.837  0.00  0.00    +0.000 A 
ATOM     33  C   UNL     1      -0.614  -7.377  -4.170  0.00  0.00    +0.002 A 
ATOM     34  C   UNL     1      -0.209  -7.375  -2.849  0.00  0.00    +0.028 A 
ENDBRANCH  10  29
TORSDOF 6
