REMARK  Name = ZINC47212905
REMARK  3 active torsions:
REMARK  status: ('A' for Active; 'I' for Inactive)
REMARK    1  A    between atoms: C_10  and  C_12
REMARK    2  A    between atoms: C_18  and  C_20
REMARK    3  A    between atoms: N_22  and  C_23
REMARK                            x       y       z     vdW  Elec       q    Type
REMARK                         _______ _______ _______ _____ _____    ______ ____
ROOT
ATOM      1  C   UNL     1       5.229   0.505  -0.444  0.00  0.00    +0.087 C 
ATOM      2  C   UNL     1       4.558   1.095  -1.686  0.00  0.00    +0.013 C 
ATOM      3  C   UNL     1       5.274   0.593  -2.941  0.00  0.00    +0.001 C 
ATOM      4  C   UNL     1       6.741   1.027  -2.899  0.00  0.00    +0.001 C 
ATOM      5  C   UNL     1       7.412   0.436  -1.657  0.00  0.00    +0.013 C 
ATOM      6  C   UNL     1       6.696   0.939  -0.402  0.00  0.00    +0.087 C 
ENDROOT
BRANCH   1  16
ATOM      7  C   UNL     1       2.931  -5.643  -0.625  0.00  0.00    +0.000 A 
ATOM      8  C   UNL     1       4.253  -5.315  -0.865  0.00  0.00    +0.002 A 
ATOM      9  C   UNL     1       4.668  -4.003  -0.784  0.00  0.00    +0.024 A 
ATOM     10  C   UNL     1       3.757  -2.995  -0.459  0.00  0.00    +0.039 A 
ATOM     11  C   UNL     1       2.435  -3.335  -0.221  0.00  0.00    -0.024 A 
ATOM     12  C   UNL     1       2.024  -4.652  -0.303  0.00  0.00    +0.005 A 
ATOM     13  C   UNL     1       1.666  -2.074   0.106  0.00  0.00    +0.056 C 
ATOM     14  C   UNL     1       2.712  -0.951   0.027  0.00  0.00    +0.118 C 
ATOM     15  N   UNL     1       3.967  -1.619  -0.327  0.00  0.00    -0.271 N 
ATOM     16  C   UNL     1       5.152  -0.999  -0.498  0.00  0.00    +0.224 C 
ATOM     17  O   UNL     1       6.155  -1.651  -0.697  0.00  0.00    -0.275 OA
ENDBRANCH   1  16
BRANCH   6  18
ATOM     18  C   UNL     1       7.357   0.358   0.821  0.00  0.00    +0.217 C 
ATOM     19  O   UNL     1       6.718  -0.336   1.584  0.00  0.00    -0.275 OA
ATOM     20  N   UNL     1       8.658   0.608   1.066  0.00  0.00    -0.304 N 
ATOM     21  H   UNL     1       9.169   1.163   0.456  0.00  0.00    +0.149 HD
BRANCH  20  22
ATOM     22  C   UNL     1       9.301   0.043   2.255  0.00  0.00    +0.159 C 
ATOM     23  C   UNL     1      10.614   0.780   2.530  0.00  0.00    +0.032 C 
ATOM     24  C   UNL     1      11.284   1.187   1.230  0.00  0.00    +0.004 C 
ATOM     25  C   UNL     1      11.774   0.014   0.400  0.00  0.00    +0.019 C 
ATOM     26  C   UNL     1      10.597  -0.811  -0.125  0.00  0.00    +0.104 C 
ATOM     27  N   UNL     1      10.224  -1.803   0.897  0.00  0.00    -0.314 N 
ATOM     28  C   UNL     1       9.608  -1.421   2.020  0.00  0.00    +0.233 C 
ATOM     29  O   UNL     1       9.299  -2.245   2.855  0.00  0.00    -0.274 OA
ATOM     30  H   UNL     1      10.424  -2.741   0.753  0.00  0.00    +0.149 HD
ENDBRANCH  20  22
ENDBRANCH   6  18
TORSDOF 3
