REMARK  Name = ZINC14139262
REMARK  17 active torsions:
REMARK  status: ('A' for Active; 'I' for Inactive)
REMARK    1  A    between atoms: C_1  and  C_2
REMARK    2  A    between atoms: C_2  and  C_3
REMARK    3  A    between atoms: C_3  and  C_5
REMARK    4  A    between atoms: C_3  and  N_72
REMARK    5  A    between atoms: C_8  and  S_17
REMARK    6  A    between atoms: N_9  and  C_10
REMARK    7  A    between atoms: C_10  and  C_11
REMARK    8  A    between atoms: S_17  and  C_18
REMARK    9  A    between atoms: C_18  and  C_19
REMARK   10  A    between atoms: N_21  and  C_22
REMARK   11  A    between atoms: C_25  and  C_28
REMARK   12  A    between atoms: N_30  and  C_31
REMARK   13  A    between atoms: N_30  and  C_33
REMARK   14  A    between atoms: C_31  and  C_32
REMARK   15  A    between atoms: C_33  and  C_34
REMARK   16  A    between atoms: C_35  and  N_72
REMARK   17  A    between atoms: C_36  and  N_72
REMARK                            x       y       z     vdW  Elec       q    Type
REMARK                         _______ _______ _______ _____ _____    ______ ____
ROOT
ATOM      1  C   UNL     1      -2.065   2.270  -2.996  0.00  0.00    +0.121 A 
ATOM      2  N   UNL     1      -2.513   1.288  -2.264  0.00  0.00    -0.135 NA
ATOM      3  N   UNL     1      -3.732   1.512  -1.924  0.00  0.00    -0.123 NA
ATOM      4  C   UNL     1      -4.131   2.658  -2.425  0.00  0.00    +0.192 A 
ATOM      5  N   UNL     1      -3.078   3.180  -3.120  0.00  0.00    -0.303 N 
ENDROOT
BRANCH   1   6
ATOM      6  C   UNL     1      -0.685   2.384  -3.589  0.00  0.00    +0.000 C 
BRANCH   6   9
ATOM      7  C   UNL     1       0.250   2.926  -1.422  0.00  0.00    -0.096 C 
ATOM      8  C   UNL     1       0.155   0.621  -2.157  0.00  0.00    -0.096 C 
ATOM      9  N   UNL     1       0.341   2.022  -2.588  0.00  0.00    +0.383 N 
ATOM     10  H   UNL     1       1.271   2.120  -3.013  0.00  0.00    -0.082 HD
ENDBRANCH   6   9
BRANCH   6  12
ATOM     11  C   UNL     1       0.823   1.585  -5.414  0.00  0.00    +0.002 C 
ATOM     12  C   UNL     1      -0.565   1.439  -4.787  0.00  0.00    -0.011 C 
ENDBRANCH   6  12
ENDBRANCH   1   6
BRANCH   5  13
ATOM     13  C   UNL     1      -3.042   4.449  -3.850  0.00  0.00    +0.160 C 
BRANCH  13  14
ATOM     14  C   UNL     1      -3.481   4.223  -5.274  0.00  0.00    -0.028 A 
ATOM     15  C   UNL     1      -2.546   3.911  -6.243  0.00  0.00    +0.005 A 
ATOM     16  C   UNL     1      -2.949   3.699  -7.548  0.00  0.00    +0.000 A 
ATOM     17  C   UNL     1      -4.285   3.808  -7.886  0.00  0.00    +0.000 A 
ATOM     18  C   UNL     1      -5.218   4.125  -6.918  0.00  0.00    +0.000 A 
ATOM     19  C   UNL     1      -4.817   4.332  -5.612  0.00  0.00    +0.005 A 
ENDBRANCH  13  14
ENDBRANCH   5  13
BRANCH   4  20
ATOM     20  S   UNL     1      -5.723   3.388  -2.231  0.00  0.00    -0.077 S 
BRANCH  20  21
ATOM     21  C   UNL     1      -6.524   2.128  -1.206  0.00  0.00    +0.173 C 
BRANCH  21  22
ATOM     22  C   UNL     1      -7.939   2.550  -0.905  0.00  0.00    +0.227 C 
ATOM     23  O   UNL     1      -8.364   3.600  -1.340  0.00  0.00    -0.275 OA
ATOM     24  N   UNL     1      -8.731   1.762  -0.152  0.00  0.00    -0.285 N 
ATOM     25  H   UNL     1      -8.419   0.888   0.130  0.00  0.00    +0.155 HD
BRANCH  24  26
ATOM     26  C   UNL     1     -10.000   2.203   0.222  0.00  0.00    +0.033 A 
ATOM     27  C   UNL     1     -10.246   3.565   0.368  0.00  0.00    +0.024 A 
ATOM     28  C   UNL     1     -11.499   4.004   0.733  0.00  0.00    +0.015 A 
ATOM     29  C   UNL     1     -12.521   3.080   0.967  0.00  0.00    +0.037 A 
ATOM     30  C   UNL     1     -12.269   1.713   0.824  0.00  0.00    +0.015 A 
ATOM     31  C   UNL     1     -11.015   1.281   0.454  0.00  0.00    +0.024 A 
BRANCH  29  32
ATOM     32  C   UNL     1     -13.864   3.547   1.363  0.00  0.00    +0.247 C 
ATOM     33  O   UNL     1     -13.981   4.511   2.093  0.00  0.00    -0.270 OA
ATOM     34  N   UNL     1     -14.960   2.904   0.914  0.00  0.00    -0.298 N 
BRANCH  34  35
ATOM     35  C   UNL     1     -14.820   1.657   0.158  0.00  0.00    +0.104 C 
ATOM     36  C   UNL     1     -15.033   0.466   1.095  0.00  0.00    +0.024 C 
ENDBRANCH  34  35
BRANCH  34  37
ATOM     37  C   UNL     1     -16.292   3.452   1.183  0.00  0.00    +0.104 C 
ATOM     38  C   UNL     1     -16.694   4.395   0.047  0.00  0.00    +0.024 C 
ENDBRANCH  34  37
ENDBRANCH  29  32
ENDBRANCH  24  26
ENDBRANCH  21  22
ENDBRANCH  20  21
ENDBRANCH   4  20
TORSDOF 12
