REMARK  Name = ZINC63775125
REMARK  6 active torsions:
REMARK  status: ('A' for Active; 'I' for Inactive)
REMARK    1  A    between atoms: C_1  and  O_2
REMARK    2  A    between atoms: O_2  and  C_3
REMARK    3  A    between atoms: C_8  and  O_9
REMARK    4  A    between atoms: O_9  and  C_10
REMARK    5  A    between atoms: C_12  and  C_16
REMARK    6  A    between atoms: C_20  and  C_22
REMARK                            x       y       z     vdW  Elec       q    Type
REMARK                         _______ _______ _______ _____ _____    ______ ____
ROOT
ATOM      1  C   UNL     1       0.607  -0.608  -1.057  0.00  0.00    +0.162 A 
ATOM      2  C   UNL     1       1.170   0.161  -2.056  0.00  0.00    +0.064 A 
ATOM      3  C   UNL     1       1.789  -0.464  -3.139  0.00  0.00    +0.061 A 
ATOM      4  C   UNL     1       1.839  -1.869  -3.204  0.00  0.00    +0.045 A 
ATOM      5  C   UNL     1       1.271  -2.629  -2.200  0.00  0.00    +0.073 A 
ATOM      6  C   UNL     1       0.659  -2.001  -1.125  0.00  0.00    +0.163 A 
ATOM      7  N   UNL     1       2.479  -2.451  -4.295  0.00  0.00    -0.322 N 
ATOM      8  C   UNL     1       3.579  -1.720  -4.935  0.00  0.00    +0.190 C 
ATOM      9  N   UNL     1       3.220  -0.311  -5.103  0.00  0.00    -0.289 N 
ATOM     10  C   UNL     1       2.399   0.310  -4.233  0.00  0.00    +0.248 C 
ATOM     11  O   UNL     1       2.164   1.498  -4.350  0.00  0.00    -0.270 OA
ATOM     12  H   UNL     1       2.203  -3.321  -4.626  0.00  0.00    +0.148 HD
ATOM     13  H   UNL     1       3.580   0.184  -5.855  0.00  0.00    +0.151 HD
ENDROOT
BRANCH   8  14
ATOM     14  C   UNL     1       4.812  -1.821  -4.075  0.00  0.00    -0.009 A 
ATOM     15  C   UNL     1       5.016  -2.941  -3.289  0.00  0.00    +0.007 A 
ATOM     16  C   UNL     1       6.145  -3.041  -2.497  0.00  0.00    +0.001 A 
ATOM     17  C   UNL     1       7.076  -2.022  -2.487  0.00  0.00    +0.008 A 
ATOM     18  C   UNL     1       6.877  -0.892  -3.277  0.00  0.00    -0.018 A 
ATOM     19  C   UNL     1       5.739  -0.799  -4.077  0.00  0.00    +0.015 A 
BRANCH  18  20
ATOM     20  C   UNL     1       7.874   0.207  -3.271  0.00  0.00    -0.018 A 
ATOM     21  C   UNL     1       7.672   1.339  -4.056  0.00  0.00    +0.008 A 
ATOM     22  C   UNL     1       8.603   2.359  -4.046  0.00  0.00    +0.001 A 
ATOM     23  C   UNL     1       9.735   2.257  -3.257  0.00  0.00    +0.000 A 
ATOM     24  C   UNL     1       9.941   1.134  -2.476  0.00  0.00    +0.001 A 
ATOM     25  C   UNL     1       9.014   0.112  -2.474  0.00  0.00    +0.008 A 
ENDBRANCH  18  20
ENDBRANCH   8  14
BRANCH   1  27
ATOM     26  C   UNL     1      -0.017   1.425   0.010  0.00  0.00    +0.277 C 
ATOM     27  O   UNL     1       0.002  -0.004   0.002  0.00  0.00    -0.491 OA
ENDBRANCH   1  27
BRANCH   6  28
ATOM     28  O   UNL     1       0.105  -2.746  -0.134  0.00  0.00    -0.491 OA
ATOM     29  C   UNL     1       0.193  -4.167  -0.264  0.00  0.00    +0.277 C 
ENDBRANCH   6  28
TORSDOF 4
