REMARK  Name = ZINC20864551
REMARK  4 active torsions:
REMARK  status: ('A' for Active; 'I' for Inactive)
REMARK    1  A    between atoms: C_1  and  C_2
REMARK    2  A    between atoms: C_2  and  C_3
REMARK    3  A    between atoms: C_17  and  N_22
REMARK    4  A    between atoms: C_19  and  O_21
REMARK                            x       y       z     vdW  Elec       q    Type
REMARK                         _______ _______ _______ _____ _____    ______ ____
ROOT
ATOM      1  C   UNL     1       1.586  -2.929   4.179  0.00  0.00    +0.285 C 
ATOM      2  O   UNL     1       0.417  -3.195   4.363  0.00  0.00    -0.269 OA
ATOM      3  N   UNL     1       1.928  -1.963   3.303  0.00  0.00    -0.297 N 
ATOM      4  C   UNL     1       0.896  -1.138   2.660  0.00  0.00    +0.109 C 
ATOM      5  C   UNL     1       1.086  -1.210   1.140  0.00  0.00    +0.033 C 
ATOM      6  C   UNL     1       2.521  -0.826   0.791  0.00  0.00    +0.027 C 
ATOM      7  C   UNL     1       3.510  -1.781   1.454  0.00  0.00    +0.033 C 
ATOM      8  C   UNL     1       3.339  -1.715   2.976  0.00  0.00    +0.109 C 
ATOM      9  C   UNL     1       2.714  -0.828  -0.707  0.00  0.00    -0.033 A 
ATOM     10  C   UNL     1       2.901  -1.878  -1.590  0.00  0.00    +0.004 A 
ATOM     11  C   UNL     1       3.060  -1.632  -2.940  0.00  0.00    +0.000 A 
ATOM     12  C   UNL     1       3.034  -0.333  -3.412  0.00  0.00    +0.000 A 
ATOM     13  C   UNL     1       2.849   0.716  -2.533  0.00  0.00    +0.006 A 
ATOM     14  C   UNL     1       2.688   0.472  -1.180  0.00  0.00    -0.018 A 
ATOM     15  C   UNL     1       2.471   1.431  -0.029  0.00  0.00    +0.148 C 
ATOM     16  C   UNL     1       2.803   0.619   1.242  0.00  0.00    +0.152 C 
ENDROOT
BRANCH  15  17
ATOM     17  N   UNL     1       1.077   1.880   0.004  0.00  0.00    -0.328 N 
ATOM     18  C   UNL     1      -0.004   1.211  -0.503  0.00  0.00    +0.105 A 
ATOM     19  C   UNL     1      -1.085   1.976  -0.259  0.00  0.00    +0.101 A 
ATOM     20  N   UNL     1      -0.676   3.079   0.384  0.00  0.00    -0.352 N 
ATOM     21  C   UNL     1       0.619   3.031   0.541  0.00  0.00    +0.174 A 
ATOM     22  H   UNL     1      -1.408   3.843   0.687  0.00  0.00    +0.166 HD
ENDBRANCH  15  17
BRANCH   1  24
ATOM     23  C   UNL     1       2.046  -4.338   6.167  0.00  0.00    +0.095 C 
ATOM     24  C   UNL     1       2.657  -3.679   4.929  0.00  0.00    +0.320 C 
ATOM     25  F   UNL     1       3.205  -4.663   4.099  0.00  0.00    -0.196 F 
ATOM     26  F   UNL     1       3.661  -2.788   5.322  0.00  0.00    -0.196 F 
ENDBRANCH   1  24
BRANCH  16  27
ATOM     27  O   UNL     1       4.176   0.780   1.605  0.00  0.00    -0.389 OA
ATOM     28  H   UNL     1       4.542   1.758   1.951  0.00  0.00    +0.210 HD
ENDBRANCH  16  27
TORSDOF 3
