REMARK  Name = ZINC32986824
REMARK  3 active torsions:
REMARK  status: ('A' for Active; 'I' for Inactive)
REMARK    1  A    between atoms: C_5  and  C_7
REMARK    2  A    between atoms: N_19  and  C_20
REMARK    3  A    between atoms: C_20  and  C_21
REMARK                            x       y       z     vdW  Elec       q    Type
REMARK                         _______ _______ _______ _____ _____    ______ ____
ROOT
ATOM      1  C   UNL     1       1.210   3.500   0.018  0.00  0.00    +0.196 C 
ATOM      2  N   UNL     1      -0.039   3.966  -0.580  0.00  0.00    -0.322 N 
ATOM      3  C   UNL     1      -0.295   3.925  -1.948  0.00  0.00    +0.055 A 
ATOM      4  C   UNL     1      -1.619   3.945  -2.385  0.00  0.00    +0.025 A 
ATOM      5  C   UNL     1      -1.905   3.921  -3.733  0.00  0.00    +0.002 A 
ATOM      6  C   UNL     1      -0.882   3.879  -4.663  0.00  0.00    +0.002 A 
ATOM      7  C   UNL     1       0.434   3.853  -4.237  0.00  0.00    +0.030 A 
ATOM      8  C   UNL     1       0.724   3.867  -2.889  0.00  0.00    +0.126 A 
ATOM      9  S   UNL     1       2.405   3.792  -2.349  0.00  0.00    +0.065 S 
ATOM     10  O   UNL     1       2.829   2.443  -2.495  0.00  0.00    -0.153 OA
ATOM     11  O   UNL     1       3.086   4.881  -2.958  0.00  0.00    -0.153 OA
ATOM     12  N   UNL     1       2.343   4.109  -0.709  0.00  0.00    -0.148 NA
ATOM     13  H   UNL     1      -0.835   4.377   0.059  0.00  0.00    +0.148 HD
ENDROOT
BRANCH   1  18
ATOM     14  C   UNL     1       2.586   0.007  -0.389  0.00  0.00    +0.000 A 
ATOM     15  C   UNL     1       1.439  -0.756  -0.277  0.00  0.00    +0.001 A 
ATOM     16  C   UNL     1       0.217  -0.143  -0.071  0.00  0.00    +0.020 A 
ATOM     17  C   UNL     1       0.142   1.235   0.024  0.00  0.00    +0.047 A 
ATOM     18  C   UNL     1       1.290   1.999  -0.087  0.00  0.00    +0.007 A 
ATOM     19  C   UNL     1       2.512   1.384  -0.293  0.00  0.00    +0.008 A 
ATOM     20 CL   UNL     1      -1.392   2.006   0.282  0.00  0.00    -0.083 Cl
ENDBRANCH   1  18
BRANCH  12  21
ATOM     21  C   UNL     1       3.343   4.939  -0.034  0.00  0.00    +0.147 C 
BRANCH  21  22
ATOM     22  C   UNL     1       4.412   4.056   0.557  0.00  0.00    -0.029 A 
ATOM     23  C   UNL     1       4.236   3.505   1.813  0.00  0.00    +0.005 A 
ATOM     24  C   UNL     1       5.213   2.691   2.355  0.00  0.00    +0.003 A 
ATOM     25  C   UNL     1       6.373   2.437   1.646  0.00  0.00    +0.038 A 
ATOM     26  C   UNL     1       6.552   2.993   0.391  0.00  0.00    +0.124 A 
ATOM     27  C   UNL     1       5.570   3.804  -0.153  0.00  0.00    +0.043 A 
ATOM     28  F   UNL     1       7.685   2.746  -0.302  0.00  0.00    -0.205 F 
ENDBRANCH  21  22
ENDBRANCH  12  21
TORSDOF 3
