REMARK  Name = ZINC41514813
REMARK  8 active torsions:
REMARK  status: ('A' for Active; 'I' for Inactive)
REMARK    1  A    between atoms: C_1  and  N_2
REMARK    2  A    between atoms: N_2  and  C_3
REMARK    3  A    between atoms: N_2  and  C_10
REMARK    4  A    between atoms: C_3  and  C_4
REMARK    5  A    between atoms: C_10  and  C_11
REMARK    6  A    between atoms: C_12  and  O_33
REMARK    7  A    between atoms: C_18  and  C_29
REMARK    8  A    between atoms: C_19  and  C_22
REMARK                            x       y       z     vdW  Elec       q    Type
REMARK                         _______ _______ _______ _____ _____    ______ ____
ROOT
ATOM      1  C   UNL     1      -0.520   0.290   2.412  0.00  0.00    +0.020 A 
ATOM      2  C   UNL     1      -0.313   1.427   3.175  0.00  0.00    +0.122 A 
ATOM      3  C   UNL     1      -0.833   1.521   4.464  0.00  0.00    +0.046 A 
ATOM      4  C   UNL     1      -1.559   0.491   4.991  0.00  0.00    +0.019 A 
ATOM      5  C   UNL     1      -1.778  -0.659   4.234  0.00  0.00    +0.065 A 
ATOM      6  C   UNL     1      -1.257  -0.766   2.931  0.00  0.00    +0.144 A 
ATOM      7  O   UNL     1      -1.462  -1.883   2.206  0.00  0.00    -0.450 OA
ATOM      8  C   UNL     1      -2.392  -2.779   2.543  0.00  0.00    +0.219 A 
ATOM      9  C   UNL     1      -2.977  -2.805   3.769  0.00  0.00    +0.076 A 
ATOM     10  C   UNL     1      -2.563  -1.791   4.761  0.00  0.00    +0.201 A 
ATOM     11  O   UNL     1      -2.862  -1.877   5.939  0.00  0.00    -0.286 OA
ENDROOT
BRANCH   9  12
ATOM     12  C   UNL     1      -3.995  -3.830   4.105  0.00  0.00    -0.011 A 
ATOM     13  C   UNL     1      -3.607  -5.143   4.365  0.00  0.00    +0.010 A 
ATOM     14  C   UNL     1      -4.558  -6.093   4.678  0.00  0.00    +0.016 A 
ATOM     15  C   UNL     1      -5.896  -5.743   4.734  0.00  0.00    +0.018 A 
ATOM     16  C   UNL     1      -6.287  -4.441   4.476  0.00  0.00    +0.016 A 
ATOM     17  C   UNL     1      -5.344  -3.482   4.168  0.00  0.00    +0.010 A 
ATOM     18 BR   UNL     1      -7.194  -7.050   5.163  0.00  0.00    -0.050 Br
ENDBRANCH   9  12
BRANCH   8  19
ATOM     19  C   UNL     1      -2.810  -3.804   1.521  0.00  0.00    +0.451 C 
ATOM     20  F   UNL     1      -3.907  -4.524   2.005  0.00  0.00    -0.163 F 
ATOM     21  F   UNL     1      -3.164  -3.159   0.331  0.00  0.00    -0.163 F 
ATOM     22  F   UNL     1      -1.747  -4.681   1.277  0.00  0.00    -0.163 F 
ENDBRANCH   8  19
BRANCH   2  23
ATOM     23  O   UNL     1       0.404   2.459   2.662  0.00  0.00    -0.506 OA
ATOM     24  H   UNL     1      -0.130   3.111   2.188  0.00  0.00    +0.292 HD
ENDBRANCH   2  23
BRANCH   1  25
ATOM     25  C   UNL     1       0.048   0.201   1.019  0.00  0.00    -0.035 C 
BRANCH  25  27
ATOM     26  C   UNL     1      -1.128   2.166   0.305  0.00  0.00    -0.095 C 
ATOM     27  N   UNL     1      -0.927   0.732   0.057  0.00  0.00    +0.383 N 
ATOM     28  H   UNL     1      -1.805   0.246   0.166  0.00  0.00    -0.081 HD
BRANCH  27  29
ATOM     29  C   UNL     1      -0.424   0.536  -1.309  0.00  0.00    -0.043 C 
BRANCH  29  30
ATOM     30  C   UNL     1      -1.476   0.968  -2.298  0.00  0.00    -0.064 A 
ATOM     31  C   UNL     1      -2.411   0.058  -2.754  0.00  0.00    +0.002 A 
ATOM     32  C   UNL     1      -3.376   0.454  -3.661  0.00  0.00    +0.000 A 
ATOM     33  C   UNL     1      -3.406   1.760  -4.112  0.00  0.00    +0.000 A 
ATOM     34  C   UNL     1      -2.472   2.671  -3.655  0.00  0.00    +0.000 A 
ATOM     35  C   UNL     1      -1.509   2.276  -2.745  0.00  0.00    +0.002 A 
ENDBRANCH  29  30
ENDBRANCH  27  29
ENDBRANCH  25  27
ENDBRANCH   1  25
TORSDOF 7
