REMARK  Name = ZINC39770756
REMARK  15 active torsions:
REMARK  status: ('A' for Active; 'I' for Inactive)
REMARK    1  A    between atoms: C_1  and  C_2
REMARK    2  A    between atoms: C_2  and  C_3
REMARK    3  A    between atoms: C_3  and  C_4
REMARK    4  A    between atoms: C_4  and  C_5
REMARK    5  A    between atoms: C_5  and  N_6
REMARK    6  A    between atoms: C_10  and  C_11
REMARK    7  A    between atoms: C_12  and  C_34
REMARK    8  A    between atoms: C_13  and  C_32
REMARK    9  A    between atoms: N_16  and  C_28
REMARK   10  A    between atoms: C_17  and  N_18
REMARK   11  A    between atoms: C_20  and  C_27
REMARK   12  A    between atoms: C_23  and  C_26
REMARK   13  A    between atoms: C_28  and  C_29
REMARK   14  A    between atoms: C_29  and  C_30
REMARK   15  A    between atoms: C_30  and  C_31
REMARK                            x       y       z     vdW  Elec       q    Type
REMARK                         _______ _______ _______ _____ _____    ______ ____
ROOT
ATOM      1  C   UNL     1      -2.920  -6.541  -3.536  0.00  0.00    +0.019 A 
ATOM      2  C   UNL     1      -2.953  -5.139  -3.611  0.00  0.00    -0.017 A 
ATOM      3  C   UNL     1      -2.971  -4.532  -4.864  0.00  0.00    +0.120 A 
ATOM      4  C   UNL     1      -2.956  -5.340  -6.029  0.00  0.00    +0.270 A 
ATOM      5  O   UNL     1      -2.972  -4.815  -7.129  0.00  0.00    -0.266 OA
ATOM      6  N   UNL     1      -2.925  -6.681  -5.930  0.00  0.00    -0.295 N 
ATOM      7  C   UNL     1      -2.901  -7.296  -4.720  0.00  0.00    +0.112 A 
ATOM      8  C   UNL     1      -2.969  -4.304  -2.356  0.00  0.00    +0.046 C 
ENDROOT
BRANCH   1  13
ATOM      9  N   UNL     1       0.319  -6.410  -0.681  0.00  0.00    -0.255 N 
ATOM     10  C   UNL     1      -0.580  -6.409  -1.651  0.00  0.00    +0.258 C 
ATOM     11  O   UNL     1      -0.354  -5.862  -2.715  0.00  0.00    -0.269 OA
ATOM     12  C   UNL     1      -1.824  -7.069  -1.413  0.00  0.00    +0.077 C 
ATOM     13  C   UNL     1      -2.900  -7.210  -2.233  0.00  0.00    +0.032 C 
ATOM     14  S   UNL     1      -1.582  -7.659   0.257  0.00  0.00    -0.061 S 
ATOM     15  C   UNL     1       0.070  -7.022   0.497  0.00  0.00    +0.121 C 
ATOM     16  S   UNL     1       1.080  -7.152   1.873  0.00  0.00    -0.027 S 
BRANCH   9  17
ATOM     17  C   UNL     1       1.606  -5.743  -0.890  0.00  0.00    +0.115 C 
BRANCH  17  18
ATOM     18  C   UNL     1       2.606  -6.738  -1.483  0.00  0.00    +0.019 C 
BRANCH  18  19
ATOM     19  C   UNL     1       3.950  -6.041  -1.701  0.00  0.00    +0.001 C 
BRANCH  19  21
ATOM     20  C   UNL     1       6.295  -6.339  -2.512  0.00  0.00    +0.004 C 
ATOM     21  C   UNL     1       4.950  -7.036  -2.294  0.00  0.00    -0.003 C 
ENDBRANCH  19  21
ENDBRANCH  18  19
ENDBRANCH  17  18
ENDBRANCH   9  17
ENDBRANCH   1  13
BRANCH   7  22
ATOM     22  N   UNL     1      -2.863  -8.659  -4.654  0.00  0.00    -0.311 N 
ATOM     23  C   UNL     1      -4.103  -9.450  -4.631  0.00  0.00    +0.137 C 
ATOM     24  C   UNL     1      -4.027 -10.435  -3.458  0.00  0.00    +0.133 C 
ATOM     25  O   UNL     1      -2.805 -11.171  -3.541  0.00  0.00    -0.371 OA
ATOM     26  C   UNL     1      -1.628 -10.367  -3.432  0.00  0.00    +0.133 C 
ATOM     27  C   UNL     1      -1.581  -9.380  -4.609  0.00  0.00    +0.137 C 
ATOM     28  C   UNL     1      -0.390 -11.265  -3.470  0.00  0.00    +0.039 C 
ATOM     29  C   UNL     1      -5.212 -11.400  -3.524  0.00  0.00    +0.039 C 
ENDBRANCH   7  22
BRANCH   3  30
ATOM     30  C   UNL     1      -3.006  -3.105  -4.975  0.00  0.00    +0.105 C 
ATOM     31  N   UNL     1      -3.033  -1.973  -5.063  0.00  0.00    -0.191 NA
ENDBRANCH   3  30
BRANCH   6  32
ATOM     32  C   UNL     1      -2.910  -7.493  -7.150  0.00  0.00    +0.126 C 
BRANCH  32  33
ATOM     33  C   UNL     1      -1.474  -7.621  -7.660  0.00  0.00    +0.021 C 
BRANCH  33  34
ATOM     34  C   UNL     1      -1.458  -8.468  -8.934  0.00  0.00    -0.002 C 
ATOM     35  C   UNL     1      -0.022  -8.597  -9.444  0.00  0.00    +0.004 C 
ENDBRANCH  33  34
ENDBRANCH  32  33
ENDBRANCH   6  32
TORSDOF 10
