REMARK  Name = ZINC43759862
REMARK  6 active torsions:
REMARK  status: ('A' for Active; 'I' for Inactive)
REMARK    1  A    between atoms: C_1  and  C_2
REMARK    2  A    between atoms: C_5  and  O_31
REMARK    3  A    between atoms: C_19  and  C_30
REMARK    4  A    between atoms: C_24  and  C_25
REMARK    5  A    between atoms: C_24  and  O_29
REMARK    6  A    between atoms: C_25  and  C_27
REMARK                            x       y       z     vdW  Elec       q    Type
REMARK                         _______ _______ _______ _____ _____    ______ ____
ROOT
ATOM      1  C   UNL     1      -0.061   1.573  -0.145  0.00  0.00    +0.012 C 
ATOM      2  C   UNL     1      -0.024   0.036  -0.139  0.00  0.00    -0.019 C 
ATOM      3  C   UNL     1       0.662  -0.449  -1.409  0.00  0.00    +0.010 C 
ATOM      4  C   UNL     1       2.113   0.030  -1.461  0.00  0.00    +0.032 C 
ATOM      5  C   UNL     1       2.880  -0.451  -0.233  0.00  0.00    +0.115 C 
ATOM      6  C   UNL     1       2.197   0.055   1.040  0.00  0.00    +0.035 C 
ATOM      7  C   UNL     1       0.760  -0.457   1.080  0.00  0.00    -0.002 C 
ATOM      8  C   UNL     1       0.087  -0.046   2.386  0.00  0.00    +0.004 C 
ATOM      9  C   UNL     1      -1.344  -0.600   2.448  0.00  0.00    +0.005 C 
ATOM     10  C   UNL     1      -1.604  -1.385   1.171  0.00  0.00    +0.003 C 
ATOM     11  C   UNL     1      -1.461  -0.456  -0.038  0.00  0.00    +0.065 C 
ATOM     12  C   UNL     1      -2.011  -1.157  -1.246  0.00  0.00    +0.138 C 
ATOM     13  O   UNL     1      -1.344  -1.461  -2.209  0.00  0.00    -0.297 OA
ATOM     14  C   UNL     1      -3.506  -1.500  -1.226  0.00  0.00    +0.084 C 
ATOM     15  C   UNL     1      -3.962  -1.574   0.211  0.00  0.00    +0.013 C 
ATOM     16  C   UNL     1      -2.882  -2.158   1.138  0.00  0.00    +0.002 C 
ATOM     17  C   UNL     1      -3.636  -2.313   2.465  0.00  0.00    +0.008 C 
ATOM     18  C   UNL     1      -5.060  -2.751   2.033  0.00  0.00    +0.043 C 
ATOM     19  C   UNL     1      -5.150  -2.506   0.503  0.00  0.00    +0.130 C 
ATOM     20  C   UNL     1      -4.400  -0.176   0.686  0.00  0.00    +0.015 C 
ENDROOT
BRANCH  19  21
ATOM     21  C   UNL     1      -5.043  -3.812  -0.230  0.00  0.00    +0.175 C 
ATOM     22  O   UNL     1      -3.957  -4.273  -0.489  0.00  0.00    -0.293 OA
BRANCH  21  23
ATOM     23  C   UNL     1      -6.292  -4.548  -0.644  0.00  0.00    +0.157 C 
ATOM     24 BR   UNL     1      -5.796  -6.207  -1.576  0.00  0.00    -0.084 Br
ENDBRANCH  21  23
ENDBRANCH  19  21
BRANCH  19  25
ATOM     25  O   UNL     1      -6.376  -1.851   0.178  0.00  0.00    -0.380 OA
ATOM     26  H   UNL     1      -7.164  -2.387   0.340  0.00  0.00    +0.211 HD
ENDBRANCH  19  25
BRANCH   5  27
ATOM     27  O   UNL     1       2.922  -1.879  -0.223  0.00  0.00    -0.392 OA
ATOM     28  H   UNL     1       3.354  -2.265  -0.998  0.00  0.00    +0.210 HD
ENDBRANCH   5  27
TORSDOF 4
