REMARK  Name = ZINC59125389
REMARK  7 active torsions:
REMARK  status: ('A' for Active; 'I' for Inactive)
REMARK    1  A    between atoms: C_1  and  C_2
REMARK    2  A    between atoms: C_2  and  O_3
REMARK    3  A    between atoms: O_3  and  C_4
REMARK    4  A    between atoms: C_4  and  C_6
REMARK    5  A    between atoms: N_8  and  C_27
REMARK    6  A    between atoms: C_17  and  C_20
REMARK    7  A    between atoms: C_31  and  N_33
REMARK                            x       y       z     vdW  Elec       q    Type
REMARK                         _______ _______ _______ _____ _____    ______ ____
ROOT
ATOM      1  C   UNL     1      -2.863  -2.453   0.321  0.00  0.00    +0.202 C 
ATOM      2  N   UNL     1      -4.011  -1.825   0.329  0.00  0.00    -0.163 NA
ATOM      3  N   UNL     1      -5.212  -2.451   0.033  0.00  0.00    -0.192 N 
ATOM      4  C   UNL     1      -5.093  -3.864  -0.287  0.00  0.00    +0.181 C 
ATOM      5  S   UNL     1      -3.295  -4.128  -0.137  0.00  0.00    -0.054 S 
ATOM      6  C   UNL     1      -5.610  -4.260  -1.645  0.00  0.00    +0.003 A 
ATOM      7  C   UNL     1      -5.015  -3.925  -2.866  0.00  0.00    +0.008 A 
ATOM      8  C   UNL     1      -5.549  -4.335  -4.064  0.00  0.00    +0.000 A 
ATOM      9  C   UNL     1      -6.702  -5.097  -4.071  0.00  0.00    +0.000 A 
ATOM     10  C   UNL     1      -7.299  -5.429  -2.877  0.00  0.00    +0.005 A 
ATOM     11  C   UNL     1      -6.767  -5.014  -1.655  0.00  0.00    -0.023 A 
ATOM     12  C   UNL     1      -7.394  -5.334  -0.294  0.00  0.00    +0.110 C 
ATOM     13  S   UNL     1      -6.014  -4.937   0.862  0.00  0.00    -0.105 S 
ENDROOT
BRANCH  12  14
ATOM     14  C   UNL     1      -7.771  -6.790  -0.204  0.00  0.00    -0.030 A 
ATOM     15  C   UNL     1      -6.799  -7.765  -0.332  0.00  0.00    +0.006 A 
ATOM     16  C   UNL     1      -7.144  -9.101  -0.250  0.00  0.00    +0.020 A 
ATOM     17  C   UNL     1      -8.463  -9.462  -0.039  0.00  0.00    +0.041 A 
ATOM     18  C   UNL     1      -9.435  -8.487   0.089  0.00  0.00    +0.020 A 
ATOM     19  C   UNL     1      -9.088  -7.151   0.012  0.00  0.00    +0.006 A 
ATOM     20 CL   UNL     1      -8.898 -11.140   0.064  0.00  0.00    -0.084 Cl
ENDBRANCH  12  14
BRANCH   3  21
ATOM     21  C   UNL     1      -6.435  -1.780   0.042  0.00  0.00    +0.057 A 
ATOM     22  C   UNL     1      -6.791  -0.995   1.132  0.00  0.00    +0.025 A 
ATOM     23  C   UNL     1      -8.002  -0.332   1.137  0.00  0.00    +0.004 A 
ATOM     24  C   UNL     1      -8.860  -0.448   0.059  0.00  0.00    +0.033 A 
ATOM     25  C   UNL     1      -8.509  -1.228  -1.028  0.00  0.00    +0.128 A 
ATOM     26  C   UNL     1      -7.297  -1.890  -1.042  0.00  0.00    +0.057 A 
BRANCH  25  27
ATOM     27  N   UNL     1      -9.432  -1.350  -2.179  0.00  0.00    +0.056 N 
ATOM     28  O   UNL     1     -10.491  -0.767  -2.169  0.00  0.00    -0.126 OA
ATOM     29  O   UNL     1      -9.126  -2.032  -3.129  0.00  0.00    -0.126 OA
ENDBRANCH  25  27
ENDBRANCH   3  21
BRANCH   1  30
ATOM     30  C   UNL     1      -1.532  -1.909   0.613  0.00  0.00    +0.366 C 
ATOM     31  O   UNL     1      -0.554  -2.630   0.556  0.00  0.00    -0.243 OA
BRANCH  30  32
ATOM     32  O   UNL     1      -1.392  -0.609   0.944  0.00  0.00    -0.460 OA
BRANCH  32  34
ATOM     33  C   UNL     1      -0.109   1.341   1.571  0.00  0.00    +0.048 C 
ATOM     34  C   UNL     1      -0.068  -0.146   1.216  0.00  0.00    +0.229 C 
ENDBRANCH  32  34
ENDBRANCH  30  32
ENDBRANCH   1  30
TORSDOF 6
