REMARK  Name = ZINC22064995
REMARK  14 active torsions:
REMARK  status: ('A' for Active; 'I' for Inactive)
REMARK    1  A    between atoms: C_3  and  O_10
REMARK    2  A    between atoms: C_6  and  N_7
REMARK    3  A    between atoms: O_10  and  C_11
REMARK    4  A    between atoms: C_13  and  O_42
REMARK    5  A    between atoms: C_15  and  O_25
REMARK    6  A    between atoms: C_17  and  O_24
REMARK    7  A    between atoms: C_19  and  C_22
REMARK    8  A    between atoms: C_22  and  O_23
REMARK    9  A    between atoms: O_25  and  C_26
REMARK   10  A    between atoms: C_28  and  O_41
REMARK   11  A    between atoms: C_30  and  O_40
REMARK   12  A    between atoms: C_32  and  O_39
REMARK   13  A    between atoms: C_34  and  C_37
REMARK   14  A    between atoms: C_37  and  O_38
REMARK                            x       y       z     vdW  Elec       q    Type
REMARK                         _______ _______ _______ _____ _____    ______ ____
ROOT
ATOM      1  C   UNL     1       2.064   1.117   1.240  0.00  0.00    +0.339 C 
ATOM      2  C   UNL     1       1.286   1.562  -0.002  0.00  0.00    +0.214 C 
ATOM      3  C   UNL     1       1.146   3.087   0.011  0.00  0.00    +0.187 C 
ATOM      4  C   UNL     1       0.458   3.513   1.313  0.00  0.00    +0.177 C 
ATOM      5  C   UNL     1       1.268   2.993   2.504  0.00  0.00    +0.179 C 
ATOM      6  O   UNL     1       1.387   1.572   2.413  0.00  0.00    -0.331 OA
ENDROOT
BRANCH   4   7
ATOM      7  O   UNL     1       0.387   4.939   1.370  0.00  0.00    -0.386 OA
ATOM      8  H   UNL     1      -0.077   5.433   2.237  0.00  0.00    +0.210 HD
ENDBRANCH   4   7
BRANCH   2   9
ATOM      9  O   UNL     1      -0.011   0.963   0.007  0.00  0.00    -0.383 OA
ATOM     10  H   UNL     1      -0.717   1.168  -0.811  0.00  0.00    +0.210 HD
ENDBRANCH   2   9
BRANCH   1  11
ATOM     11  O   UNL     1       3.380   1.673   1.203  0.00  0.00    -0.461 OA
BRANCH  11  14
ATOM     12  C   UNL     1       6.469   1.239   3.074  0.00  0.00    +0.036 A 
ATOM     13  C   UNL     1       5.566   1.709   2.141  0.00  0.00    +0.048 A 
ATOM     14  C   UNL     1       4.271   1.212   2.119  0.00  0.00    +0.124 A 
ATOM     15  C   UNL     1       3.885   0.249   3.040  0.00  0.00    +0.048 A 
ATOM     16  C   UNL     1       4.794  -0.222   3.967  0.00  0.00    +0.036 A 
ATOM     17  C   UNL     1       6.084   0.275   3.986  0.00  0.00    +0.126 A 
BRANCH  17  18
ATOM     18  N   UNL     1       7.054  -0.227   4.985  0.00  0.00    +0.056 N 
ATOM     19  O   UNL     1       8.191   0.209   5.002  0.00  0.00    -0.126 OA
ATOM     20  O   UNL     1       6.716  -1.077   5.789  0.00  0.00    -0.126 OA
ENDBRANCH  17  18
ENDBRANCH  11  14
ENDBRANCH   1  11
BRANCH   5  21
ATOM     21  C   UNL     1       0.555   3.363   3.806  0.00  0.00    +0.190 C 
BRANCH  21  22
ATOM     22  O   UNL     1       1.366   2.980   4.918  0.00  0.00    -0.392 OA
ATOM     23  H   UNL     1       1.017   3.167   5.944  0.00  0.00    +0.210 HD
ENDBRANCH  21  22
ENDBRANCH   5  21
BRANCH   3  24
ATOM     24  O   UNL     1       2.441   3.687  -0.064  0.00  0.00    -0.340 OA
BRANCH  24  25
ATOM     25  C   UNL     1       2.891   3.934  -1.397  0.00  0.00    +0.282 C 
ATOM     26  C   UNL     1       4.367   4.339  -1.372  0.00  0.00    +0.201 C 
ATOM     27  C   UNL     1       4.518   5.642  -0.581  0.00  0.00    +0.179 C 
ATOM     28  C   UNL     1       3.631   6.718  -1.216  0.00  0.00    +0.177 C 
ATOM     29  C   UNL     1       2.184   6.221  -1.248  0.00  0.00    +0.178 C 
ATOM     30  O   UNL     1       2.119   4.991  -1.972  0.00  0.00    -0.341 OA
BRANCH  28  31
ATOM     31  O   UNL     1       3.708   7.917  -0.444  0.00  0.00    -0.386 OA
ATOM     32  H   UNL     1       3.135   8.805  -0.749  0.00  0.00    +0.210 HD
ENDBRANCH  28  31
BRANCH  27  33
ATOM     33  O   UNL     1       5.882   6.066  -0.613  0.00  0.00    -0.386 OA
ATOM     34  H   UNL     1       6.184   6.989  -0.096  0.00  0.00    +0.210 HD
ENDBRANCH  27  33
BRANCH  26  35
ATOM     35  O   UNL     1       4.832   4.534  -2.709  0.00  0.00    -0.384 OA
ATOM     36  H   UNL     1       5.876   4.830  -2.890  0.00  0.00    +0.210 HD
ENDBRANCH  26  35
BRANCH  29  37
ATOM     37  C   UNL     1       1.302   7.265  -1.936  0.00  0.00    +0.190 C 
BRANCH  37  38
ATOM     38  O   UNL     1      -0.066   6.856  -1.863  0.00  0.00    -0.392 OA
ATOM     39  H   UNL     1      -0.852   7.485  -2.306  0.00  0.00    +0.210 HD
ENDBRANCH  37  38
ENDBRANCH  29  37
ENDBRANCH  24  25
ENDBRANCH   3  24
TORSDOF 14
