REMARK  Name = ZINC35374317
REMARK  8 active torsions:
REMARK  status: ('A' for Active; 'I' for Inactive)
REMARK    1  A    between atoms: C_1  and  C_2
REMARK    2  A    between atoms: C_2  and  C_3
REMARK    3  A    between atoms: C_3  and  C_5
REMARK    4  A    between atoms: C_3  and  N_6
REMARK    5  A    between atoms: C_7  and  C_9
REMARK    6  A    between atoms: C_20  and  C_22
REMARK    7  A    between atoms: C_24  and  C_32
REMARK    8  A    between atoms: C_26  and  C_28
REMARK                            x       y       z     vdW  Elec       q    Type
REMARK                         _______ _______ _______ _____ _____    ______ ____
ROOT
ATOM      1  C   UNL     1      -1.385   0.164  -5.673  0.00  0.00    +0.028 C 
ATOM      2  C   UNL     1      -2.598  -0.601  -6.284  0.00  0.00    +0.061 C 
ATOM      3  S   UNL     1      -2.574   0.116  -7.986  0.00  0.00    -0.174 S 
ATOM      4  C   UNL     1      -0.839   0.715  -7.995  0.00  0.00    -0.016 C 
ATOM      5  N   UNL     1      -0.320   0.252  -6.692  0.00  0.00    +0.397 N 
ATOM      6  C   UNL     1      -0.818   2.233  -8.087  0.00  0.00    +0.017 C 
ATOM      7  C   UNL     1       0.634   2.727  -8.065  0.00  0.00    +0.107 C 
ATOM      8  N   UNL     1       1.387   2.024  -9.112  0.00  0.00    -0.298 N 
ATOM      9  C   UNL     1       1.378   0.554  -9.126  0.00  0.00    +0.107 C 
ATOM     10  C   UNL     1      -0.077   0.072  -9.143  0.00  0.00    +0.017 C 
ATOM     11  C   UNL     1       2.072   2.714 -10.044  0.00  0.00    +0.247 C 
ATOM     12  O   UNL     1       1.986   3.926 -10.089  0.00  0.00    -0.270 OA
ATOM     13  H   UNL     1       0.386   0.899  -6.373  0.00  0.00    -0.083 HD
ATOM     14  H   UNL     1       0.099  -0.658  -6.808  0.00  0.00    -0.083 HD
ENDROOT
BRANCH  11  15
ATOM     15  C   UNL     1       2.929   1.998 -11.013  0.00  0.00    +0.038 A 
ATOM     16  C   UNL     1       2.943   2.383 -12.355  0.00  0.00    +0.025 A 
ATOM     17  C   UNL     1       3.746   1.711 -13.254  0.00  0.00    +0.056 A 
ATOM     18  C   UNL     1       4.535   0.657 -12.828  0.00  0.00    +0.024 A 
ATOM     19  C   UNL     1       4.525   0.270 -11.499  0.00  0.00    +0.056 A 
ATOM     20  C   UNL     1       3.732   0.938 -10.589  0.00  0.00    +0.025 A 
BRANCH  19  21
ATOM     21  C   UNL     1       5.388  -0.879 -11.045  0.00  0.00    +0.417 C 
ATOM     22  F   UNL     1       6.100  -1.388 -12.136  0.00  0.00    -0.166 F 
ATOM     23  F   UNL     1       6.286  -0.430 -10.070  0.00  0.00    -0.166 F 
ATOM     24  F   UNL     1       4.578  -1.884 -10.506  0.00  0.00    -0.166 F 
ENDBRANCH  19  21
BRANCH  17  25
ATOM     25  C   UNL     1       3.762   2.125 -14.703  0.00  0.00    +0.417 C 
ATOM     26  F   UNL     1       4.753   3.093 -14.900  0.00  0.00    -0.166 F 
ATOM     27  F   UNL     1       4.034   1.010 -15.503  0.00  0.00    -0.166 F 
ATOM     28  F   UNL     1       2.515   2.655 -15.050  0.00  0.00    -0.166 F 
ENDBRANCH  17  25
ENDBRANCH  11  15
BRANCH   1  30
ATOM     29  N   UNL     1      -1.676  -0.777  -3.404  0.00  0.00    -0.314 N 
ATOM     30  C   UNL     1      -0.872  -0.581  -4.467  0.00  0.00    +0.200 C 
ATOM     31  O   UNL     1       0.265  -1.005  -4.454  0.00  0.00    -0.278 OA
ATOM     32  H   UNL     1      -2.585  -0.439  -3.414  0.00  0.00    +0.149 HD
BRANCH  29  33
ATOM     33  C   UNL     1      -1.178  -1.502  -2.232  0.00  0.00    +0.070 C 
ATOM     34  C   UNL     1      -1.347  -3.006  -2.453  0.00  0.00    +0.028 C 
BRANCH  33  36
ATOM     35  C   UNL     1      -1.700   0.402  -0.701  0.00  0.00    +0.005 C 
ATOM     36  C   UNL     1      -1.969  -1.076  -0.994  0.00  0.00    +0.018 C 
ENDBRANCH  33  36
ENDBRANCH  29  33
ENDBRANCH   1  30
TORSDOF 6
