REMARK  Name = ZINC50092914
REMARK  7 active torsions:
REMARK  status: ('A' for Active; 'I' for Inactive)
REMARK    1  A    between atoms: C_1  and  C_2
REMARK    2  A    between atoms: C_7  and  C_9
REMARK    3  A    between atoms: C_7  and  N_11
REMARK    4  A    between atoms: C_9  and  N_10
REMARK    5  A    between atoms: N_11  and  C_12
REMARK    6  A    between atoms: N_11  and  S_13
REMARK    7  A    between atoms: S_13  and  N_16
REMARK                            x       y       z     vdW  Elec       q    Type
REMARK                         _______ _______ _______ _____ _____    ______ ____
ROOT
ATOM      1  C   UNL     1       2.413  -4.659   2.460  0.00  0.00    +0.007 C 
ATOM      2  C   UNL     1       1.129  -3.839   2.603  0.00  0.00    -0.012 C 
ATOM      3  C   UNL     1       0.968  -3.392   4.057  0.00  0.00    +0.003 C 
ATOM      4  C   UNL     1      -0.316  -2.572   4.199  0.00  0.00    +0.002 C 
ATOM      5  C   UNL     1      -0.239  -1.342   3.293  0.00  0.00    +0.022 C 
ATOM      6  C   UNL     1      -0.079  -1.790   1.839  0.00  0.00    +0.029 C 
ATOM      7  C   UNL     1       1.206  -2.609   1.696  0.00  0.00    +0.025 C 
ENDROOT
BRANCH   6   8
ATOM      8  N   UNL     1      -1.228  -2.612   1.451  0.00  0.00    -0.165 NA
ATOM      9  C   UNL     1      -2.453  -2.583   2.253  0.00  0.00    +0.133 C 
BRANCH   8  10
ATOM     10  S   UNL     1      -1.142  -3.574   0.105  0.00  0.00    +0.100 S 
ATOM     11  O   UNL     1      -2.460  -3.659  -0.418  0.00  0.00    -0.141 OA
ATOM     12  O   UNL     1      -0.046  -3.098  -0.664  0.00  0.00    -0.141 OA
BRANCH  10  13
ATOM     13  N   UNL     1      -0.736  -5.095   0.617  0.00  0.00    -0.166 NA
ATOM     14  C   UNL     1       0.593  -5.590   0.334  0.00  0.00    +0.110 C 
ATOM     15  C   UNL     1       0.600  -6.303  -1.041  0.00  0.00    +0.017 C 
ATOM     16  C   UNL     1      -0.125  -7.580  -0.958  0.00  0.00    +0.001 C 
ATOM     17  C   UNL     1      -1.605  -7.441  -0.612  0.00  0.00    +0.001 C 
ATOM     18  C   UNL     1      -1.763  -7.361   0.886  0.00  0.00    +0.017 C 
ATOM     19  C   UNL     1      -1.744  -5.889   1.347  0.00  0.00    +0.110 C 
ENDBRANCH  10  13
ENDBRANCH   8  10
ENDBRANCH   6   8
BRANCH   6  20
ATOM     20  C   UNL     1      -0.002  -0.560   0.932  0.00  0.00    -0.062 C 
BRANCH  20  21
ATOM     21  N   UNL     1      -1.285   0.155   0.968  0.00  0.00    +0.379 N 
ATOM     22  H   UNL     1      -1.234   0.967   0.370  0.00  0.00    -0.090 HD
ATOM     23  H   UNL     1      -2.020  -0.455   0.645  0.00  0.00    -0.090 HD
ATOM     24  H   UNL     1      -1.481   0.447   1.914  0.00  0.00    -0.090 HD
ENDBRANCH  20  21
ENDBRANCH   6  20
TORSDOF 5
