REMARK  Name = ZINC36156900
REMARK  11 active torsions:
REMARK  status: ('A' for Active; 'I' for Inactive)
REMARK    1  A    between atoms: C_1  and  C_2
REMARK    2  A    between atoms: C_7  and  O_8
REMARK    3  A    between atoms: O_8  and  C_9
REMARK    4  A    between atoms: C_9  and  C_10
REMARK    5  A    between atoms: C_10  and  C_12
REMARK    6  A    between atoms: C_10  and  O_37
REMARK    7  A    between atoms: C_12  and  N_13
REMARK    8  A    between atoms: N_13  and  C_14
REMARK    9  A    between atoms: N_13  and  C_21
REMARK   10  A    between atoms: C_14  and  C_15
REMARK   11  A    between atoms: C_21  and  C_22
REMARK                            x       y       z     vdW  Elec       q    Type
REMARK                         _______ _______ _______ _____ _____    ______ ____
ROOT
ATOM      1  N   UNL     1       0.343   0.162   7.367  0.00  0.00    +0.389 N 
ATOM      2  H   UNL     1      -0.479   0.734   7.490  0.00  0.00    -0.081 HD
ENDROOT
BRANCH   1   3
ATOM      3  C   UNL     1       0.126  -0.776   6.258  0.00  0.00    -0.043 C 
BRANCH   3   4
ATOM      4  C   UNL     1      -0.289   0.001   5.007  0.00  0.00    +0.135 C 
BRANCH   4   5
ATOM      5  O   UNL     1      -1.525   0.675   5.253  0.00  0.00    -0.390 OA
ATOM      6  H   UNL     1      -2.257   0.084   5.478  0.00  0.00    +0.210 HD
ENDBRANCH   4   5
BRANCH   4   7
ATOM      7  C   UNL     1      -0.462  -0.970   3.837  0.00  0.00    +0.258 C 
BRANCH   7   8
ATOM      8  O   UNL     1      -0.735  -0.234   2.643  0.00  0.00    -0.489 OA
BRANCH   8  15
ATOM      9  C   UNL     1      -1.276   1.203   0.272  0.00  0.00    +0.047 C 
ATOM     10  C   UNL     1      -1.184  -0.301   0.308  0.00  0.00    -0.009 A 
ATOM     11  C   UNL     1      -1.362  -1.033  -0.851  0.00  0.00    +0.007 A 
ATOM     12  C   UNL     1      -1.278  -2.412  -0.818  0.00  0.00    +0.000 A 
ATOM     13  C   UNL     1      -1.016  -3.063   0.374  0.00  0.00    +0.004 A 
ATOM     14  C   UNL     1      -0.837  -2.337   1.535  0.00  0.00    +0.046 A 
ATOM     15  C   UNL     1      -0.916  -0.952   1.503  0.00  0.00    +0.124 A 
ENDBRANCH   8  15
ENDBRANCH   7   8
ENDBRANCH   4   7
ENDBRANCH   3   4
ENDBRANCH   1   3
BRANCH   1  16
ATOM     16  C   UNL     1       1.496   1.020   7.064  0.00  0.00    -0.042 C 
BRANCH  16  17
ATOM     17  C   UNL     1       2.715   0.162   6.837  0.00  0.00    -0.064 A 
ATOM     18  C   UNL     1       3.520  -0.190   7.904  0.00  0.00    +0.002 A 
ATOM     19  C   UNL     1       4.638  -0.977   7.696  0.00  0.00    +0.000 A 
ATOM     20  C   UNL     1       4.949  -1.412   6.421  0.00  0.00    +0.000 A 
ATOM     21  C   UNL     1       4.143  -1.061   5.355  0.00  0.00    +0.000 A 
ATOM     22  C   UNL     1       3.023  -0.277   5.564  0.00  0.00    +0.002 A 
ENDBRANCH  16  17
ENDBRANCH   1  16
BRANCH   1  23
ATOM     23  C   UNL     1       0.604  -0.591   8.601  0.00  0.00    -0.003 C 
BRANCH  23  24
ATOM     24  C   UNL     1       0.705   0.365   9.761  0.00  0.00    +0.094 A 
ATOM     25  N   UNL     1       0.950  -0.120  11.006  0.00  0.00    -0.312 N 
ATOM     26  H   UNL     1       1.057  -1.076  11.131  0.00  0.00    +0.170 HD
ATOM     27  C   UNL     1       1.049   0.699  12.070  0.00  0.00    +0.260 A 
ATOM     28  O   UNL     1       1.270   0.248  13.180  0.00  0.00    -0.267 OA
ATOM     29  C   UNL     1       0.890   2.110  11.875  0.00  0.00    +0.075 A 
ATOM     30  C   UNL     1       0.954   3.178  12.872  0.00  0.00    -0.023 A 
ATOM     31  C   UNL     1       0.769   4.440  12.430  0.00  0.00    -0.004 A 
ATOM     32  S   UNL     1       0.503   4.281  10.684  0.00  0.00    -0.073 S 
ATOM     33  C   UNL     1       0.640   2.516  10.554  0.00  0.00    +0.116 A 
ATOM     34  N   UNL     1       0.561   1.646   9.551  0.00  0.00    -0.229 NA
ATOM     35  C   UNL     1       0.785   5.698  13.243  0.00  0.00    +0.043 C 
ATOM     36  C   UNL     1       0.675   5.317  14.726  0.00  0.00    +0.005 C 
ATOM     37  C   UNL     1       1.675   4.195  15.021  0.00  0.00    +0.005 C 
ATOM     38  C   UNL     1       1.216   2.900  14.349  0.00  0.00    +0.037 C 
ENDBRANCH  23  24
ENDBRANCH   1  23
TORSDOF 10
