REMARK  Name = ZINC42144537
REMARK  4 active torsions:
REMARK  status: ('A' for Active; 'I' for Inactive)
REMARK    1  A    between atoms: C_2  and  N_18
REMARK    2  A    between atoms: C_5  and  C_6
REMARK    3  A    between atoms: C_12  and  C_14
REMARK    4  A    between atoms: C_14  and  C_15
REMARK                            x       y       z     vdW  Elec       q    Type
REMARK                         _______ _______ _______ _____ _____    ______ ____
ROOT
ATOM      1  C   UNL     1      -1.186  -1.033  -0.208  0.00  0.00    +0.265 C 
ATOM      2  O   UNL     1      -2.334  -0.683  -0.408  0.00  0.00    -0.268 OA
ATOM      3  N   UNL     1      -0.913  -2.325   0.063  0.00  0.00    -0.293 N 
ATOM      4  C   UNL     1       0.433  -2.903   0.226  0.00  0.00    +0.108 C 
ATOM      5  C   UNL     1       0.261  -4.408  -0.100  0.00  0.00    +0.021 C 
ATOM      6  C   UNL     1      -1.136  -4.700   0.509  0.00  0.00    +0.024 C 
ATOM      7  C   UNL     1      -1.909  -3.390   0.250  0.00  0.00    +0.087 C 
ENDROOT
BRANCH   1  12
ATOM      8  C   UNL     1      -0.232   1.297  -0.524  0.00  0.00    +0.067 A 
ATOM      9  C   UNL     1       1.050   1.853  -0.474  0.00  0.00    +0.146 A 
ATOM     10  C   UNL     1       1.924   0.858  -0.187  0.00  0.00    +0.144 A 
ATOM     11  N   UNL     1       1.238  -0.303  -0.054  0.00  0.00    -0.248 NA
ATOM     12  C   UNL     1      -0.100  -0.050  -0.260  0.00  0.00    +0.128 A 
BRANCH   9  13
ATOM     13  N   UNL     1       1.393   3.276  -0.696  0.00  0.00    +0.058 N 
ATOM     14  O   UNL     1       0.521   4.075  -0.947  0.00  0.00    -0.126 OA
ATOM     15  O   UNL     1       2.544   3.639  -0.626  0.00  0.00    -0.126 OA
ENDBRANCH   9  13
ENDBRANCH   1  12
BRANCH   7  16
ATOM     16  C   UNL     1      -2.801  -3.064   1.450  0.00  0.00    +0.147 C 
BRANCH  16  17
ATOM     17  C   UNL     1      -3.901  -4.089   1.552  0.00  0.00    +0.358 C 
ATOM     18  O   UNL     1      -4.033  -4.930   0.680  0.00  0.00    -0.246 OA
ATOM     19  O   UNL     1      -4.658  -4.077   2.508  0.00  0.00    -0.246 OA
ENDBRANCH  16  17
ENDBRANCH   7  16
TORSDOF 4
