REMARK  Name = ZINC63515254
REMARK  10 active torsions:
REMARK  status: ('A' for Active; 'I' for Inactive)
REMARK    1  A    between atoms: C_1  and  C_2
REMARK    2  A    between atoms: C_4  and  C_33
REMARK    3  A    between atoms: C_9  and  C_32
REMARK    4  A    between atoms: N_10  and  C_11
REMARK    5  A    between atoms: C_11  and  C_12
REMARK    6  A    between atoms: C_12  and  C_13
REMARK    7  A    between atoms: C_16  and  O_24
REMARK    8  A    between atoms: C_21  and  C_23
REMARK    9  A    between atoms: O_24  and  C_25
REMARK   10  A    between atoms: C_25  and  C_26
REMARK                            x       y       z     vdW  Elec       q    Type
REMARK                         _______ _______ _______ _____ _____    ______ ____
ROOT
ATOM      1  C   UNL     1      -1.204  -2.739   3.529  0.00  0.00    -0.037 C 
ATOM      2  C   UNL     1      -1.557  -1.934   4.557  0.00  0.00    +0.003 A 
ATOM      3  C   UNL     1      -1.325  -0.512   4.832  0.00  0.00    +0.055 A 
ATOM      4  C   UNL     1      -1.810   0.033   5.974  0.00  0.00    +0.122 A 
ATOM      5  C   UNL     1      -2.535  -0.717   6.916  0.00  0.00    +0.048 A 
ATOM      6  C   UNL     1      -2.798  -2.031   6.751  0.00  0.00    +0.029 A 
ATOM      7  C   UNL     1      -2.321  -2.724   5.550  0.00  0.00    +0.043 A 
ATOM      8  N   UNL     1      -2.435  -3.967   5.152  0.00  0.00    -0.378 N 
ATOM      9  C   UNL     1      -1.762  -4.106   3.856  0.00  0.00    +0.103 C 
ATOM     10  C   UNL     1      -0.627  -5.127   3.962  0.00  0.00    +0.035 C 
ATOM     11  H   UNL     1      -2.892  -4.675   5.632  0.00  0.00    +0.160 HD
ENDROOT
BRANCH   1  12
ATOM     12  C   UNL     1      -0.419  -2.350   2.302  0.00  0.00    +0.052 C 
BRANCH  12  13
ATOM     13  C   UNL     1      -0.052  -0.867   2.380  0.00  0.00    +0.111 C 
BRANCH  13  21
ATOM     14  C   UNL     1      -0.019   1.526   0.010  0.00  0.00    +0.029 C 
ATOM     15  C   UNL     1       0.002  -0.004   0.002  0.00  0.00    +0.087 C 
ATOM     16  C   UNL     1       0.719  -0.498  -1.257  0.00  0.00    +0.127 C 
ATOM     17  C   UNL     1       2.205  -0.312  -1.086  0.00  0.00    +0.247 C 
ATOM     18  O   UNL     1       2.893  -0.028  -2.046  0.00  0.00    -0.273 OA
ATOM     19  N   UNL     1       2.768  -0.459   0.115  0.00  0.00    -0.170 NA
ATOM     20  C   UNL     1       2.049  -0.593   1.199  0.00  0.00    +0.087 C 
ATOM     21  N   UNL     1       0.711  -0.489   1.188  0.00  0.00    -0.316 N 
ATOM     22  C   UNL     1       2.747  -0.875   2.505  0.00  0.00    +0.080 C 
BRANCH  16  23
ATOM     23  C   UNL     1       0.414  -1.958  -1.470  0.00  0.00    -0.034 A 
ATOM     24  C   UNL     1       0.755  -2.884  -0.502  0.00  0.00    +0.004 A 
ATOM     25  C   UNL     1       0.476  -4.223  -0.697  0.00  0.00    +0.000 A 
ATOM     26  C   UNL     1      -0.146  -4.637  -1.860  0.00  0.00    +0.000 A 
ATOM     27  C   UNL     1      -0.488  -3.712  -2.828  0.00  0.00    +0.000 A 
ATOM     28  C   UNL     1      -0.212  -2.371  -2.631  0.00  0.00    +0.004 A 
ENDBRANCH  16  23
ENDBRANCH  13  21
ENDBRANCH  12  13
ENDBRANCH   1  12
BRANCH   4  29
ATOM     29  O   UNL     1      -1.587   1.352   6.216  0.00  0.00    -0.487 OA
BRANCH  29  30
ATOM     30  C   UNL     1      -2.116   1.886   7.432  0.00  0.00    +0.264 C 
BRANCH  30  31
ATOM     31  C   UNL     1      -1.773   3.350   7.528  0.00  0.00    -0.010 A 
ATOM     32  C   UNL     1      -0.594   3.746   8.132  0.00  0.00    +0.007 A 
ATOM     33  C   UNL     1      -0.280   5.089   8.220  0.00  0.00    +0.000 A 
ATOM     34  C   UNL     1      -1.144   6.037   7.705  0.00  0.00    +0.000 A 
ATOM     35  C   UNL     1      -2.322   5.641   7.100  0.00  0.00    +0.000 A 
ATOM     36  C   UNL     1      -2.635   4.298   7.008  0.00  0.00    +0.007 A 
ENDBRANCH  30  31
ENDBRANCH  29  30
ENDBRANCH   4  29
TORSDOF 7
