REMARK  Name = ZINC13400558
REMARK  13 active torsions:
REMARK  status: ('A' for Active; 'I' for Inactive)
REMARK    1  A    between atoms: C_1  and  C_2
REMARK    2  A    between atoms: C_2  and  N_3
REMARK    3  A    between atoms: N_3  and  C_4
REMARK    4  A    between atoms: N_3  and  C_6
REMARK    5  A    between atoms: C_4  and  C_5
REMARK    6  A    between atoms: C_9  and  C_12
REMARK    7  A    between atoms: C_15  and  S_17
REMARK    8  A    between atoms: S_17  and  C_18
REMARK    9  A    between atoms: C_18  and  C_19
REMARK   10  A    between atoms: N_21  and  CA_22
REMARK   11  A    between atoms: CA_22  and  CB_24
REMARK   12  A    between atoms: CA_22  and  C_35
REMARK   13  A    between atoms: CB_24  and  CG_25
REMARK                            x       y       z     vdW  Elec       q    Type
REMARK                         _______ _______ _______ _____ _____    ______ ____
ROOT
ATOM      1  C   UNK A   0      -1.438 -10.976   1.150  0.00  0.00    +0.174 C 
ENDROOT
BRANCH   1   2
ATOM      2  C   UNK A   0      -1.795 -12.258   1.857  0.00  0.00    +0.224 C 
ATOM      3  O   UNK A   0      -2.433 -12.224   2.889  0.00  0.00    -0.275 OA
ATOM      4  N   TRP A   1      -1.407 -13.442   1.344  0.00  0.00    -0.301 N 
ATOM      5  H   TRP A   1      -0.897 -13.469   0.519  0.00  0.00    +0.150 HD
BRANCH   4   6
ATOM      6  CA  TRP A   1      -1.754 -14.688   2.032  0.00  0.00    +0.191 C 
BRANCH   6   7
ATOM      7  C   TRP A   1      -3.135 -15.124   1.615  0.00  0.00    +0.376 C 
ATOM      8  O   TRP A   1      -3.551 -14.847   0.503  0.00  0.00    -0.244 OA
ATOM      9  OXT TRP A   1      -3.835 -15.754   2.389  0.00  0.00    -0.244 OA
ENDBRANCH   6   7
BRANCH   6  10
ATOM     10  CB  TRP A   1      -0.742 -15.774   1.662  0.00  0.00    +0.071 C 
BRANCH  10  11
ATOM     11  CG  TRP A   1       0.618 -15.394   2.188  0.00  0.00    -0.020 A 
ATOM     12  CD1 TRP A   1       1.585 -14.754   1.512  0.00  0.00    +0.087 A 
ATOM     13  NE1 TRP A   1       2.680 -14.582   2.314  0.00  0.00    -0.360 N 
ATOM     14  HE1 TRP A   1       3.504 -14.145   2.047  0.00  0.00    +0.165 HD
ATOM     15  CE2 TRP A   1       2.438 -15.120   3.558  0.00  0.00    +0.047 A 
ATOM     16  CD2 TRP A   1       1.133 -15.647   3.535  0.00  0.00    +0.003 A 
ATOM     17  CE3 TRP A   1       0.609 -16.258   4.676  0.00  0.00    +0.010 A 
ATOM     18  CZ3 TRP A   1       1.365 -16.338   5.811  0.00  0.00    +0.001 A 
ATOM     19  CH2 TRP A   1       2.651 -15.816   5.840  0.00  0.00    +0.002 A 
ATOM     20  CZ2 TRP A   1       3.192 -15.217   4.723  0.00  0.00    +0.026 A 
ENDBRANCH  10  11
ENDBRANCH   6  10
ENDBRANCH   4   6
ENDBRANCH   1   2
BRANCH   1  21
ATOM     21  S   UNK A   0      -2.099  -9.567   2.082  0.00  0.00    -0.056 S 
BRANCH  21  25
ATOM     22  C   UNK A   0      -1.301  -6.140   0.446  0.00  0.00    +0.249 A 
ATOM     23  N   UNK A   0      -0.735  -6.975  -0.391  0.00  0.00    -0.106 NA
ATOM     24  N   UNK A   0      -0.915  -8.181   0.021  0.00  0.00    -0.101 NA
ATOM     25  C   UNK A   0      -1.604  -8.163   1.139  0.00  0.00    +0.278 A 
ATOM     26  O   UNK A   0      -1.859  -6.874   1.434  0.00  0.00    -0.411 OA
BRANCH  22  30
ATOM     27  C   UNK A   0      -1.358  -1.906   0.120  0.00  0.00    +0.013 A 
ATOM     28  C   UNK A   0      -0.723  -2.663  -0.849  0.00  0.00    +0.022 A 
ATOM     29  C   UNK A   0      -0.700  -4.039  -0.749  0.00  0.00    +0.015 A 
ATOM     30  C   UNK A   0      -1.321  -4.667   0.333  0.00  0.00    +0.039 A 
ATOM     31  C   UNK A   0      -1.960  -3.897   1.306  0.00  0.00    +0.015 A 
ATOM     32  C   UNK A   0      -1.970  -2.522   1.197  0.00  0.00    +0.022 A 
BRANCH  27  33
ATOM     33  N   UNK A   0      -1.376  -0.512   0.012  0.00  0.00    -0.394 NA
ATOM     34  H   UNK A   0      -1.873  -0.121   0.799  0.00  0.00    +0.126 HD
BRANCH  33  36
ATOM     35  C   UNK A   0      -0.019   1.526   0.010  0.00  0.00    +0.022 C 
ATOM     36  C   UNK A   0       0.002  -0.004   0.002  0.00  0.00    +0.081 C 
ENDBRANCH  33  36
BRANCH  33  37
ATOM     37  C   UNK A   0      -2.050  -0.126  -1.234  0.00  0.00    +0.081 C 
ATOM     38  C   UNK A   0      -3.520  -0.547  -1.171  0.00  0.00    +0.022 C 
ENDBRANCH  33  37
ENDBRANCH  27  33
ENDBRANCH  22  30
ENDBRANCH  21  25
ENDBRANCH   1  21
TORSDOF 11
