REMARK  Name = ZINC63869643
REMARK  5 active torsions:
REMARK  status: ('A' for Active; 'I' for Inactive)
REMARK    1  A    between atoms: C_1  and  C_2
REMARK    2  A    between atoms: C_5  and  C_17
REMARK    3  A    between atoms: N_9  and  C_11
REMARK    4  A    between atoms: N_19  and  N_20
REMARK    5  A    between atoms: C_21  and  C_22
REMARK                            x       y       z     vdW  Elec       q    Type
REMARK                         _______ _______ _______ _____ _____    ______ ____
ROOT
ATOM      1  C   UNL     1      -0.018   1.503   0.010  0.00  0.00    +0.062 C 
ATOM      2  C   UNL     1       0.002  -0.004   0.002  0.00  0.00    +0.025 C 
ATOM      3  C   UNL     1      -1.104  -0.782   0.003  0.00  0.00    +0.004 C 
ATOM      4  C   UNL     1      -2.480  -0.815  -0.236  0.00  0.00    +0.028 C 
ATOM      5  C   UNL     1      -3.055  -1.942  -0.762  0.00  0.00    +0.074 C 
ATOM      6  S   UNL     1      -1.698  -3.108  -0.865  0.00  0.00    -0.091 S 
ATOM      7  C   UNL     1      -0.558  -2.201   0.249  0.00  0.00    +0.188 C 
ATOM      8  N   UNL     1       0.799  -2.106  -0.291  0.00  0.00    -0.236 N 
ATOM      9  N   UNL     1       1.145  -0.762  -0.013  0.00  0.00    -0.267 N 
ATOM     10  H   UNL     1       2.044  -0.432   0.143  0.00  0.00    +0.170 HD
ENDROOT
BRANCH   8  11
ATOM     11  C   UNL     1       1.560  -3.091  -0.924  0.00  0.00    +0.049 A 
ATOM     12  C   UNL     1       1.033  -4.362  -1.115  0.00  0.00    +0.025 A 
ATOM     13  C   UNL     1       1.788  -5.333  -1.742  0.00  0.00    +0.002 A 
ATOM     14  C   UNL     1       3.067  -5.042  -2.180  0.00  0.00    +0.000 A 
ATOM     15  C   UNL     1       3.594  -3.777  -1.992  0.00  0.00    +0.002 A 
ATOM     16  C   UNL     1       2.842  -2.800  -1.371  0.00  0.00    +0.025 A 
ENDBRANCH   8  11
BRANCH   5  17
ATOM     17  C   UNL     1      -4.406  -2.140  -1.138  0.00  0.00    +0.270 C 
ATOM     18  O   UNL     1      -5.214  -1.238  -1.003  0.00  0.00    -0.268 OA
ATOM     19  N   UNL     1      -4.799  -3.326  -1.644  0.00  0.00    -0.203 N 
ATOM     20  H   UNL     1      -4.155  -4.044  -1.751  0.00  0.00    +0.178 HD
BRANCH  19  21
ATOM     21  N   UNL     1      -6.135  -3.522  -2.015  0.00  0.00    -0.186 NA
ATOM     22  C   UNL     1      -6.515  -4.670  -2.505  0.00  0.00    +0.154 C 
BRANCH  22  23
ATOM     23  C   UNL     1      -7.864  -4.867  -2.879  0.00  0.00    +0.065 C 
ATOM     24  N   UNL     1      -8.837  -3.997  -2.800  0.00  0.00    -0.258 NA
ATOM     25  C   UNL     1     -10.016  -4.479  -3.234  0.00  0.00    +0.107 C 
ATOM     26  C   UNL     1      -9.929  -5.742  -3.651  0.00  0.00    -0.001 C 
ATOM     27  C   UNL     1      -8.474  -6.128  -3.461  0.00  0.00    +0.085 C 
ENDBRANCH  22  23
ENDBRANCH  19  21
ENDBRANCH   5  17
TORSDOF 4
