REMARK  Name = ZINC27567917
REMARK  9 active torsions:
REMARK  status: ('A' for Active; 'I' for Inactive)
REMARK    1  A    between atoms: C_1  and  C_2
REMARK    2  A    between atoms: C_2  and  O_3
REMARK    3  A    between atoms: O_3  and  C_4
REMARK    4  A    between atoms: C_4  and  C_6
REMARK    5  A    between atoms: C_7  and  C_19
REMARK    6  A    between atoms: C_12  and  C_14
REMARK    7  A    between atoms: C_19  and  N_20
REMARK    8  A    between atoms: C_23  and  C_27
REMARK    9  A    between atoms: C_23  and  C_28
REMARK                            x       y       z     vdW  Elec       q    Type
REMARK                         _______ _______ _______ _____ _____    ______ ____
ROOT
ATOM      1  C   UNL     1       2.174   1.056  -0.099  0.00  0.00    +0.169 C 
ENDROOT
BRANCH   1   3
ATOM      2  C   UNL     1       3.935   0.432  -1.714  0.00  0.00    +0.083 C 
ATOM      3  C   UNL     1       2.776   1.085  -1.481  0.00  0.00    +0.042 C 
ATOM      4  N   UNL     1       2.138   1.766  -2.478  0.00  0.00    -0.271 N 
ATOM      5  C   UNL     1       2.599   1.852  -3.732  0.00  0.00    +0.304 C 
ATOM      6  O   UNL     1       1.962   2.486  -4.550  0.00  0.00    -0.252 OA
ATOM      7  N   UNL     1       3.743   1.253  -4.117  0.00  0.00    -0.285 N 
ATOM      8  C   UNL     1       4.505   0.487  -3.116  0.00  0.00    +0.179 C 
ATOM      9  H   UNL     1       1.189   2.284  -2.270  0.00  0.00    +0.156 HD
ATOM     10  H   UNL     1       4.111   1.326  -5.151  0.00  0.00    +0.151 HD
BRANCH   8  11
ATOM     11  C   UNL     1       4.640  -0.927  -3.619  0.00  0.00    +0.130 A 
ATOM     12  C   UNL     1       5.776  -1.647  -3.647  0.00  0.00    +0.047 A 
ATOM     13  C   UNL     1       5.446  -2.911  -4.189  0.00  0.00    +0.041 A 
ATOM     14  C   UNL     1       4.130  -2.884  -4.467  0.00  0.00    +0.195 A 
ATOM     15  O   UNL     1       3.647  -1.680  -4.120  0.00  0.00    -0.466 OA
ENDBRANCH   8  11
BRANCH   2  16
ATOM     16  C   UNL     1       4.594  -0.278  -0.683  0.00  0.00    +0.339 C 
ATOM     17  O   UNL     1       4.181  -0.216   0.459  0.00  0.00    -0.245 OA
BRANCH  16  18
ATOM     18  O   UNL     1       5.682  -1.024  -0.968  0.00  0.00    -0.462 OA
BRANCH  18  20
ATOM     19  C   UNL     1       7.506  -2.500  -0.391  0.00  0.00    +0.048 C 
ATOM     20  C   UNL     1       6.298  -1.714   0.121  0.00  0.00    +0.229 C 
ENDBRANCH  18  20
ENDBRANCH  16  18
ENDBRANCH   2  16
ENDBRANCH   1   3
BRANCH   1  21
ATOM     21  N   UNL     1       0.734   1.311  -0.189  0.00  0.00    -0.218 N 
ATOM     22  C   UNL     1       0.177   2.537  -0.131  0.00  0.00    +0.251 C 
ATOM     23  O   UNL     1       0.752   3.597   0.002  0.00  0.00    -0.272 OA
ATOM     24  C   UNL     1      -1.316   2.316  -0.265  0.00  0.00    +0.135 C 
ATOM     25  N   UNL     1      -1.439   0.854  -0.400  0.00  0.00    -0.281 N 
ATOM     26  C   UNL     1      -0.191   0.356  -0.339  0.00  0.00    +0.310 C 
ATOM     27  O   UNL     1       0.068  -0.829  -0.417  0.00  0.00    -0.252 OA
ATOM     28  C   UNL     1      -1.855   3.018  -1.513  0.00  0.00    +0.047 C 
ATOM     29  H   UNL     1      -2.431   0.395  -0.522  0.00  0.00    +0.152 HD
BRANCH  24  30
ATOM     30  C   UNL     1      -2.037   2.801   0.967  0.00  0.00    -0.012 A 
ATOM     31  C   UNL     1      -1.519   3.853   1.700  0.00  0.00    +0.010 A 
ATOM     32  C   UNL     1      -2.176   4.300   2.831  0.00  0.00    +0.050 A 
ATOM     33  C   UNL     1      -3.356   3.694   3.233  0.00  0.00    +0.162 A 
ATOM     34  C   UNL     1      -3.878   2.639   2.495  0.00  0.00    +0.162 A 
ATOM     35  C   UNL     1      -3.216   2.198   1.359  0.00  0.00    +0.055 A 
ATOM     36  O   UNL     1      -5.040   2.035   2.869  0.00  0.00    -0.485 OA
ATOM     37  C   UNL     1      -5.476   2.256   4.214  0.00  0.00    +0.270 C 
ATOM     38  C   UNL     1      -5.357   3.756   4.516  0.00  0.00    +0.270 C 
ATOM     39  O   UNL     1      -3.988   4.140   4.354  0.00  0.00    -0.485 OA
ENDBRANCH  24  30
ENDBRANCH   1  21
TORSDOF 7
