REMARK  Name = ZINC39693405
REMARK  10 active torsions:
REMARK  status: ('A' for Active; 'I' for Inactive)
REMARK    1  A    between atoms: C_1  and  C_2
REMARK    2  A    between atoms: C_2  and  C_3
REMARK    3  A    between atoms: C_2  and  C_4
REMARK    4  A    between atoms: C_2  and  O_5
REMARK    5  A    between atoms: O_5  and  C_6
REMARK    6  A    between atoms: N_8  and  C_9
REMARK    7  A    between atoms: C_9  and  C_10
REMARK    8  A    between atoms: C_10  and  N_11
REMARK    9  A    between atoms: C_12  and  C_14
REMARK   10  A    between atoms: C_25  and  C_27
REMARK                            x       y       z     vdW  Elec       q    Type
REMARK                         _______ _______ _______ _____ _____    ______ ____
ROOT
ATOM      1  C   UNL     1       8.098  -0.213  -5.347  0.00  0.00    +0.100 C 
ATOM      2  C   UNL     1       8.957  -0.676  -4.149  0.00  0.00    +0.121 C 
ATOM      3  N   UNL     1       9.540  -1.968  -4.582  0.00  0.00    -0.296 N 
ATOM      4  C   UNL     1       9.877  -1.759  -6.011  0.00  0.00    +0.115 C 
ATOM      5  C   UNL     1       8.707  -0.924  -6.567  0.00  0.00    -0.004 C 
ATOM      6  C   UNL     1       7.672  -1.836  -7.219  0.00  0.00    -0.010 C 
ATOM      7  C   UNL     1       8.283  -2.488  -8.462  0.00  0.00    -0.082 C 
ATOM      8  N   UNL     1       8.708  -1.445  -9.404  0.00  0.00    +0.379 N 
ATOM      9  C   UNL     1       9.770  -0.629  -8.803  0.00  0.00    -0.082 C 
ATOM     10  C   UNL     1       9.222   0.101  -7.574  0.00  0.00    -0.010 C 
ATOM     11  C   UNL     1       9.721  -3.081  -3.845  0.00  0.00    +0.249 C 
ATOM     12  O   UNL     1       9.302  -3.130  -2.704  0.00  0.00    -0.270 OA
ATOM     13  H   UNL     1       9.054  -1.877 -10.248  0.00  0.00    -0.086 HD
ATOM     14  H   UNL     1       7.920  -0.856  -9.630  0.00  0.00    -0.086 HD
ENDROOT
BRANCH  11  15
ATOM     15  C   UNL     1      10.429  -4.241  -4.421  0.00  0.00    +0.072 A 
ATOM     16  C   UNL     1      11.488  -4.045  -5.311  0.00  0.00    +0.019 A 
ATOM     17  C   UNL     1      12.145  -5.131  -5.846  0.00  0.00    +0.039 A 
ATOM     18  C   UNL     1      11.759  -6.419  -5.503  0.00  0.00    +0.126 A 
ATOM     19  C   UNL     1      10.710  -6.622  -4.621  0.00  0.00    +0.077 A 
ATOM     20  C   UNL     1      10.046  -5.541  -4.073  0.00  0.00    +0.138 A 
ATOM     21  F   UNL     1       9.027  -5.739  -3.208  0.00  0.00    -0.205 F 
ATOM     22  F   UNL     1      12.408  -7.479  -6.032  0.00  0.00    -0.205 F 
ENDBRANCH  11  15
BRANCH   1  24
ATOM     23  N   UNL     1       5.668   0.114  -5.675  0.00  0.00    -0.314 N 
ATOM     24  C   UNL     1       6.663  -0.633  -5.157  0.00  0.00    +0.218 C 
ATOM     25  O   UNL     1       6.404  -1.644  -4.538  0.00  0.00    -0.275 OA
ATOM     26  H   UNL     1       5.875   0.922  -6.169  0.00  0.00    +0.149 HD
BRANCH  23  27
ATOM     27  C   UNL     1       4.274  -0.295  -5.490  0.00  0.00    +0.123 C 
BRANCH  27  28
ATOM     28  C   UNL     1       3.351   0.719  -6.170  0.00  0.00    +0.126 C 
BRANCH  28  31
ATOM     29  C   UNL     1       0.961   1.058  -6.503  0.00  0.00    +0.401 C 
ATOM     30  O   UNL     1       1.221   2.070  -7.123  0.00  0.00    -0.226 OA
ATOM     31  N   UNL     1       1.956   0.310  -5.985  0.00  0.00    -0.280 N 
ATOM     32  H   UNL     1       1.749  -0.498  -5.491  0.00  0.00    +0.152 HD
BRANCH  29  33
ATOM     33  O   UNL     1      -0.321   0.682  -6.333  0.00  0.00    -0.445 OA
BRANCH  33  35
ATOM     34  C   UNL     1      -1.116   1.601  -8.422  0.00  0.00    +0.055 C 
ATOM     35  C   UNL     1      -1.324   1.522  -6.909  0.00  0.00    +0.107 C 
ATOM     36  C   UNL     1      -1.223   2.924  -6.306  0.00  0.00    +0.055 C 
ATOM     37  C   UNL     1      -2.708   0.938  -6.614  0.00  0.00    +0.055 C 
ENDBRANCH  33  35
ENDBRANCH  29  33
ENDBRANCH  28  31
ENDBRANCH  27  28
ENDBRANCH  23  27
ENDBRANCH   1  24
TORSDOF 7
