REMARK  Name = ZINC39486598
REMARK  8 active torsions:
REMARK  status: ('A' for Active; 'I' for Inactive)
REMARK    1  A    between atoms: C_1  and  C_2
REMARK    2  A    between atoms: C_2  and  C_3
REMARK    3  A    between atoms: C_2  and  C_4
REMARK    4  A    between atoms: C_4  and  C_5
REMARK    5  A    between atoms: C_9  and  C_11
REMARK    6  A    between atoms: C_17  and  O_36
REMARK    7  A    between atoms: N_27  and  C_29
REMARK    8  A    between atoms: C_34  and  O_35
REMARK                            x       y       z     vdW  Elec       q    Type
REMARK                         _______ _______ _______ _____ _____    ______ ____
ROOT
ATOM      1  C   UNL     1      -1.295  -5.069   2.124  0.00  0.00    +0.062 C 
ATOM      2  C   UNL     1      -0.022  -5.856   2.093  0.00  0.00    -0.022 A 
ATOM      3  C   UNL     1       1.086  -5.279   1.510  0.00  0.00    +0.054 A 
ATOM      4  C   UNL     1       2.271  -6.010   1.484  0.00  0.00    +0.170 A 
ATOM      5  C   UNL     1       2.350  -7.298   2.035  0.00  0.00    +0.208 A 
ATOM      6  C   UNL     1       1.242  -7.890   2.626  0.00  0.00    +0.173 A 
ATOM      7  C   UNL     1       0.044  -7.140   2.639  0.00  0.00    +0.067 A 
ATOM      8  C   UNL     1      -1.156  -7.730   3.230  0.00  0.00    +0.172 C 
ATOM      9  O   UNL     1      -1.056  -8.783   3.825  0.00  0.00    -0.292 OA
ATOM     10  C   UNL     1      -2.490  -7.092   3.129  0.00  0.00    +0.091 C 
ATOM     11  C   UNL     1      -2.556  -5.899   2.179  0.00  0.00    +0.099 C 
ATOM     12  C   UNL     1      -3.664  -5.043   2.782  0.00  0.00    +0.225 C 
ATOM     13  O   UNL     1      -4.288  -4.189   2.189  0.00  0.00    -0.275 OA
ATOM     14  N   UNL     1      -3.843  -5.381   4.073  0.00  0.00    -0.267 N 
ATOM     15  C   UNL     1      -2.947  -6.478   4.466  0.00  0.00    +0.126 C 
ATOM     16  O   UNL     1       3.608  -7.768   1.871  0.00  0.00    -0.449 OA
ATOM     17  C   UNL     1       4.206  -6.921   0.866  0.00  0.00    +0.467 C 
ATOM     18  O   UNL     1       3.480  -5.680   0.978  0.00  0.00    -0.452 OA
ENDROOT
BRANCH   1  23
ATOM     19  C   UNL     1      -1.416  -2.035  -0.119  0.00  0.00    -0.047 A 
ATOM     20  C   UNL     1      -1.450  -2.619  -1.372  0.00  0.00    +0.003 A 
ATOM     21  C   UNL     1      -1.434  -3.996  -1.493  0.00  0.00    +0.001 A 
ATOM     22  C   UNL     1      -1.384  -4.789  -0.361  0.00  0.00    +0.004 A 
ATOM     23  C   UNL     1      -1.349  -4.205   0.891  0.00  0.00    -0.039 A 
ATOM     24  C   UNL     1      -1.361  -2.827   1.012  0.00  0.00    +0.008 A 
BRANCH  19  25
ATOM     25  C   UNL     1      -1.433  -0.534   0.013  0.00  0.00    +0.038 C 
BRANCH  25  27
ATOM     26  C   UNL     1      -0.019   1.526   0.010  0.00  0.00    +0.007 C 
ATOM     27  C   UNL     1       0.002  -0.004   0.002  0.00  0.00    -0.013 C 
ATOM     28  C   UNL     1       0.742  -0.511   1.242  0.00  0.00    +0.007 C 
ENDBRANCH  25  27
ENDBRANCH  19  25
ENDBRANCH   1  23
BRANCH  14  29
ATOM     29  C   UNL     1      -4.761  -4.763   4.933  0.00  0.00    +0.078 A 
ATOM     30  C   UNL     1      -6.053  -5.256   5.041  0.00  0.00    +0.027 A 
ATOM     31  C   UNL     1      -6.956  -4.646   5.890  0.00  0.00    +0.002 A 
ATOM     32  C   UNL     1      -6.575  -3.544   6.634  0.00  0.00    +0.004 A 
ATOM     33  C   UNL     1      -5.289  -3.048   6.532  0.00  0.00    +0.047 A 
ATOM     34  C   UNL     1      -4.376  -3.657   5.687  0.00  0.00    +0.138 A 
BRANCH  34  35
ATOM     35  O   UNL     1      -3.109  -3.174   5.590  0.00  0.00    -0.505 OA
ATOM     36  H   UNL     1      -2.997  -2.499   4.907  0.00  0.00    +0.292 HD
ENDBRANCH  34  35
ENDBRANCH  14  29
BRANCH   6  37
ATOM     37  O   UNL     1       1.306  -9.133   3.167  0.00  0.00    -0.503 OA
ATOM     38  H   UNL     1       1.552  -9.143   4.102  0.00  0.00    +0.292 HD
ENDBRANCH   6  37
TORSDOF 6
