REMARK  Name = ZINC05519282
REMARK  4 active torsions:
REMARK  status: ('A' for Active; 'I' for Inactive)
REMARK    1  A    between atoms: C_1  and  C_2
REMARK    2  A    between atoms: C_13  and  S_16
REMARK    3  A    between atoms: S_16  and  C_17
REMARK    4  A    between atoms: C_17  and  C_18
REMARK                            x       y       z     vdW  Elec       q    Type
REMARK                         _______ _______ _______ _____ _____    ______ ____
ROOT
ATOM      1  C   UNL     1       0.448 -11.974  -0.938  0.00  0.00    +0.044 C 
ATOM      2  C   UNL     1      -0.348 -10.902  -1.637  0.00  0.00    -0.050 A 
ATOM      3  C   UNL     1      -1.248 -11.249  -2.632  0.00  0.00    +0.005 A 
ATOM      4  C   UNL     1      -1.983 -10.280  -3.281  0.00  0.00    +0.026 A 
ATOM      5  C   UNL     1      -1.825  -8.940  -2.940  0.00  0.00    +0.050 A 
ATOM      6  C   UNL     1      -0.913  -8.591  -1.933  0.00  0.00    +0.029 A 
ATOM      7  C   UNL     1      -0.177  -9.580  -1.285  0.00  0.00    +0.015 A 
ATOM      8  C   UNL     1      -0.975  -7.125  -1.807  0.00  0.00    +0.137 A 
ATOM      9  C   UNL     1      -1.925  -6.686  -2.752  0.00  0.00    +0.162 A 
ATOM     10  N   UNL     1      -2.419  -7.782  -3.415  0.00  0.00    -0.338 N 
ATOM     11  H   UNL     1      -3.171  -7.837  -4.215  0.00  0.00    +0.167 HD
ATOM     12  N   UNL     1      -2.175  -5.383  -2.837  0.00  0.00    -0.201 NA
ATOM     13  C   UNL     1      -1.520  -4.543  -2.046  0.00  0.00    +0.212 A 
ATOM     14  N   UNL     1      -0.629  -4.981  -1.163  0.00  0.00    -0.122 NA
ATOM     15  N   UNL     1      -0.359  -6.236  -1.042  0.00  0.00    -0.143 NA
ENDROOT
BRANCH  13  16
ATOM     16  S   UNL     1      -1.845  -2.815  -2.162  0.00  0.00    -0.075 S 
BRANCH  16  17
ATOM     17  C   UNL     1      -0.715  -2.197  -0.890  0.00  0.00    +0.173 C 
BRANCH  17  18
ATOM     18  C   UNL     1      -0.823  -0.696  -0.809  0.00  0.00    +0.230 C 
ATOM     19  O   UNL     1      -1.658  -0.112  -1.466  0.00  0.00    -0.274 OA
ATOM     20  N   UNL     1       0.009  -0.003  -0.006  0.00  0.00    -0.270 N 
ATOM     21  C   UNL     1       0.935  -0.704   0.894  0.00  0.00    +0.114 C 
ATOM     22  C   UNL     1       0.875  -0.011   2.261  0.00  0.00    +0.024 C 
ATOM     23  C   UNL     1       1.370   1.427   2.107  0.00  0.00    +0.038 C 
ATOM     24  C   UNL     1       0.644   2.117   0.983  0.00  0.00    -0.026 A 
ATOM     25  C   UNL     1       0.005   1.399  -0.016  0.00  0.00    +0.039 A 
ATOM     26  C   UNL     1      -0.651   2.067  -1.043  0.00  0.00    +0.024 A 
ATOM     27  C   UNL     1      -0.669   3.447  -1.068  0.00  0.00    +0.002 A 
ATOM     28  C   UNL     1      -0.033   4.164  -0.071  0.00  0.00    +0.000 A 
ATOM     29  C   UNL     1       0.620   3.501   0.950  0.00  0.00    +0.005 A 
ENDBRANCH  17  18
ENDBRANCH  16  17
ENDBRANCH  13  16
TORSDOF 3
