REMARK  Name = ZINC08962313
REMARK  5 active torsions:
REMARK  status: ('A' for Active; 'I' for Inactive)
REMARK    1  A    between atoms: C_1  and  C_2
REMARK    2  A    between atoms: C_2  and  C_24
REMARK    3  A    between atoms: C_8  and  N_14
REMARK    4  A    between atoms: N_14  and  S_15
REMARK    5  A    between atoms: S_15  and  C_18
REMARK                            x       y       z     vdW  Elec       q    Type
REMARK                         _______ _______ _______ _____ _____    ______ ____
ROOT
ATOM      1  C   UNL     1       0.003   1.484   0.357  0.00  0.00    +0.035 C 
ATOM      2  C   UNL     1       0.002  -0.004   0.002  0.00  0.00    +0.063 C 
ATOM      3  C   UNL     1       0.575  -0.186  -1.397  0.00  0.00    +0.254 C 
ATOM      4  O   UNL     1       0.908  -1.545  -1.654  0.00  0.00    -0.489 OA
ATOM      5  C   UNL     1       0.004  -2.487  -1.281  0.00  0.00    +0.133 A 
ATOM      6  C   UNL     1      -0.766  -3.147  -2.223  0.00  0.00    +0.048 A 
ATOM      7  C   UNL     1      -1.683  -4.099  -1.821  0.00  0.00    +0.028 A 
ATOM      8  C   UNL     1      -1.840  -4.401  -0.472  0.00  0.00    +0.049 A 
ATOM      9  C   UNL     1      -1.075  -3.749   0.481  0.00  0.00    +0.041 A 
ATOM     10  C   UNL     1      -0.147  -2.790   0.081  0.00  0.00    +0.080 A 
ATOM     11  C   UNL     1       0.692  -2.083   1.068  0.00  0.00    +0.248 C 
ATOM     12  O   UNL     1       1.278  -2.700   1.937  0.00  0.00    -0.270 OA
ATOM     13  N   UNL     1       0.799  -0.735   0.989  0.00  0.00    -0.303 N 
ATOM     14  C   UNL     1      -1.435  -0.527   0.029  0.00  0.00    +0.035 C 
ATOM     15  H   UNL     1       1.400  -0.257   1.581  0.00  0.00    +0.150 HD
ENDROOT
BRANCH   8  16
ATOM     16  N   UNL     1      -2.774  -5.365  -0.077  0.00  0.00    -0.220 N 
ATOM     17  H   UNL     1      -3.363  -5.192   0.674  0.00  0.00    +0.173 HD
BRANCH  16  18
ATOM     18  S   UNL     1      -2.874  -6.804  -0.892  0.00  0.00    +0.046 S 
ATOM     19  O   UNL     1      -3.923  -7.513  -0.247  0.00  0.00    -0.155 OA
ATOM     20  O   UNL     1      -2.981  -6.438  -2.261  0.00  0.00    -0.155 OA
BRANCH  18  21
ATOM     21  C   UNL     1      -1.285  -7.624  -0.586  0.00  0.00    +0.151 C 
ATOM     22  C   UNL     1      -0.143  -6.697  -1.005  0.00  0.00    +0.028 C 
ATOM     23  C   UNL     1       1.197  -7.388  -0.747  0.00  0.00    +0.002 C 
ATOM     24  C   UNL     1       1.267  -8.683  -1.559  0.00  0.00    +0.000 C 
ATOM     25  C   UNL     1       0.125  -9.611  -1.140  0.00  0.00    +0.002 C 
ATOM     26  C   UNL     1      -1.215  -8.919  -1.398  0.00  0.00    +0.028 C 
ENDBRANCH  18  21
ENDBRANCH  16  18
ENDBRANCH   8  16
TORSDOF 3
