REMARK  Name = ZINC08454094
REMARK  6 active torsions:
REMARK  status: ('A' for Active; 'I' for Inactive)
REMARK    1  A    between atoms: C_1  and  C_2
REMARK    2  A    between atoms: C_5  and  C_8
REMARK    3  A    between atoms: C_19  and  S_24
REMARK    4  A    between atoms: S_24  and  N_27
REMARK    5  A    between atoms: N_27  and  C_28
REMARK    6  A    between atoms: C_33  and  C_34
REMARK                            x       y       z     vdW  Elec       q    Type
REMARK                         _______ _______ _______ _____ _____    ______ ____
ROOT
ATOM      1  C   UNL     1       0.141  -4.026   0.458  0.00  0.00    +0.105 C 
ATOM      2  C   UNL     1      -1.269  -4.512   0.623  0.00  0.00    +0.029 C 
ATOM      3  C   UNL     1      -2.017  -3.765   1.746  0.00  0.00    +0.033 C 
ATOM      4  C   UNL     1      -3.042  -4.771   2.227  0.00  0.00    -0.030 C 
ATOM      5  C   UNL     1      -2.728  -5.979   1.841  0.00  0.00    -0.023 C 
ATOM      6  C   UNL     1      -1.430  -5.961   1.072  0.00  0.00    +0.049 C 
ATOM      7  C   UNL     1      -0.336  -6.418   1.996  0.00  0.00    -0.018 A 
ATOM      8  C   UNL     1      -0.525  -7.594   2.708  0.00  0.00    +0.034 A 
ATOM      9  C   UNL     1       0.446  -8.049   3.578  0.00  0.00    +0.109 A 
ATOM     10  C   UNL     1       1.617  -7.334   3.747  0.00  0.00    +0.030 A 
ATOM     11  C   UNL     1       1.816  -6.166   3.039  0.00  0.00    +0.025 A 
ATOM     12  C   UNL     1       0.840  -5.708   2.158  0.00  0.00    +0.031 A 
ATOM     13  N   UNL     1       1.077  -4.563   1.423  0.00  0.00    -0.336 N 
ATOM     14  H   UNL     1       1.904  -4.082   1.585  0.00  0.00    +0.147 HD
ENDROOT
BRANCH   1  19
ATOM     15  C   UNL     1       0.151   1.735   0.903  0.00  0.00    +0.044 C 
ATOM     16  C   UNL     1       0.149   0.233   0.787  0.00  0.00    -0.050 A 
ATOM     17  C   UNL     1       0.136  -0.364  -0.460  0.00  0.00    +0.004 A 
ATOM     18  C   UNL     1       0.133  -1.742  -0.566  0.00  0.00    +0.006 A 
ATOM     19  C   UNL     1       0.144  -2.524   0.574  0.00  0.00    -0.027 A 
ATOM     20  C   UNL     1       0.158  -1.927   1.821  0.00  0.00    +0.006 A 
ATOM     21  C   UNL     1       0.165  -0.549   1.927  0.00  0.00    +0.004 A 
ENDBRANCH   1  19
BRANCH   9  22
ATOM     22  S   UNL     1       0.191  -9.544   4.475  0.00  0.00    +0.072 S 
ATOM     23  O   UNL     1       1.014  -9.469   5.631  0.00  0.00    -0.150 OA
ATOM     24  O   UNL     1      -1.214  -9.738   4.551  0.00  0.00    -0.150 OA
BRANCH  22  25
ATOM     25  N   UNL     1       0.790 -10.779   3.548  0.00  0.00    -0.216 N 
ATOM     26  H   UNL     1       0.203 -11.492   3.252  0.00  0.00    +0.174 HD
BRANCH  25  27
ATOM     27  C   UNL     1       2.141 -10.795   3.193  0.00  0.00    +0.052 A 
ATOM     28  C   UNL     1       3.100 -10.329   4.084  0.00  0.00    +0.025 A 
ATOM     29  C   UNL     1       4.435 -10.346   3.731  0.00  0.00    +0.003 A 
ATOM     30  C   UNL     1       4.818 -10.825   2.491  0.00  0.00    +0.020 A 
ATOM     31  C   UNL     1       3.866 -11.289   1.601  0.00  0.00    +0.046 A 
ATOM     32  C   UNL     1       2.528 -11.280   1.951  0.00  0.00    -0.010 A 
ATOM     33  C   UNL     1       1.492 -11.792   0.984  0.00  0.00    +0.047 C 
ATOM     34 CL   UNL     1       4.351 -11.889   0.046  0.00  0.00    -0.083 Cl
ENDBRANCH  25  27
ENDBRANCH  22  25
ENDBRANCH   9  22
TORSDOF 4
