REMARK  Name = ZINC02253822
REMARK  9 active torsions:
REMARK  status: ('A' for Active; 'I' for Inactive)
REMARK    1  A    between atoms: C_1  and  O_2
REMARK    2  A    between atoms: O_2  and  C_3
REMARK    3  A    between atoms: C_6  and  C_9
REMARK    4  A    between atoms: C_9  and  C_10
REMARK    5  A    between atoms: C_10  and  N_11
REMARK    6  A    between atoms: C_12  and  C_14
REMARK    7  A    between atoms: N_25  and  N_28
REMARK    8  A    between atoms: C_26  and  N_27
REMARK    9  A    between atoms: C_29  and  C_30
REMARK                            x       y       z     vdW  Elec       q    Type
REMARK                         _______ _______ _______ _____ _____    ______ ____
ROOT
ATOM      1  C   UNL     1       1.248  -6.284  -2.652  0.00  0.00    +0.105 A 
ATOM      2  C   UNL     1       0.078  -7.178  -2.639  0.00  0.00    +0.124 A 
ATOM      3  C   UNL     1       0.628  -8.537  -2.656  0.00  0.00    +0.183 A 
ATOM      4  N   UNL     1      -0.192  -9.566  -2.652  0.00  0.00    -0.224 NA
ATOM      5  C   UNL     1      -1.516  -9.365  -2.638  0.00  0.00    +0.092 A 
ATOM      6  C   UNL     1      -2.400 -10.460  -2.634  0.00  0.00    +0.030 A 
ATOM      7  C   UNL     1      -3.743 -10.246  -2.621  0.00  0.00    +0.002 A 
ATOM      8  C   UNL     1      -4.263  -8.952  -2.610  0.00  0.00    +0.002 A 
ATOM      9  C   UNL     1      -3.440  -7.869  -2.613  0.00  0.00    +0.030 A 
ATOM     10  C   UNL     1      -2.045  -8.050  -2.627  0.00  0.00    +0.090 A 
ATOM     11  N   UNL     1      -1.226  -6.991  -2.631  0.00  0.00    -0.241 NA
ATOM     12  N   UNL     1       2.004  -8.415  -2.669  0.00  0.00    -0.198 N 
ATOM     13  C   UNL     1       2.372  -7.103  -2.666  0.00  0.00    +0.134 A 
ENDROOT
BRANCH   1  15
ATOM     14  N   UNL     1       1.234  -4.155  -1.474  0.00  0.00    -0.311 N 
ATOM     15  C   UNL     1       1.231  -4.823  -2.644  0.00  0.00    +0.250 C 
ATOM     16  O   UNL     1       1.214  -4.208  -3.696  0.00  0.00    -0.270 OA
ATOM     17  H   UNL     1       1.248  -4.644  -0.636  0.00  0.00    +0.149 HD
BRANCH  14  18
ATOM     18  C   UNL     1       1.217  -2.690  -1.466  0.00  0.00    +0.109 C 
BRANCH  18  19
ATOM     19  C   UNL     1       1.226  -2.187  -0.021  0.00  0.00    +0.054 C 
BRANCH  19  23
ATOM     20  C   UNL     1       1.176   2.086   0.002  0.00  0.00    +0.120 A 
ATOM     21  C   UNL     1      -0.017   1.377   0.010  0.00  0.00    +0.046 A 
ATOM     22  C   UNL     1       0.002  -0.004   0.002  0.00  0.00    +0.007 A 
ATOM     23  C   UNL     1       1.208  -0.680  -0.013  0.00  0.00    -0.046 A 
ATOM     24  C   UNL     1       2.398   0.024  -0.021  0.00  0.00    +0.007 A 
ATOM     25  C   UNL     1       2.385   1.405  -0.013  0.00  0.00    +0.046 A 
BRANCH  20  27
ATOM     26  C   UNL     1       2.426   4.108   0.001  0.00  0.00    +0.277 C 
ATOM     27  O   UNL     1       1.160   3.445   0.009  0.00  0.00    -0.495 OA
ENDBRANCH  20  27
ENDBRANCH  19  23
ENDBRANCH  18  19
ENDBRANCH  14  18
ENDBRANCH   1  15
BRANCH  13  28
ATOM     28  N   UNL     1       3.667  -6.653  -2.677  0.00  0.00    -0.342 N 
ATOM     29  H   UNL     1       3.850  -5.700  -2.675  0.00  0.00    +0.144 HD
ATOM     30  H   UNL     1       4.401  -7.287  -2.687  0.00  0.00    +0.144 HD
ENDBRANCH  13  28
BRANCH  12  31
ATOM     31  N   UNL     1       2.899  -9.493  -2.682  0.00  0.00    -0.171 NA
ATOM     32  C   UNL     1       3.324  -9.997  -1.564  0.00  0.00    +0.141 C 
BRANCH  32  33
ATOM     33  C   UNL     1       4.266 -11.132  -1.578  0.00  0.00    -0.005 A 
ATOM     34  C   UNL     1       4.698 -11.670  -2.792  0.00  0.00    +0.011 A 
ATOM     35  C   UNL     1       5.583 -12.728  -2.798  0.00  0.00    +0.020 A 
ATOM     36  C   UNL     1       6.035 -13.263  -1.604  0.00  0.00    +0.041 A 
ATOM     37  C   UNL     1       5.607 -12.738  -0.396  0.00  0.00    +0.020 A 
ATOM     38  C   UNL     1       4.726 -11.677  -0.376  0.00  0.00    +0.011 A 
ATOM     39 CL   UNL     1       7.144 -14.599  -1.620  0.00  0.00    -0.084 Cl
ENDBRANCH  32  33
ENDBRANCH  12  31
TORSDOF 8
