REMARK  Name = ZINC39280122
REMARK  9 active torsions:
REMARK  status: ('A' for Active; 'I' for Inactive)
REMARK    1  A    between atoms: C_1  and  C_2
REMARK    2  A    between atoms: C_4  and  C_16
REMARK    3  A    between atoms: C_6  and  C_14
REMARK    4  A    between atoms: C_7  and  N_13
REMARK    5  A    between atoms: C_19  and  O_32
REMARK    6  A    between atoms: C_20  and  C_22
REMARK    7  A    between atoms: C_22  and  O_23
REMARK    8  A    between atoms: O_23  and  C_24
REMARK    9  A    between atoms: O_32  and  C_33
REMARK                            x       y       z     vdW  Elec       q    Type
REMARK                         _______ _______ _______ _____ _____    ______ ____
ROOT
ATOM      1  C   UNL     1      -3.201  -0.585   1.227  0.00  0.00    -0.034 A 
ATOM      2  C   UNL     1      -3.148  -1.767   1.942  0.00  0.00    +0.008 A 
ATOM      3  C   UNL     1      -3.757  -1.855   3.179  0.00  0.00    +0.046 A 
ATOM      4  C   UNL     1      -4.420  -0.756   3.704  0.00  0.00    +0.126 A 
ATOM      5  C   UNL     1      -4.471   0.429   2.985  0.00  0.00    +0.032 A 
ATOM      6  C   UNL     1      -3.857   0.514   1.751  0.00  0.00    +0.015 A 
ENDROOT
BRANCH   1  10
ATOM      7  C   UNL     1      -0.018   1.503   0.010  0.00  0.00    +0.067 C 
ATOM      8  C   UNL     1       0.002  -0.004   0.002  0.00  0.00    +0.066 C 
ATOM      9  C   UNL     1      -1.064  -0.768   0.003  0.00  0.00    +0.030 C 
ATOM     10  C   UNL     1      -2.537  -0.492  -0.122  0.00  0.00    +0.098 C 
ATOM     11  C   UNL     1      -3.075  -1.565  -1.050  0.00  0.00    +0.097 C 
ATOM     12  C   UNL     1      -2.317  -2.612  -1.438  0.00  0.00    +0.195 C 
ATOM     13  O   UNL     1      -1.033  -2.841  -1.107  0.00  0.00    -0.448 OA
ATOM     14  C   UNL     1      -0.528  -2.199   0.066  0.00  0.00    +0.343 C 
ATOM     15  N   UNL     1       0.921  -1.985   0.002  0.00  0.00    -0.138 NA
ATOM     16  N   UNL     1       1.127  -0.765  -0.013  0.00  0.00    -0.155 NA
BRANCH  12  17
ATOM     17  N   UNL     1      -2.917  -3.538  -2.254  0.00  0.00    -0.329 N 
ATOM     18  H   UNL     1      -3.842  -3.421  -2.523  0.00  0.00    +0.145 HD
ATOM     19  H   UNL     1      -2.417  -4.310  -2.562  0.00  0.00    +0.145 HD
ENDBRANCH  12  17
BRANCH  11  20
ATOM     20  C   UNL     1      -4.422  -1.466  -1.525  0.00  0.00    +0.101 C 
ATOM     21  N   UNL     1      -5.491  -1.387  -1.903  0.00  0.00    -0.191 NA
ENDBRANCH  11  20
ENDBRANCH   1  10
BRANCH   4  22
ATOM     22  O   UNL     1      -5.020  -0.840   4.921  0.00  0.00    -0.495 OA
ATOM     23  C   UNL     1      -4.928  -2.091   5.605  0.00  0.00    +0.277 C 
ENDBRANCH   4  22
BRANCH   5  24
ATOM     24  C   UNL     1      -5.192   1.625   3.553  0.00  0.00    +0.268 C 
BRANCH  24  25
ATOM     25  O   UNL     1      -5.104   2.715   2.632  0.00  0.00    -0.486 OA
BRANCH  25  26
ATOM     26  C   UNL     1      -5.707   3.878   2.994  0.00  0.00    +0.139 A 
ATOM     27  C   UNL     1      -6.363   3.971   4.212  0.00  0.00    +0.048 A 
ATOM     28  C   UNL     1      -6.974   5.155   4.579  0.00  0.00    +0.019 A 
ATOM     29  C   UNL     1      -6.933   6.248   3.731  0.00  0.00    +0.019 A 
ATOM     30  C   UNL     1      -6.279   6.158   2.515  0.00  0.00    +0.039 A 
ATOM     31  C   UNL     1      -5.661   4.978   2.147  0.00  0.00    +0.084 A 
ATOM     32 CL   UNL     1      -4.835   4.867   0.624  0.00  0.00    -0.080 Cl
ATOM     33 BR   UNL     1      -7.771   7.866   4.236  0.00  0.00    -0.050 Br
ENDBRANCH  25  26
ENDBRANCH  24  25
ENDBRANCH   5  24
TORSDOF 7
