REMARK  Name = ZINC36207632
REMARK  15 active torsions:
REMARK  status: ('A' for Active; 'I' for Inactive)
REMARK    1  A    between atoms: C_1  and  C_2
REMARK    2  A    between atoms: C_5  and  C_8
REMARK    3  A    between atoms: C_17  and  C_19
REMARK    4  A    between atoms: C_19  and  N_20
REMARK    5  A    between atoms: N_20  and  C_21
REMARK    6  A    between atoms: N_20  and  C_33
REMARK    7  A    between atoms: C_21  and  C_22
REMARK    8  A    between atoms: C_22  and  C_24
REMARK    9  A    between atoms: C_22  and  O_32
REMARK   10  A    between atoms: C_24  and  O_25
REMARK   11  A    between atoms: O_25  and  C_26
REMARK   12  A    between atoms: C_26  and  C_27
REMARK   13  A    between atoms: C_33  and  C_34
REMARK   14  A    between atoms: C_34  and  C_35
REMARK   15  A    between atoms: C_34  and  C_36
REMARK                            x       y       z     vdW  Elec       q    Type
REMARK                         _______ _______ _______ _____ _____    ______ ____
ROOT
ATOM      1  C   UNL     1       3.553  -8.023   3.109  0.00  0.00    -0.003 C 
ENDROOT
BRANCH   1  11
ATOM      2  C   UNL     1       9.004  -7.667   1.480  0.00  0.00    +0.004 A 
ATOM      3  C   UNL     1       9.383  -8.711   0.705  0.00  0.00    +0.056 A 
ATOM      4  S   UNL     1       7.903  -9.698   0.589  0.00  0.00    -0.076 S 
ATOM      5  C   UNL     1       6.820  -8.695   1.574  0.00  0.00    +0.116 A 
ATOM      6  C   UNL     1       7.633  -7.622   1.975  0.00  0.00    +0.080 A 
ATOM      7  C   UNL     1       7.000  -6.640   2.803  0.00  0.00    +0.260 A 
ATOM      8  O   UNL     1       7.623  -5.669   3.197  0.00  0.00    -0.267 OA
ATOM      9  N   UNL     1       5.707  -6.806   3.139  0.00  0.00    -0.312 N 
ATOM     10  H   UNL     1       5.274  -6.144   3.700  0.00  0.00    +0.170 HD
ATOM     11  C   UNL     1       4.999  -7.880   2.708  0.00  0.00    +0.094 A 
ATOM     12  N   UNL     1       5.545  -8.787   1.942  0.00  0.00    -0.229 NA
BRANCH   2  17
ATOM     13  C   UNL     1      12.743  -3.496   2.814  0.00  0.00    +0.044 C 
ATOM     14  C   UNL     1      11.764  -4.587   2.465  0.00  0.00    -0.050 A 
ATOM     15  C   UNL     1      12.117  -5.913   2.645  0.00  0.00    +0.004 A 
ATOM     16  C   UNL     1      11.226  -6.917   2.327  0.00  0.00    +0.009 A 
ATOM     17  C   UNL     1       9.966  -6.593   1.824  0.00  0.00    -0.017 A 
ATOM     18  C   UNL     1       9.616  -5.255   1.645  0.00  0.00    +0.009 A 
ATOM     19  C   UNL     1      10.514  -4.260   1.971  0.00  0.00    +0.004 A 
ENDBRANCH   2  17
ENDBRANCH   1  11
BRANCH   1  20
ATOM     20  N   UNL     1       3.038  -9.313   2.631  0.00  0.00    +0.386 N 
ATOM     21  H   UNL     1       3.213  -9.400   1.641  0.00  0.00    -0.081 HD
BRANCH  20  22
ATOM     22  C   UNL     1       3.712 -10.405   3.345  0.00  0.00    -0.044 C 
BRANCH  22  23
ATOM     23  C   UNL     1       3.268 -11.748   2.761  0.00  0.00    +0.124 C 
BRANCH  23  24
ATOM     24  O   UNL     1       3.713 -11.850   1.407  0.00  0.00    -0.391 OA
ATOM     25  H   UNL     1       4.673 -11.798   1.304  0.00  0.00    +0.210 HD
ENDBRANCH  23  24
BRANCH  23  26
ATOM     26  C   UNL     1       3.873 -12.887   3.584  0.00  0.00    +0.189 C 
BRANCH  26  27
ATOM     27  O   UNL     1       3.365 -14.137   3.112  0.00  0.00    -0.370 OA
BRANCH  27  28
ATOM     28  C   UNL     1       3.870 -15.273   3.817  0.00  0.00    +0.234 C 
BRANCH  28  29
ATOM     29  C   UNL     1       3.272 -16.529   3.239  0.00  0.00    +0.130 A 
ATOM     30  C   UNL     1       3.792 -17.258   2.235  0.00  0.00    +0.047 A 
ATOM     31  C   UNL     1       2.911 -18.343   2.018  0.00  0.00    +0.041 A 
ATOM     32  C   UNL     1       1.906 -18.212   2.903  0.00  0.00    +0.195 A 
ATOM     33  O   UNL     1       2.133 -17.115   3.644  0.00  0.00    -0.465 OA
ENDBRANCH  28  29
ENDBRANCH  27  28
ENDBRANCH  26  27
ENDBRANCH  23  26
ENDBRANCH  22  23
ENDBRANCH  20  22
BRANCH  20  34
ATOM     34  C   UNL     1       1.592  -9.385   2.880  0.00  0.00    -0.075 C 
BRANCH  34  35
ATOM     35  C   UNL     1       0.873  -8.345   2.019  0.00  0.00    -0.034 C 
ATOM     36  C   UNL     1       1.038  -8.704   0.541  0.00  0.00    +0.005 C 
ATOM     37  C   UNL     1      -0.614  -8.326   2.376  0.00  0.00    +0.005 C 
ENDBRANCH  34  35
ENDBRANCH  20  34
ENDBRANCH   1  20
TORSDOF 12
