REMARK  Name = ZINC58870605
REMARK  9 active torsions:
REMARK  status: ('A' for Active; 'I' for Inactive)
REMARK    1  A    between atoms: C_1  and  C_2
REMARK    2  A    between atoms: C_2  and  C_26
REMARK    3  A    between atoms: N_3  and  N_4
REMARK    4  A    between atoms: C_5  and  S_7
REMARK    5  A    between atoms: S_7  and  C_8
REMARK    6  A    between atoms: N_13  and  C_16
REMARK    7  A    between atoms: C_19  and  C_22
REMARK    8  A    between atoms: C_22  and  O_24
REMARK    9  A    between atoms: O_24  and  C_25
REMARK                            x       y       z     vdW  Elec       q    Type
REMARK                         _______ _______ _______ _____ _____    ______ ____
ROOT
ATOM      1  C   UNL     1      -0.001  -0.932   6.232  0.00  0.00    +0.149 C 
ATOM      2  C   UNL     1       0.230  -0.610   7.722  0.00  0.00    +0.120 C 
ATOM      3  C   UNL     1      -1.008  -1.155   8.399  0.00  0.00    +0.228 C 
ATOM      4  O   UNL     1      -1.236  -1.110   9.589  0.00  0.00    -0.275 OA
ATOM      5  N   UNL     1      -1.813  -1.695   7.476  0.00  0.00    -0.209 N 
ATOM      6  C   UNL     1      -1.345  -1.627   6.220  0.00  0.00    +0.240 C 
ATOM      7  O   UNL     1      -1.907  -2.053   5.234  0.00  0.00    -0.274 OA
ENDROOT
BRANCH   5   8
ATOM      8  C   UNL     1      -3.041  -2.284   7.794  0.00  0.00    +0.044 A 
ATOM      9  C   UNL     1      -4.087  -1.496   8.262  0.00  0.00    +0.025 A 
ATOM     10  C   UNL     1      -5.298  -2.072   8.577  0.00  0.00    +0.017 A 
ATOM     11  C   UNL     1      -5.474  -3.450   8.424  0.00  0.00    +0.059 A 
ATOM     12  C   UNL     1      -4.421  -4.238   7.953  0.00  0.00    +0.017 A 
ATOM     13  C   UNL     1      -3.215  -3.654   7.636  0.00  0.00    +0.025 A 
BRANCH  11  14
ATOM     14  C   UNL     1      -6.769  -4.071   8.761  0.00  0.00    +0.339 C 
ATOM     15  O   UNL     1      -7.684  -3.384   9.171  0.00  0.00    -0.245 OA
BRANCH  14  16
ATOM     16  O   UNL     1      -6.938  -5.400   8.613  0.00  0.00    -0.464 OA
ATOM     17  C   UNL     1      -8.218  -5.933   8.957  0.00  0.00    +0.280 C 
ENDBRANCH  14  16
ENDBRANCH  11  14
ENDBRANCH   5   8
BRANCH   1  18
ATOM     18  S   UNL     1      -0.063   0.593   5.252  0.00  0.00    -0.078 S 
BRANCH  18  20
ATOM     19  N   UNL     1      -0.324   0.894   2.606  0.00  0.00    -0.259 N 
ATOM     20  C   UNL     1      -0.245   0.026   3.593  0.00  0.00    +0.146 C 
ATOM     21  N   UNL     1      -0.305  -1.322   3.330  0.00  0.00    -0.338 N 
ATOM     22  H   UNL     1      -0.406  -1.634   2.417  0.00  0.00    +0.144 HD
ATOM     23  H   UNL     1      -0.248  -1.961   4.057  0.00  0.00    +0.144 HD
ATOM     24  H   UNL     1      -0.281   1.845   2.791  0.00  0.00    +0.191 HD
BRANCH  19  27
ATOM     25  C   UNL     1      -0.481   2.783   0.595  0.00  0.00    +0.068 C 
ATOM     26  C   UNL     1      -0.547   1.306   0.306  0.00  0.00    +0.072 C 
ATOM     27  N   UNL     1      -0.469   0.444   1.287  0.00  0.00    -0.176 NA
BRANCH  26  28
ATOM     28  C   UNL     1      -0.699   0.835  -1.071  0.00  0.00    +0.036 A 
ATOM     29  C   UNL     1      -0.785  -0.464  -1.546  0.00  0.00    +0.019 A 
ATOM     30  C   UNL     1      -0.926  -0.655  -2.901  0.00  0.00    +0.028 A 
ATOM     31  C   UNL     1      -0.976   0.426  -3.724  0.00  0.00    +0.079 A 
ATOM     32  S   UNL     1      -0.828   1.786  -2.577  0.00  0.00    -0.076 S 
ATOM     33 CL   UNL     1      -1.147   0.472  -5.451  0.00  0.00    -0.076 Cl
ENDBRANCH  26  28
ENDBRANCH  19  27
ENDBRANCH  18  20
ENDBRANCH   1  18
TORSDOF 7
