REMARK  Name = ZINC24766183
REMARK  10 active torsions:
REMARK  status: ('A' for Active; 'I' for Inactive)
REMARK    1  A    between atoms: C_1  and  C_2
REMARK    2  A    between atoms: C_2  and  N_3
REMARK    3  A    between atoms: N_3  and  C_4
REMARK    4  A    between atoms: N_3  and  C_18
REMARK    5  A    between atoms: C_4  and  C_5
REMARK    6  A    between atoms: N_7  and  C_8
REMARK    7  A    between atoms: C_11  and  N_14
REMARK    8  A    between atoms: C_15  and  C_17
REMARK    9  A    between atoms: C_18  and  C_19
REMARK   10  A    between atoms: C_29  and  C_31
REMARK                            x       y       z     vdW  Elec       q    Type
REMARK                         _______ _______ _______ _____ _____    ______ ____
ROOT
ATOM      1  N   UNL     1      -1.649   5.836  -1.193  0.00  0.00    +0.391 N 
ATOM      2  H   UNL     1      -1.000   5.764  -0.308  0.00  0.00    -0.080 HD
ENDROOT
BRANCH   1   4
ATOM      3  C   UNL     1      -1.996   7.034  -3.301  0.00  0.00    -0.017 C 
ATOM      4  C   UNL     1      -1.077   6.848  -2.092  0.00  0.00    -0.081 C 
ENDBRANCH   1   4
BRANCH   1   5
ATOM      5  C   UNL     1      -1.682   4.517  -1.838  0.00  0.00    +0.020 C 
BRANCH   5   6
ATOM      6  C   UNL     1      -0.273   4.035  -2.068  0.00  0.00    +0.201 C 
ATOM      7  O   UNL     1       0.666   4.724  -1.729  0.00  0.00    -0.278 OA
ATOM      8  N   UNL     1      -0.056   2.840  -2.652  0.00  0.00    -0.287 N 
ATOM      9  H   UNL     1      -0.905   2.180  -2.886  0.00  0.00    +0.155 HD
BRANCH   8  10
ATOM     10  C   UNL     1       1.250   2.437  -2.960  0.00  0.00    +0.033 A 
ATOM     11  C   UNL     1       1.494   1.692  -4.106  0.00  0.00    +0.025 A 
ATOM     12  C   UNL     1       2.780   1.291  -4.407  0.00  0.00    +0.025 A 
ATOM     13  C   UNL     1       3.829   1.632  -3.563  0.00  0.00    +0.033 A 
ATOM     14  C   UNL     1       3.585   2.377  -2.417  0.00  0.00    +0.025 A 
ATOM     15  C   UNL     1       2.299   2.779  -2.117  0.00  0.00    +0.025 A 
BRANCH  13  16
ATOM     16  N   UNL     1       5.134   1.224  -3.869  0.00  0.00    -0.286 N 
ATOM     17  C   UNL     1       5.997   0.927  -2.877  0.00  0.00    +0.214 C 
ATOM     18  O   UNL     1       5.617   0.918  -1.725  0.00  0.00    -0.276 OA
ATOM     19  C   UNL     1       7.434   0.606  -3.198  0.00  0.00    +0.109 C 
ATOM     20  H   UNL     1       5.455   1.147  -4.918  0.00  0.00    +0.155 HD
ENDBRANCH  13  16
ENDBRANCH   8  10
ENDBRANCH   5   6
ENDBRANCH   1   5
BRANCH   1  21
ATOM     21  C   UNL     1      -2.988   6.234  -0.738  0.00  0.00    +0.019 C 
BRANCH  21  22
ATOM     22  C   UNL     1      -2.869   7.369   0.246  0.00  0.00    +0.200 C 
ATOM     23  O   UNL     1      -1.776   7.805   0.538  0.00  0.00    -0.278 OA
ATOM     24  N   UNL     1      -3.977   7.900   0.800  0.00  0.00    -0.291 N 
ATOM     25  C   UNL     1      -5.300   7.322   0.522  0.00  0.00    +0.114 C 
ATOM     26  C   UNL     1      -5.860   6.755   1.841  0.00  0.00    +0.062 C 
ATOM     27  C   UNL     1      -5.595   7.738   2.935  0.00  0.00    -0.003 A 
ATOM     28  C   UNL     1      -4.725   8.784   2.926  0.00  0.00    -0.012 A 
ATOM     29  C   UNL     1      -4.661   9.554   4.087  0.00  0.00    +0.013 A 
ATOM     30  C   UNL     1      -5.442   9.246   5.147  0.00  0.00    +0.046 A 
ATOM     31  S   UNL     1      -6.331   7.817   4.547  0.00  0.00    -0.101 S 
ATOM     32  C   UNL     1      -3.880   9.068   1.686  0.00  0.00    +0.144 C 
BRANCH  32  33
ATOM     33  C   UNL     1      -2.443   9.288   2.085  0.00  0.00    +0.015 A 
ATOM     34  C   UNL     1      -1.680  10.399   1.946  0.00  0.00    +0.013 A 
ATOM     35  C   UNL     1      -0.371  10.373   2.391  0.00  0.00    +0.008 A 
ATOM     36  C   UNL     1       0.110   9.237   2.953  0.00  0.00    +0.045 A 
ATOM     37  S   UNL     1      -1.309   8.155   2.871  0.00  0.00    -0.099 S 
ENDBRANCH  32  33
ENDBRANCH  21  22
ENDBRANCH   1  21
TORSDOF 8
