REMARK  Name = ZINC00237111
REMARK  7 active torsions:
REMARK  status: ('A' for Active; 'I' for Inactive)
REMARK    1  A    between atoms: C_1  and  C_2
REMARK    2  A    between atoms: C_6  and  N_8
REMARK    3  A    between atoms: N_8  and  C_9
REMARK    4  A    between atoms: C_9  and  C_11
REMARK    5  A    between atoms: C_9  and  C_12
REMARK    6  A    between atoms: N_14  and  N_15
REMARK    7  A    between atoms: C_16  and  C_17
REMARK                            x       y       z     vdW  Elec       q    Type
REMARK                         _______ _______ _______ _____ _____    ______ ____
ROOT
ATOM      1  C   UNL     1       1.447   7.794   0.031  0.00  0.00    +0.252 C 
ATOM      2  O   UNL     1       0.243   7.950   0.044  0.00  0.00    -0.272 OA
ATOM      3  N   UNL     1       1.966   6.551   0.019  0.00  0.00    -0.205 N 
ATOM      4  H   UNL     1       2.928   6.426   0.009  0.00  0.00    +0.177 HD
ENDROOT
BRANCH   1   5
ATOM      5  C   UNL     1       2.361   8.992   0.029  0.00  0.00    +0.155 C 
ATOM      6  C   UNL     1       3.256   8.953   1.269  0.00  0.00    +0.038 C 
BRANCH   5   7
ATOM      7  N   UNL     1       1.559  10.219   0.044  0.00  0.00    -0.333 N 
ATOM      8  H   UNL     1       0.660  10.206   0.408  0.00  0.00    +0.147 HD
BRANCH   7  14
ATOM      9  C   UNL     1       1.036  15.005  -0.943  0.00  0.00    +0.044 C 
ATOM     10  C   UNL     1       1.858  13.742  -0.957  0.00  0.00    -0.049 A 
ATOM     11  C   UNL     1       3.141  13.758  -1.475  0.00  0.00    +0.003 A 
ATOM     12  C   UNL     1       3.899  12.602  -1.490  0.00  0.00    +0.002 A 
ATOM     13  C   UNL     1       3.379  11.427  -0.982  0.00  0.00    +0.023 A 
ATOM     14  C   UNL     1       2.090  11.406  -0.466  0.00  0.00    +0.028 A 
ATOM     15  C   UNL     1       1.331  12.569  -0.453  0.00  0.00    +0.026 A 
ENDBRANCH   7  14
ENDBRANCH   5   7
ENDBRANCH   1   5
BRANCH   3  16
ATOM     16  N   UNL     1       1.116   5.437   0.021  0.00  0.00    -0.188 NA
ATOM     17  C   UNL     1       1.616   4.238   0.009  0.00  0.00    +0.140 C 
BRANCH  17  18
ATOM     18  C   UNL     1       0.723   3.068   0.012  0.00  0.00    +0.020 A 
ATOM     19  C   UNL     1       1.096   1.760   0.001  0.00  0.00    +0.093 A 
ATOM     20  N   UNL     1      -0.011   0.966   0.007  0.00  0.00    -0.360 N 
ATOM     21  H   UNL     1       0.002  -0.004   0.002  0.00  0.00    +0.165 HD
ATOM     22  C   UNL     1      -1.153   1.738   0.016  0.00  0.00    +0.047 A 
ATOM     23  C   UNL     1      -0.751   3.085   0.026  0.00  0.00    +0.008 A 
ATOM     24  C   UNL     1      -1.706   4.098   0.040  0.00  0.00    +0.010 A 
ATOM     25  C   UNL     1      -3.045   3.774   0.051  0.00  0.00    +0.001 A 
ATOM     26  C   UNL     1      -3.443   2.445   0.048  0.00  0.00    +0.002 A 
ATOM     27  C   UNL     1      -2.510   1.432   0.033  0.00  0.00    +0.026 A 
ENDBRANCH  17  18
ENDBRANCH   3  16
TORSDOF 5
