REMARK  Name = ZINC08741860
REMARK  9 active torsions:
REMARK  status: ('A' for Active; 'I' for Inactive)
REMARK    1  A    between atoms: C_1  and  C_2
REMARK    2  A    between atoms: C_5  and  N_8
REMARK    3  A    between atoms: C_9  and  C_11
REMARK    4  A    between atoms: C_11  and  C_12
REMARK    5  A    between atoms: N_16  and  C_30
REMARK    6  A    between atoms: N_18  and  N_19
REMARK    7  A    between atoms: C_20  and  C_21
REMARK    8  A    between atoms: C_22  and  C_23
REMARK    9  A    between atoms: C_33  and  O_36
REMARK                            x       y       z     vdW  Elec       q    Type
REMARK                         _______ _______ _______ _____ _____    ______ ____
ROOT
ATOM      1  C   UNL     1       1.410  -0.383   0.575  0.00  0.00    +0.149 C 
ATOM      2  C   UNL     1      -0.006   0.155   0.452  0.00  0.00    +0.239 C 
ATOM      3  O   UNL     1      -0.978  -0.526   0.702  0.00  0.00    -0.274 OA
ATOM      4  N   UNL     1      -0.112   1.412   0.056  0.00  0.00    -0.217 N 
ATOM      5  C   UNL     1       0.990   2.191  -0.229  0.00  0.00    +0.190 C 
ATOM      6  N   UNL     1       1.017   3.447  -0.630  0.00  0.00    -0.126 NA
ATOM      7  S   UNL     1       2.371   1.099   0.071  0.00  0.00    -0.075 S 
ENDROOT
BRANCH   4   8
ATOM      8  C   UNL     1      -1.391   1.972  -0.084  0.00  0.00    +0.043 A 
ATOM      9  C   UNL     1      -1.975   2.644   0.980  0.00  0.00    +0.027 A 
ATOM     10  C   UNL     1      -3.232   3.199   0.840  0.00  0.00    +0.047 A 
ATOM     11  C   UNL     1      -3.915   3.075  -0.361  0.00  0.00    +0.117 A 
ATOM     12  C   UNL     1      -3.333   2.398  -1.424  0.00  0.00    +0.047 A 
ATOM     13  C   UNL     1      -2.075   1.848  -1.286  0.00  0.00    +0.027 A 
BRANCH  11  14
ATOM     14  O   UNL     1      -5.154   3.617  -0.498  0.00  0.00    -0.507 OA
ATOM     15  H   UNL     1      -5.874   3.019  -0.254  0.00  0.00    +0.292 HD
ENDBRANCH  11  14
ENDBRANCH   4   8
BRANCH   6  16
ATOM     16  N   UNL     1      -0.083   4.111  -0.746  0.00  0.00    -0.155 NA
ATOM     17  C   UNL     1      -0.065   5.328  -1.233  0.00  0.00    +0.135 C 
BRANCH  17  18
ATOM     18  C   UNL     1      -1.249   6.098  -1.252  0.00  0.00    +0.022 C 
ATOM     19  C   UNL     1      -1.258   7.309  -1.853  0.00  0.00    +0.009 C 
BRANCH  19  20
ATOM     20  C   UNL     1      -2.490   8.111  -1.873  0.00  0.00    -0.025 A 
ATOM     21  C   UNL     1      -3.657   7.622  -1.275  0.00  0.00    +0.008 A 
ATOM     22  C   UNL     1      -4.807   8.383  -1.293  0.00  0.00    +0.001 A 
ATOM     23  C   UNL     1      -4.812   9.622  -1.910  0.00  0.00    +0.000 A 
ATOM     24  C   UNL     1      -3.664  10.110  -2.508  0.00  0.00    +0.001 A 
ATOM     25  C   UNL     1      -2.504   9.365  -2.494  0.00  0.00    +0.008 A 
ENDBRANCH  19  20
ENDBRANCH  17  18
ENDBRANCH   6  16
BRANCH   1  26
ATOM     26  C   UNL     1       1.727  -0.785   2.017  0.00  0.00    +0.120 C 
BRANCH  26  28
ATOM     27  N   UNL     1       3.583  -1.861   3.248  0.00  0.00    -0.285 N 
ATOM     28  C   UNL     1       3.090  -1.425   2.072  0.00  0.00    +0.219 C 
ATOM     29  O   UNL     1       3.744  -1.547   1.058  0.00  0.00    -0.275 OA
ATOM     30  H   UNL     1       3.036  -1.821   4.048  0.00  0.00    +0.155 HD
BRANCH  27  35
ATOM     31  C   UNL     1       8.859  -3.929   3.522  0.00  0.00    +0.044 C 
ATOM     32  C   UNL     1       7.457  -3.380   3.449  0.00  0.00    -0.050 A 
ATOM     33  C   UNL     1       7.161  -2.361   2.563  0.00  0.00    +0.005 A 
ATOM     34  C   UNL     1       5.878  -1.855   2.494  0.00  0.00    +0.023 A 
ATOM     35  C   UNL     1       4.884  -2.371   3.315  0.00  0.00    +0.033 A 
ATOM     36  C   UNL     1       5.186  -3.392   4.207  0.00  0.00    +0.023 A 
ATOM     37  C   UNL     1       6.470  -3.897   4.268  0.00  0.00    +0.005 A 
ENDBRANCH  27  35
ENDBRANCH  26  28
ENDBRANCH   1  26
TORSDOF 8
