REMARK  Name = ZINC36208011
REMARK  13 active torsions:
REMARK  status: ('A' for Active; 'I' for Inactive)
REMARK    1  A    between atoms: C_1  and  C_2
REMARK    2  A    between atoms: C_15  and  C_17
REMARK    3  A    between atoms: C_17  and  N_18
REMARK    4  A    between atoms: N_18  and  C_19
REMARK    5  A    between atoms: N_18  and  C_23
REMARK    6  A    between atoms: C_19  and  C_20
REMARK    7  A    between atoms: C_20  and  O_21
REMARK    8  A    between atoms: O_21  and  C_22
REMARK    9  A    between atoms: C_23  and  C_24
REMARK   10  A    between atoms: C_24  and  C_26
REMARK   11  A    between atoms: C_24  and  O_35
REMARK   12  A    between atoms: C_26  and  O_27
REMARK   13  A    between atoms: O_27  and  C_28
REMARK                            x       y       z     vdW  Elec       q    Type
REMARK                         _______ _______ _______ _____ _____    ______ ____
ROOT
ATOM      1  N   UNL     1       2.180  -8.353   2.661  0.00  0.00    +0.388 N 
ATOM      2  H   UNL     1       1.559  -8.376   3.456  0.00  0.00    -0.081 HD
ENDROOT
BRANCH   1   3
ATOM      3  C   UNL     1       1.398  -8.150   1.434  0.00  0.00    -0.003 C 
BRANCH   3  17
ATOM      4  C   UNL     1      -5.512 -15.311   1.773  0.00  0.00    +0.008 C 
ATOM      5  C   UNL     1      -4.338 -14.392   1.429  0.00  0.00    -0.009 C 
ATOM      6  C   UNL     1      -4.851 -13.160   0.679  0.00  0.00    +0.008 C 
ATOM      7  C   UNL     1      -3.672 -12.366   0.117  0.00  0.00    +0.037 C 
ATOM      8  C   UNL     1      -2.686 -12.079   1.246  0.00  0.00    -0.023 A 
ATOM      9  C   UNL     1      -2.719 -12.806   2.388  0.00  0.00    -0.004 A 
ATOM     10  S   UNL     1      -1.422 -12.139   3.400  0.00  0.00    -0.073 S 
ATOM     11  C   UNL     1      -0.841 -10.892   2.295  0.00  0.00    +0.116 A 
ATOM     12  C   UNL     1      -1.680 -11.036   1.167  0.00  0.00    +0.075 A 
ATOM     13  C   UNL     1      -1.453 -10.141   0.068  0.00  0.00    +0.260 A 
ATOM     14  O   UNL     1      -2.121 -10.183  -0.951  0.00  0.00    -0.267 OA
ATOM     15  N   UNL     1      -0.448  -9.248   0.235  0.00  0.00    -0.312 N 
ATOM     16  H   UNL     1      -0.260  -8.624  -0.484  0.00  0.00    +0.170 HD
ATOM     17  C   UNL     1       0.306  -9.186   1.358  0.00  0.00    +0.094 A 
ATOM     18  N   UNL     1       0.129  -9.987   2.385  0.00  0.00    -0.229 NA
ATOM     19  C   UNL     1      -3.648 -13.932   2.722  0.00  0.00    +0.046 C 
ENDBRANCH   3  17
ENDBRANCH   1   3
BRANCH   1  20
ATOM     20  C   UNL     1       3.137  -7.249   2.819  0.00  0.00    -0.050 C 
BRANCH  20  21
ATOM     21  C   UNL     1       2.375  -5.929   2.954  0.00  0.00    +0.141 C 
BRANCH  21  22
ATOM     22  O   UNL     1       1.568  -5.963   4.134  0.00  0.00    -0.385 OA
ATOM     23  C   UNL     1       0.728  -4.819   4.297  0.00  0.00    +0.193 C 
ENDBRANCH  21  22
ENDBRANCH  20  21
ENDBRANCH   1  20
BRANCH   1  24
ATOM     24  C   UNL     1       2.910  -9.624   2.572  0.00  0.00    -0.043 C 
BRANCH  24  25
ATOM     25  C   UNL     1       3.556  -9.937   3.924  0.00  0.00    +0.135 C 
BRANCH  25  26
ATOM     26  O   UNL     1       4.589  -8.985   4.190  0.00  0.00    -0.390 OA
ATOM     27  H   UNL     1       5.296  -8.978   3.530  0.00  0.00    +0.210 HD
ENDBRANCH  25  26
BRANCH  25  28
ATOM     28  C   UNL     1       4.156 -11.344   3.889  0.00  0.00    +0.258 C 
BRANCH  28  29
ATOM     29  O   UNL     1       4.656 -11.681   5.185  0.00  0.00    -0.489 OA
BRANCH  29  30
ATOM     30  C   UNL     1       5.226 -12.906   5.327  0.00  0.00    +0.121 A 
ATOM     31  C   UNL     1       5.307 -13.765   4.240  0.00  0.00    +0.047 A 
ATOM     32  C   UNL     1       5.886 -15.010   4.387  0.00  0.00    +0.023 A 
ATOM     33  C   UNL     1       6.385 -15.402   5.616  0.00  0.00    +0.041 A 
ATOM     34  C   UNL     1       6.305 -14.547   6.702  0.00  0.00    +0.023 A 
ATOM     35  C   UNL     1       5.732 -13.299   6.558  0.00  0.00    +0.047 A 
ATOM     36 CL   UNL     1       7.112 -16.968   5.798  0.00  0.00    -0.084 Cl
ENDBRANCH  29  30
ENDBRANCH  28  29
ENDBRANCH  25  28
ENDBRANCH  24  25
ENDBRANCH   1  24
TORSDOF 11
