REMARK  Name = ZINC09127911
REMARK  18 active torsions:
REMARK  status: ('A' for Active; 'I' for Inactive)
REMARK    1  A    between atoms: C_1  and  C_2
REMARK    2  A    between atoms: C_5  and  N_9
REMARK    3  A    between atoms: C_6  and  C_8
REMARK    4  A    between atoms: C_10  and  C_12
REMARK    5  A    between atoms: C_12  and  N_13
REMARK    6  A    between atoms: N_13  and  C_14
REMARK    7  A    between atoms: N_13  and  C_15
REMARK    8  A    between atoms: C_15  and  C_16
REMARK    9  A    between atoms: N_18  and  C_19
REMARK   10  A    between atoms: N_18  and  C_23
REMARK   11  A    between atoms: C_19  and  C_20
REMARK   12  A    between atoms: C_20  and  C_21
REMARK   13  A    between atoms: C_20  and  C_22
REMARK   14  A    between atoms: C_24  and  N_36
REMARK   15  A    between atoms: N_25  and  C_32
REMARK   16  A    between atoms: C_32  and  C_33
REMARK   17  A    between atoms: C_33  and  C_34
REMARK   18  A    between atoms: C_33  and  C_35
REMARK                            x       y       z     vdW  Elec       q    Type
REMARK                         _______ _______ _______ _____ _____    ______ ____
ROOT
ATOM      1  C   UNL     1      -0.215  -8.679  -3.910  0.00  0.00    +0.203 C 
ATOM      2  O   UNL     1      -0.045  -7.850  -4.779  0.00  0.00    -0.277 OA
ATOM      3  N   UNL     1      -0.231  -9.991  -4.223  0.00  0.00    -0.266 N 
ENDROOT
BRANCH   3   4
ATOM      4  C   UNL     1      -0.155 -10.396  -5.572  0.00  0.00    +0.140 A 
ATOM      5  C   UNL     1      -1.180 -11.118  -6.147  0.00  0.00    +0.127 A 
ATOM      6  N   UNL     1      -1.078 -11.498  -7.465  0.00  0.00    -0.280 N 
ATOM      7  C   UNL     1       0.010 -11.168  -8.186  0.00  0.00    +0.331 A 
ATOM      8  O   UNL     1       0.081 -11.513  -9.350  0.00  0.00    -0.246 OA
ATOM      9  N   UNL     1       1.018 -10.464  -7.643  0.00  0.00    -0.273 N 
ATOM     10  H   UNL     1       1.791 -10.238  -8.184  0.00  0.00    +0.173 HD
ATOM     11  C   UNL     1       0.965 -10.063  -6.357  0.00  0.00    +0.277 A 
ATOM     12  O   UNL     1       1.883  -9.421  -5.876  0.00  0.00    -0.266 OA
BRANCH   5  13
ATOM     13  N   UNL     1      -2.291 -11.456  -5.411  0.00  0.00    -0.343 N 
ATOM     14  H   UNL     1      -2.392 -11.123  -4.506  0.00  0.00    +0.144 HD
ATOM     15  H   UNL     1      -2.973 -12.027  -5.797  0.00  0.00    +0.144 HD
ENDBRANCH   5  13
BRANCH   6  16
ATOM     16  C   UNL     1      -2.158 -12.266  -8.088  0.00  0.00    +0.131 C 
BRANCH  16  17
ATOM     17  C   UNL     1      -3.175 -11.306  -8.708  0.00  0.00    +0.003 C 
ATOM     18  C   UNL     1      -2.515 -10.534  -9.853  0.00  0.00    +0.009 C 
ATOM     19  C   UNL     1      -4.365 -12.101  -9.249  0.00  0.00    +0.009 C 
ENDBRANCH  16  17
ENDBRANCH   6  16
ENDBRANCH   3   4
BRANCH   1  20
ATOM     20  C   UNL     1      -0.408  -8.243  -2.480  0.00  0.00    +0.019 C 
BRANCH  20  21
ATOM     21  N   UNL     1      -0.499  -6.778  -2.423  0.00  0.00    +0.389 N 
ATOM     22  C   UNL     1      -1.707  -6.334  -3.131  0.00  0.00    -0.095 C 
ATOM     23  H   UNL     1       0.315  -6.373  -2.861  0.00  0.00    -0.081 HD
BRANCH  21  24
ATOM     24  C   UNL     1      -0.567  -6.345  -1.021  0.00  0.00    +0.019 C 
BRANCH  24  26
ATOM     25  N   UNL     1      -0.589  -4.215   0.236  0.00  0.00    -0.287 N 
ATOM     26  C   UNL     1      -0.536  -4.840  -0.957  0.00  0.00    +0.201 C 
ATOM     27  O   UNL     1      -0.465  -4.191  -1.979  0.00  0.00    -0.278 OA
ATOM     28  H   UNL     1      -0.576  -4.733   1.056  0.00  0.00    +0.155 HD
BRANCH  25  33
ATOM     29  C   UNL     1      -0.879   1.446   0.460  0.00  0.00    +0.044 C 
ATOM     30  C   UNL     1      -0.802  -0.057   0.400  0.00  0.00    -0.050 A 
ATOM     31  C   UNL     1      -0.082  -0.672  -0.608  0.00  0.00    +0.005 A 
ATOM     32  C   UNL     1      -0.009  -2.050  -0.665  0.00  0.00    +0.024 A 
ATOM     33  C   UNL     1      -0.660  -2.818   0.291  0.00  0.00    +0.036 A 
ATOM     34  C   UNL     1      -1.382  -2.198   1.302  0.00  0.00    -0.029 A 
ATOM     35  C   UNL     1      -1.446  -0.820   1.357  0.00  0.00    +0.008 A 
ATOM     36  C   UNL     1      -2.089  -3.029   2.342  0.00  0.00    +0.045 C 
ENDBRANCH  25  33
ENDBRANCH  24  26
ENDBRANCH  21  24
ENDBRANCH  20  21
ENDBRANCH   1  20
BRANCH   3  37
ATOM     37  C   UNL     1      -0.327 -10.996  -3.161  0.00  0.00    +0.117 C 
BRANCH  37  38
ATOM     38  C   UNL     1       1.068 -11.282  -2.601  0.00  0.00    +0.001 C 
ATOM     39  C   UNL     1       0.952 -12.216  -1.395  0.00  0.00    +0.009 C 
ATOM     40  C   UNL     1       1.925 -11.945  -3.680  0.00  0.00    +0.009 C 
ENDBRANCH  37  38
ENDBRANCH   3  37
TORSDOF 11
