REMARK  Name = ZINC08918711
REMARK  12 active torsions:
REMARK  status: ('A' for Active; 'I' for Inactive)
REMARK    1  A    between atoms: C_1  and  C_2
REMARK    2  A    between atoms: C_5  and  N_9
REMARK    3  A    between atoms: C_6  and  C_8
REMARK    4  A    between atoms: C_10  and  C_12
REMARK    5  A    between atoms: C_16  and  N_17
REMARK    6  A    between atoms: C_18  and  C_20
REMARK    7  A    between atoms: C_20  and  N_76
REMARK    8  A    between atoms: C_23  and  C_26
REMARK    9  A    between atoms: C_28  and  C_32
REMARK   10  A    between atoms: C_32  and  C_33
REMARK   11  A    between atoms: C_32  and  C_34
REMARK   12  A    between atoms: C_32  and  C_35
REMARK                            x       y       z     vdW  Elec       q    Type
REMARK                         _______ _______ _______ _____ _____    ______ ____
ROOT
ATOM      1  C   UNL     1      -3.783   5.782   0.278  0.00  0.00    +0.069 A 
ATOM      2  C   UNL     1      -4.532   6.190  -0.898  0.00  0.00    -0.023 A 
ATOM      3  C   UNL     1      -5.719   6.783  -0.647  0.00  0.00    -0.004 A 
ATOM      4  S   UNL     1      -5.849   6.805   1.118  0.00  0.00    -0.077 S 
ATOM      5  C   UNL     1      -4.351   6.032   1.519  0.00  0.00    +0.084 A 
ATOM      6  C   UNL     1      -6.699   7.303  -1.653  0.00  0.00    +0.046 C 
ATOM      7  C   UNL     1      -6.332   6.729  -3.029  0.00  0.00    -0.000 C 
ATOM      8  C   UNL     1      -4.829   6.913  -3.255  0.00  0.00    +0.009 C 
ATOM      9  C   UNL     1      -4.045   5.982  -2.327  0.00  0.00    +0.037 C 
ENDROOT
BRANCH   1  11
ATOM     10  N   UNL     1      -2.404   3.782   0.076  0.00  0.00    -0.281 N 
ATOM     11  C   UNL     1      -2.477   5.125   0.158  0.00  0.00    +0.251 C 
ATOM     12  O   UNL     1      -1.460   5.793   0.132  0.00  0.00    -0.270 OA
ATOM     13  H   UNL     1      -3.215   3.255   0.017  0.00  0.00    +0.155 HD
BRANCH  10  18
ATOM     14  C   UNL     1       2.654   1.214   0.082  0.00  0.00    +0.044 C 
ATOM     15  C   UNL     1       1.310   1.896   0.081  0.00  0.00    -0.050 A 
ATOM     16  C   UNL     1       1.171   3.147   0.653  0.00  0.00    +0.005 A 
ATOM     17  C   UNL     1      -0.058   3.775   0.653  0.00  0.00    +0.024 A 
ATOM     18  C   UNL     1      -1.157   3.149   0.078  0.00  0.00    +0.037 A 
ATOM     19  C   UNL     1      -1.012   1.895  -0.501  0.00  0.00    -0.029 A 
ATOM     20  C   UNL     1       0.219   1.270  -0.492  0.00  0.00    +0.008 A 
ATOM     21  C   UNL     1      -2.200   1.214  -1.131  0.00  0.00    +0.045 C 
ENDBRANCH  10  18
ENDBRANCH   1  11
BRANCH   5  22
ATOM     22  N   UNL     1      -3.843   5.736   2.775  0.00  0.00    -0.281 N 
ATOM     23  C   UNL     1      -4.546   6.057   3.879  0.00  0.00    +0.201 C 
ATOM     24  O   UNL     1      -5.623   6.605   3.774  0.00  0.00    -0.278 OA
ATOM     25  H   UNL     1      -2.982   5.298   2.859  0.00  0.00    +0.155 HD
BRANCH  23  26
ATOM     26  C   UNL     1      -3.994   5.736   5.244  0.00  0.00    +0.019 C 
BRANCH  26  33
ATOM     27  C   UNL     1      -4.602   5.553   7.580  0.00  0.00    -0.078 C 
ATOM     28  C   UNL     1      -5.722   5.820   8.588  0.00  0.00    -0.016 C 
ATOM     29  C   UNL     1      -5.962   7.329   8.689  0.00  0.00    -0.018 C 
ATOM     30  C   UNL     1      -6.309   7.877   7.302  0.00  0.00    -0.016 C 
ATOM     31  C   UNL     1      -5.173   7.550   6.331  0.00  0.00    -0.078 C 
ATOM     32  C   UNL     1      -7.121   7.599   9.650  0.00  0.00    +0.007 C 
ATOM     33  N   UNL     1      -5.009   6.082   6.260  0.00  0.00    +0.385 N 
ATOM     34  H   UNL     1      -5.905   5.659   5.994  0.00  0.00    -0.081 HD
ENDBRANCH  26  33
ENDBRANCH  23  26
ENDBRANCH   5  22
BRANCH   7  35
ATOM     35  C   UNL     1      -7.109   7.471  -4.118  0.00  0.00    -0.035 C 
ATOM     36  C   UNL     1      -6.728   6.908  -5.489  0.00  0.00    +0.011 C 
ATOM     37  C   UNL     1      -8.610   7.285  -3.890  0.00  0.00    +0.011 C 
ATOM     38  C   UNL     1      -6.765   8.960  -4.065  0.00  0.00    +0.011 C 
ENDBRANCH   7  35
TORSDOF 6
