REMARK  Name = ZINC09045760
REMARK  8 active torsions:
REMARK  status: ('A' for Active; 'I' for Inactive)
REMARK    1  A    between atoms: C_1  and  C_2
REMARK    2  A    between atoms: C_5  and  C_8
REMARK    3  A    between atoms: C_9  and  O_21
REMARK    4  A    between atoms: O_21  and  C_22
REMARK    5  A    between atoms: C_22  and  C_23
REMARK    6  A    between atoms: N_25  and  C_26
REMARK    7  A    between atoms: C_29  and  N_32
REMARK    8  A    between atoms: C_33  and  C_35
REMARK                            x       y       z     vdW  Elec       q    Type
REMARK                         _______ _______ _______ _____ _____    ______ ____
ROOT
ATOM      1  C   UNL     1       2.270   0.180  -0.045  0.00  0.00    +0.181 A 
ATOM      2  C   UNL     1       1.151  -0.554  -0.303  0.00  0.00    +0.211 A 
ATOM      3  C   UNL     1      -0.110   0.094  -0.362  0.00  0.00    +0.235 A 
ATOM      4  O   UNL     1      -1.133  -0.530  -0.590  0.00  0.00    -0.283 OA
ATOM      5  C   UNL     1      -0.133   1.552  -0.136  0.00  0.00    +0.071 A 
ATOM      6  C   UNL     1      -1.327   2.272  -0.181  0.00  0.00    +0.035 A 
ATOM      7  C   UNL     1      -1.310   3.632   0.040  0.00  0.00    +0.043 A 
ATOM      8  C   UNL     1      -0.111   4.285   0.296  0.00  0.00    +0.043 A 
ATOM      9  C   UNL     1       1.077   3.584   0.337  0.00  0.00    +0.085 A 
ATOM     10  C   UNL     1       1.079   2.209   0.122  0.00  0.00    +0.158 A 
ATOM     11  O   UNL     1       2.231   1.507   0.159  0.00  0.00    -0.449 OA
ATOM     12 CL   UNL     1       2.566   4.416   0.657  0.00  0.00    -0.080 Cl
ATOM     13 CL   UNL     1      -2.792   4.535  -0.007  0.00  0.00    -0.083 Cl
ENDROOT
BRANCH   1  18
ATOM     14  C   UNL     1       7.352  -2.505   0.183  0.00  0.00    +0.044 C 
ATOM     15  C   UNL     1       6.021  -1.802   0.123  0.00  0.00    -0.050 A 
ATOM     16  C   UNL     1       5.884  -0.649  -0.631  0.00  0.00    +0.004 A 
ATOM     17  C   UNL     1       4.668  -0.001  -0.690  0.00  0.00    +0.012 A 
ATOM     18  C   UNL     1       3.574  -0.509   0.013  0.00  0.00    +0.021 A 
ATOM     19  C   UNL     1       3.721  -1.670   0.776  0.00  0.00    +0.012 A 
ATOM     20  C   UNL     1       4.941  -2.311   0.823  0.00  0.00    +0.004 A 
ENDBRANCH   1  18
BRANCH   2  21
ATOM     21  O   UNL     1       1.242  -1.897  -0.502  0.00  0.00    -0.476 OA
BRANCH  21  22
ATOM     22  C   UNL     1       1.329  -2.347  -1.856  0.00  0.00    +0.325 C 
BRANCH  22  23
ATOM     23  C   UNL     1       1.423  -3.851  -1.880  0.00  0.00    +0.255 C 
ATOM     24  O   UNL     1       1.415  -4.476  -0.841  0.00  0.00    -0.272 OA
ATOM     25  N   UNL     1       1.514  -4.502  -3.057  0.00  0.00    -0.283 N 
ATOM     26  H   UNL     1       1.588  -4.000  -3.884  0.00  0.00    +0.155 HD
BRANCH  25  27
ATOM     27  C   UNL     1       1.504  -5.902  -3.085  0.00  0.00    +0.034 A 
ATOM     28  C   UNL     1       2.123  -6.622  -2.072  0.00  0.00    +0.025 A 
ATOM     29  C   UNL     1       2.109  -8.002  -2.098  0.00  0.00    +0.025 A 
ATOM     30  C   UNL     1       1.484  -8.671  -3.143  0.00  0.00    +0.033 A 
ATOM     31  C   UNL     1       0.868  -7.951  -4.158  0.00  0.00    +0.025 A 
ATOM     32  C   UNL     1       0.878  -6.571  -4.130  0.00  0.00    +0.025 A 
BRANCH  30  33
ATOM     33  N   UNL     1       1.473 -10.071  -3.171  0.00  0.00    -0.286 N 
ATOM     34  C   UNL     1       1.421 -10.768  -2.019  0.00  0.00    +0.214 C 
ATOM     35  O   UNL     1       1.291 -10.186  -0.963  0.00  0.00    -0.276 OA
ATOM     36  C   UNL     1       1.523 -12.272  -2.042  0.00  0.00    +0.109 C 
ATOM     37  H   UNL     1       1.503 -10.539  -4.020  0.00  0.00    +0.155 HD
ENDBRANCH  30  33
ENDBRANCH  25  27
ENDBRANCH  22  23
ENDBRANCH  21  22
ENDBRANCH   2  21
TORSDOF 6
