REMARK  Name = ZINC00082641
REMARK  9 active torsions:
REMARK  status: ('A' for Active; 'I' for Inactive)
REMARK    1  A    between atoms: C_1  and  C_2
REMARK    2  A    between atoms: C_2  and  C_3
REMARK    3  A    between atoms: C_6  and  C_9
REMARK    4  A    between atoms: C_12  and  C_23
REMARK    5  A    between atoms: C_18  and  N_22
REMARK    6  A    between atoms: C_19  and  C_20
REMARK    7  A    between atoms: C_23  and  C_24
REMARK    8  A    between atoms: C_23  and  C_25
REMARK    9  A    between atoms: C_23  and  C_26
REMARK                            x       y       z     vdW  Elec       q    Type
REMARK                         _______ _______ _______ _____ _____    ______ ____
ROOT
ATOM      1  C   UNL     1      -5.616  -2.254  -0.443  0.00  0.00    +0.101 C 
ATOM      2  C   UNL     1      -5.816  -3.677  -0.898  0.00  0.00    +0.050 A 
ATOM      3  C   UNL     1      -5.252  -4.845  -0.404  0.00  0.00    +0.076 A 
ATOM      4  N   UNL     1      -5.713  -5.850  -1.110  0.00  0.00    -0.175 NA
ATOM      5  N   UNL     1      -6.591  -5.344  -2.081  0.00  0.00    -0.246 N 
ATOM      6  H   UNL     1      -7.076  -5.865  -2.741  0.00  0.00    +0.192 HD
ATOM      7  C   UNL     1      -6.642  -4.010  -1.935  0.00  0.00    +0.222 A 
ATOM      8  O   UNL     1      -7.349  -3.088  -2.634  0.00  0.00    -0.423 OA
ATOM      9  C   UNL     1      -7.439  -1.846  -2.115  0.00  0.00    +0.200 C 
ATOM     10  C   UNL     1      -6.669  -1.396  -1.099  0.00  0.00    +0.098 C 
ENDROOT
BRANCH   1  14
ATOM     11  C   UNL     1      -1.730  -0.905  -1.595  0.00  0.00    -0.048 A 
ATOM     12  C   UNL     1      -2.183  -0.689  -0.307  0.00  0.00    +0.004 A 
ATOM     13  C   UNL     1      -3.441  -1.126   0.066  0.00  0.00    +0.005 A 
ATOM     14  C   UNL     1      -4.245  -1.778  -0.850  0.00  0.00    -0.035 A 
ATOM     15  C   UNL     1      -3.793  -1.993  -2.138  0.00  0.00    +0.005 A 
ATOM     16  C   UNL     1      -2.537  -1.553  -2.512  0.00  0.00    +0.004 A 
BRANCH  11  18
ATOM     17  C   UNL     1      -0.455   0.999  -2.542  0.00  0.00    +0.009 C 
ATOM     18  C   UNL     1      -0.359  -0.430  -2.002  0.00  0.00    +0.032 C 
ENDBRANCH  11  18
ENDBRANCH   1  14
BRANCH   3  19
ATOM     19  C   UNL     1      -4.280  -4.943   0.743  0.00  0.00    +0.007 C 
ATOM     20  C   UNL     1      -4.833  -4.177   1.947  0.00  0.00    +0.017 C 
ATOM     21  C   UNL     1      -4.082  -6.412   1.121  0.00  0.00    +0.017 C 
ATOM     22  C   UNL     1      -2.938  -4.337   0.327  0.00  0.00    +0.017 C 
ENDBRANCH   3  19
BRANCH   9  23
ATOM     23  N   UNL     1      -8.367  -0.988  -2.651  0.00  0.00    -0.328 N 
ATOM     24  H   UNL     1      -8.934  -1.281  -3.381  0.00  0.00    +0.145 HD
ATOM     25  H   UNL     1      -8.456  -0.088  -2.299  0.00  0.00    +0.145 HD
ENDBRANCH   9  23
BRANCH  10  26
ATOM     26  C   UNL     1      -6.859  -0.058  -0.628  0.00  0.00    +0.101 C 
ATOM     27  N   UNL     1      -7.010   1.005  -0.255  0.00  0.00    -0.191 NA
ENDBRANCH  10  26
TORSDOF 5
