REMARK  Name = ZINC22402245
REMARK  13 active torsions:
REMARK  status: ('A' for Active; 'I' for Inactive)
REMARK    1  A    between atoms: C_1  and  C_2
REMARK    2  A    between atoms: C_2  and  C_3
REMARK    3  A    between atoms: C_2  and  C_4
REMARK    4  A    between atoms: C_4  and  N_5
REMARK    5  A    between atoms: C_6  and  N_33
REMARK    6  A    between atoms: C_7  and  N_14
REMARK    7  A    between atoms: N_14  and  C_15
REMARK    8  A    between atoms: C_15  and  C_16
REMARK    9  A    between atoms: C_16  and  C_17
REMARK   10  A    between atoms: C_16  and  C_18
REMARK   11  A    between atoms: C_19  and  C_21
REMARK   12  A    between atoms: C_22  and  C_23
REMARK   13  A    between atoms: C_26  and  C_29
REMARK                            x       y       z     vdW  Elec       q    Type
REMARK                         _______ _______ _______ _____ _____    ______ ____
ROOT
ATOM      1  N   UNL     1       0.108  -2.922   2.538  0.00  0.00    -0.260 N 
ATOM      2  C   UNL     1       0.124  -2.350   3.759  0.00  0.00    +0.244 C 
ATOM      3  O   UNL     1      -0.040  -1.149   3.870  0.00  0.00    -0.270 OA
ENDROOT
BRANCH   1   6
ATOM      4  N   UNL     1      -1.133  -1.456  -0.594  0.00  0.00    -0.280 N 
ATOM      5  C   UNL     1      -1.062  -2.256   0.523  0.00  0.00    +0.127 A 
ATOM      6  C   UNL     1       0.007  -2.118   1.384  0.00  0.00    +0.140 A 
ATOM      7  C   UNL     1       0.996  -1.160   1.091  0.00  0.00    +0.277 A 
ATOM      8  O   UNL     1       1.952  -1.017   1.835  0.00  0.00    -0.266 OA
ATOM      9  N   UNL     1       0.880  -0.402  -0.017  0.00  0.00    -0.273 N 
ATOM     10  H   UNL     1       1.646   0.351  -0.251  0.00  0.00    +0.173 HD
ATOM     11  C   UNL     1      -0.167  -0.554  -0.847  0.00  0.00    +0.331 A 
ATOM     12  O   UNL     1      -0.245   0.140  -1.843  0.00  0.00    -0.246 OA
BRANCH   5  13
ATOM     13  N   UNL     1      -2.046  -3.181   0.779  0.00  0.00    -0.343 N 
ATOM     14  H   UNL     1      -1.984  -3.817   1.675  0.00  0.00    +0.144 HD
ATOM     15  H   UNL     1      -2.896  -3.285   0.089  0.00  0.00    +0.144 HD
ENDBRANCH   5  13
BRANCH   4  16
ATOM     16  C   UNL     1      -2.262  -1.593  -1.517  0.00  0.00    +0.131 C 
BRANCH  16  18
ATOM     17  C   UNL     1      -2.925   0.799  -1.225  0.00  0.00    +0.009 C 
ATOM     18  C   UNL     1      -3.389  -0.652  -1.085  0.00  0.00    +0.003 C 
ATOM     19  C   UNL     1      -4.614  -0.884  -1.973  0.00  0.00    +0.009 C 
ENDBRANCH  16  18
ENDBRANCH   4  16
ENDBRANCH   1   6
BRANCH   2  20
ATOM     20  C   UNL     1       0.340  -3.174   4.950  0.00  0.00    +0.068 C 
ATOM     21  C   UNL     1       0.356  -2.602   6.170  0.00  0.00    +0.013 C 
BRANCH  21  22
ATOM     22  C   UNL     1       0.573  -3.430   7.368  0.00  0.00    -0.025 A 
ATOM     23  C   UNL     1       0.757  -4.811   7.244  0.00  0.00    +0.008 A 
ATOM     24  C   UNL     1       0.964  -5.579   8.370  0.00  0.00    +0.013 A 
ATOM     25  C   UNL     1       0.981  -4.988   9.622  0.00  0.00    +0.055 A 
ATOM     26  C   UNL     1       0.794  -3.623   9.753  0.00  0.00    +0.013 A 
ATOM     27  C   UNL     1       0.591  -2.841   8.636  0.00  0.00    +0.008 A 
BRANCH  25  28
ATOM     28  C   UNL     1       1.203  -5.836  10.848  0.00  0.00    +0.417 C 
ATOM     29  F   UNL     1      -0.030  -6.286  11.333  0.00  0.00    -0.166 F 
ATOM     30  F   UNL     1       2.003  -6.934  10.517  0.00  0.00    -0.166 F 
ATOM     31  F   UNL     1       1.841  -5.074  11.832  0.00  0.00    -0.166 F 
ENDBRANCH  25  28
ENDBRANCH  21  22
ENDBRANCH   2  20
BRANCH   1  32
ATOM     32  C   UNL     1       0.194  -4.379   2.410  0.00  0.00    +0.117 C 
BRANCH  32  33
ATOM     33  C   UNL     1       1.659  -4.791   2.253  0.00  0.00    +0.001 C 
ATOM     34  C   UNL     1       1.765  -6.317   2.280  0.00  0.00    +0.009 C 
ATOM     35  C   UNL     1       2.197  -4.266   0.921  0.00  0.00    +0.009 C 
ENDBRANCH  32  33
ENDBRANCH   1  32
TORSDOF 9
