REMARK  Name = ZINC21133103
REMARK  4 active torsions:
REMARK  status: ('A' for Active; 'I' for Inactive)
REMARK    1  A    between atoms: C_2  and  N_9
REMARK    2  A    between atoms: C_10  and  C_12
REMARK    3  A    between atoms: C_12  and  C_13
REMARK    4  A    between atoms: N_19  and  C_20
REMARK                            x       y       z     vdW  Elec       q    Type
REMARK                         _______ _______ _______ _____ _____    ______ ____
ROOT
ATOM      1  C   UNL     1       3.726   6.202   0.316  0.00  0.00    +0.149 C 
ATOM      2  C   UNL     1       3.748   7.715   0.469  0.00  0.00    +0.232 C 
ATOM      3  O   UNL     1       3.256   8.272   1.427  0.00  0.00    -0.274 OA
ATOM      4  N   UNL     1       4.338   8.384  -0.507  0.00  0.00    -0.264 N 
ATOM      5  C   UNL     1       4.902   7.756  -1.600  0.00  0.00    +0.157 C 
ATOM      6  N   UNL     1       5.506   8.300  -2.618  0.00  0.00    -0.260 NA
ATOM      7  S   UNL     1       4.607   6.020  -1.290  0.00  0.00    -0.077 S 
ATOM      8  H   UNL     1       4.377   9.352  -0.453  0.00  0.00    +0.157 HD
ENDROOT
BRANCH   6   9
ATOM      9  C   UNL     1       5.649   9.756  -2.692  0.00  0.00    +0.108 C 
ATOM     10  C   UNL     1       4.955  10.274  -3.953  0.00  0.00    +0.027 C 
ATOM     11  C   UNL     1       5.105  11.794  -4.030  0.00  0.00    +0.002 C 
ATOM     12  C   UNL     1       6.591  12.159  -4.079  0.00  0.00    +0.000 C 
ATOM     13  C   UNL     1       7.285  11.641  -2.818  0.00  0.00    +0.002 C 
ATOM     14  C   UNL     1       7.135  10.120  -2.741  0.00  0.00    +0.027 C 
ENDBRANCH   6   9
BRANCH   1  15
ATOM     15  C   UNL     1       2.293   5.675   0.225  0.00  0.00    +0.120 C 
BRANCH  15  17
ATOM     16  N   UNL     1       1.161   3.487   0.009  0.00  0.00    -0.285 N 
ATOM     17  C   UNL     1       2.317   4.173   0.104  0.00  0.00    +0.219 C 
ATOM     18  O   UNL     1       3.376   3.583   0.091  0.00  0.00    -0.275 OA
ATOM     19  H   UNL     1       0.318   3.962  -0.058  0.00  0.00    +0.155 HD
BRANCH  16  21
ATOM     20  C   UNL     1       2.132   1.402   0.746  0.00  0.00    +0.043 A 
ATOM     21  C   UNL     1       1.177   2.087   0.008  0.00  0.00    +0.036 A 
ATOM     22  C   UNL     1       0.236   1.382  -0.732  0.00  0.00    +0.043 A 
ATOM     23  C   UNL     1       0.254  -0.000  -0.731  0.00  0.00    +0.044 A 
ATOM     24  C   UNL     1       1.207  -0.681   0.006  0.00  0.00    +0.040 A 
ATOM     25  C   UNL     1       2.145   0.020   0.744  0.00  0.00    +0.044 A 
ATOM     26 CL   UNL     1       3.340  -0.838   1.666  0.00  0.00    -0.083 Cl
ATOM     27 CL   UNL     1      -0.921  -0.883  -1.655  0.00  0.00    -0.083 Cl
ENDBRANCH  16  21
ENDBRANCH  15  17
ENDBRANCH   1  15
TORSDOF 4
