REMARK  Name = ZINC16249641
REMARK  4 active torsions:
REMARK  status: ('A' for Active; 'I' for Inactive)
REMARK    1  A    between atoms: C_1  and  C_2
REMARK    2  A    between atoms: C_3  and  C_25
REMARK    3  A    between atoms: C_8  and  C_11
REMARK    4  A    between atoms: C_13  and  C_19
REMARK                            x       y       z     vdW  Elec       q    Type
REMARK                         _______ _______ _______ _____ _____    ______ ____
ROOT
ATOM      1  C   UNL     1      -0.013   1.086   0.008  0.00  0.00    +0.068 C 
ATOM      2  C   UNL     1      -0.718   1.572   1.248  0.00  0.00    +0.070 A 
ATOM      3  C   UNL     1      -2.093   1.831   1.361  0.00  0.00    +0.048 A 
ATOM      4  C   UNL     1      -2.326   2.256   2.662  0.00  0.00    +0.160 A 
ATOM      5  N   UNL     1      -3.274   2.678   3.559  0.00  0.00    -0.258 N 
ATOM      6  H   UNL     1      -4.224   2.778   3.389  0.00  0.00    +0.191 HD
ATOM      7  N   UNL     1      -2.613   2.937   4.769  0.00  0.00    -0.150 NA
ATOM      8  C   UNL     1      -1.341   2.684   4.606  0.00  0.00    +0.201 A 
ATOM      9  N   UNL     1      -1.127   2.258   3.307  0.00  0.00    -0.192 N 
ATOM     10  N   UNL     1      -0.151   1.829   2.400  0.00  0.00    -0.168 NA
ENDROOT
BRANCH   8  11
ATOM     11  C   UNL     1      -0.302   2.830   5.640  0.00  0.00    +0.114 A 
ATOM     12  C   UNL     1      -0.645   3.281   6.930  0.00  0.00    +0.058 A 
ATOM     13  C   UNL     1       0.343   3.401   7.871  0.00  0.00    +0.050 A 
ATOM     14  N   UNL     1       1.634   3.090   7.524  0.00  0.00    -0.333 N 
ATOM     15  H   UNL     1       2.344   3.175   8.180  0.00  0.00    +0.168 HD
ATOM     16  C   UNL     1       1.918   2.668   6.279  0.00  0.00    +0.178 A 
ATOM     17  S   UNL     1       3.537   2.287   5.871  0.00  0.00    -0.011 S 
ATOM     18  N   UNL     1       0.967   2.542   5.358  0.00  0.00    -0.220 NA
BRANCH  13  19
ATOM     19  C   UNL     1       0.024   3.865   9.237  0.00  0.00    -0.002 A 
ATOM     20  C   UNL     1      -1.292   4.185   9.580  0.00  0.00    +0.010 A 
ATOM     21  C   UNL     1      -1.583   4.612  10.859  0.00  0.00    +0.001 A 
ATOM     22  C   UNL     1      -0.574   4.734  11.797  0.00  0.00    +0.000 A 
ATOM     23  C   UNL     1       0.733   4.425  11.463  0.00  0.00    +0.001 A 
ATOM     24  C   UNL     1       1.037   3.991  10.189  0.00  0.00    +0.010 A 
ENDBRANCH  13  19
ENDBRANCH   8  11
BRANCH   3  25
ATOM     25  C   UNL     1      -3.107   1.677   0.291  0.00  0.00    -0.013 A 
ATOM     26  C   UNL     1      -3.783   2.795  -0.199  0.00  0.00    +0.009 A 
ATOM     27  C   UNL     1      -4.723   2.646  -1.199  0.00  0.00    +0.001 A 
ATOM     28  C   UNL     1      -5.002   1.390  -1.708  0.00  0.00    +0.000 A 
ATOM     29  C   UNL     1      -4.339   0.278  -1.222  0.00  0.00    +0.001 A 
ATOM     30  C   UNL     1      -3.393   0.414  -0.226  0.00  0.00    +0.009 A 
ENDBRANCH   3  25
TORSDOF 3
