REMARK  Name = ZINC21238511
REMARK  2 active torsions:
REMARK  status: ('A' for Active; 'I' for Inactive)
REMARK    1  A    between atoms: C_8  and  C_26
REMARK    2  A    between atoms: C_14  and  C_19
REMARK                            x       y       z     vdW  Elec       q    Type
REMARK                         _______ _______ _______ _____ _____    ______ ____
ROOT
ATOM      1  C   UNL     1      -2.489   5.513   2.179  0.00  0.00    +0.002 A 
ATOM      2  C   UNL     1      -3.126   4.307   2.407  0.00  0.00    +0.002 A 
ATOM      3  C   UNL     1      -2.732   3.169   1.722  0.00  0.00    +0.025 A 
ATOM      4  C   UNL     1      -1.698   3.252   0.807  0.00  0.00    +0.052 A 
ATOM      5  C   UNL     1      -1.032   4.452   0.607  0.00  0.00    +0.049 A 
ATOM      6  C   UNL     1      -1.439   5.593   1.280  0.00  0.00    +0.025 A 
ATOM      7  N   UNL     1       0.050   4.472  -0.272  0.00  0.00    -0.331 N 
ATOM      8  C   UNL     1       1.253   3.718   0.009  0.00  0.00    +0.139 C 
ATOM      9  C   UNL     1       1.064   2.220   0.027  0.00  0.00    +0.037 C 
ATOM     10  C   UNL     1      -0.114   1.573   0.029  0.00  0.00    +0.017 C 
ATOM     11  N   UNL     1      -1.328   2.179   0.006  0.00  0.00    -0.316 N 
ATOM     12  C   UNL     1      -0.160   0.055   0.047  0.00  0.00    +0.059 C 
ATOM     13  C   UNL     1       1.038  -0.495   0.818  0.00  0.00    +0.032 C 
ATOM     14  C   UNL     1       2.310  -0.007   0.113  0.00  0.00    +0.088 C 
ATOM     15  C   UNL     1       2.277   1.490   0.052  0.00  0.00    +0.163 C 
ATOM     16  O   UNL     1       3.328   2.100   0.022  0.00  0.00    -0.292 OA
ATOM     17  H   UNL     1      -0.021   5.072  -1.191  0.00  0.00    +0.147 HD
ATOM     18  H   UNL     1      -2.045   1.759  -0.715  0.00  0.00    +0.152 HD
ENDROOT
BRANCH   8  19
ATOM     19  C   UNL     1       1.784   4.149   1.351  0.00  0.00    +0.015 A 
ATOM     20  C   UNL     1       1.681   3.302   2.439  0.00  0.00    +0.047 A 
ATOM     21  C   UNL     1       2.172   3.696   3.672  0.00  0.00    +0.124 A 
ATOM     22  C   UNL     1       2.759   4.942   3.817  0.00  0.00    +0.041 A 
ATOM     23  C   UNL     1       2.857   5.790   2.731  0.00  0.00    +0.041 A 
ATOM     24  C   UNL     1       2.370   5.394   1.497  0.00  0.00    +0.129 A 
ATOM     25  F   UNL     1       2.467   6.223   0.434  0.00  0.00    -0.205 F 
ATOM     26  F   UNL     1       2.076   2.867   4.734  0.00  0.00    -0.205 F 
ENDBRANCH   8  19
BRANCH  13  27
ATOM     27  C   UNL     1       1.000  -2.001   0.817  0.00  0.00    -0.043 A 
ATOM     28  C   UNL     1       1.028  -2.692  -0.380  0.00  0.00    +0.005 A 
ATOM     29  C   UNL     1       0.998  -4.074  -0.382  0.00  0.00    +0.020 A 
ATOM     30  C   UNL     1       0.928  -4.766   0.815  0.00  0.00    +0.041 A 
ATOM     31  C   UNL     1       0.895  -4.074   2.012  0.00  0.00    +0.020 A 
ATOM     32  C   UNL     1       0.930  -2.692   2.013  0.00  0.00    +0.005 A 
ATOM     33 CL   UNL     1       0.884  -6.501   0.813  0.00  0.00    -0.084 Cl
ENDBRANCH  13  27
TORSDOF 2
