REMARK  Name = ZINC15531986
REMARK  7 active torsions:
REMARK  status: ('A' for Active; 'I' for Inactive)
REMARK    1  A    between atoms: C_1  and  C_2
REMARK    2  A    between atoms: C_7  and  N_12
REMARK    3  A    between atoms: C_9  and  C_11
REMARK    4  A    between atoms: N_12  and  C_13
REMARK    5  A    between atoms: C_13  and  N_15
REMARK    6  A    between atoms: N_15  and  N_16
REMARK    7  A    between atoms: C_17  and  C_19
REMARK                            x       y       z     vdW  Elec       q    Type
REMARK                         _______ _______ _______ _____ _____    ______ ____
ROOT
ATOM      1  N   UNL     1       4.059   0.594   2.379  0.00  0.00    -0.246 N 
ATOM      2  H   UNL     1       4.548   0.689   3.211  0.00  0.00    +0.172 HD
ENDROOT
BRANCH   1   3
ATOM      3  N   UNL     1       4.668   0.942   1.166  0.00  0.00    -0.231 N 
ATOM      4  C   UNL     1       5.933   1.409   1.156  0.00  0.00    +0.262 C 
ATOM      5  O   UNL     1       6.545   1.528   2.200  0.00  0.00    -0.269 OA
ATOM      6  H   UNL     1       4.180   0.848   0.333  0.00  0.00    +0.173 HD
BRANCH   4   7
ATOM      7  C   UNL     1       6.575   1.776  -0.123  0.00  0.00    +0.058 A 
ATOM      8  C   UNL     1       7.887   2.268  -0.145  0.00  0.00    +0.037 A 
ATOM      9  C   UNL     1       8.445   2.592  -1.369  0.00  0.00    +0.078 A 
ATOM     10  C   UNL     1       7.690   2.433  -2.522  0.00  0.00    +0.147 A 
ATOM     11  N   UNL     1       6.454   1.972  -2.468  0.00  0.00    -0.241 NA
ATOM     12  C   UNL     1       5.883   1.645  -1.327  0.00  0.00    +0.125 A 
ATOM     13 CL   UNL     1       8.382   2.845  -4.060  0.00  0.00    -0.060 Cl
ATOM     14 CL   UNL     1      10.069   3.199  -1.460  0.00  0.00    -0.080 Cl
ENDBRANCH   4   7
ENDBRANCH   1   3
BRANCH   1  15
ATOM     15  C   UNL     1       2.795   0.128   2.388  0.00  0.00    +0.147 C 
ATOM     16  S   UNL     1       2.051  -0.298   3.870  0.00  0.00    -0.017 S 
BRANCH  15  17
ATOM     17  N   UNL     1       2.116  -0.004   1.231  0.00  0.00    -0.322 N 
ATOM     18  H   UNL     1       2.538   0.237   0.392  0.00  0.00    +0.148 HD
BRANCH  17  24
ATOM     19  C   UNL     1      -2.149  -0.040   1.272  0.00  0.00    +0.008 C 
ATOM     20  C   UNL     1      -1.433  -0.534   0.013  0.00  0.00    -0.009 C 
ATOM     21  C   UNL     1      -1.413  -2.063   0.004  0.00  0.00    +0.003 C 
ATOM     22  C   UNL     1      -0.673  -2.570   1.244  0.00  0.00    +0.002 C 
ATOM     23  C   UNL     1       0.763  -2.041   1.233  0.00  0.00    +0.022 C 
ATOM     24  C   UNL     1       0.742  -0.511   1.242  0.00  0.00    +0.075 C 
ATOM     25  C   UNL     1       0.002  -0.004   0.002  0.00  0.00    +0.009 C 
ATOM     26  C   UNL     1      -0.019   1.526   0.010  0.00  0.00    +0.009 C 
ENDBRANCH  17  24
ENDBRANCH  15  17
ENDBRANCH   1  15
TORSDOF 5
