REMARK  Name = ZINC20325067
REMARK  8 active torsions:
REMARK  status: ('A' for Active; 'I' for Inactive)
REMARK    1  A    between atoms: C_1  and  C_2
REMARK    2  A    between atoms: C_2  and  C_3
REMARK    3  A    between atoms: C_2  and  C_4
REMARK    4  A    between atoms: C_2  and  N_28
REMARK    5  A    between atoms: C_4  and  N_5
REMARK    6  A    between atoms: N_5  and  C_6
REMARK    7  A    between atoms: N_17  and  C_20
REMARK    8  A    between atoms: C_20  and  C_21
REMARK                            x       y       z     vdW  Elec       q    Type
REMARK                         _______ _______ _______ _____ _____    ______ ____
ROOT
ATOM      1  C   UNL     1       0.646   3.728   7.516  0.00  0.00    -0.067 C 
ATOM      2  C   UNL     1       1.529   4.326   6.417  0.00  0.00    -0.011 C 
ATOM      3  C   UNL     1       1.204   3.670   5.075  0.00  0.00    +0.035 C 
ATOM      4  C   UNL     1      -0.300   3.761   4.833  0.00  0.00    -0.023 A 
ATOM      5  C   UNL     1      -1.149   3.999   5.855  0.00  0.00    -0.006 A 
ATOM      6  S   UNL     1      -2.761   4.020   5.118  0.00  0.00    -0.073 S 
ATOM      7  C   UNL     1      -2.288   3.708   3.436  0.00  0.00    +0.116 A 
ATOM      8  C   UNL     1      -0.890   3.598   3.506  0.00  0.00    +0.076 A 
ATOM      9  C   UNL     1      -0.225   3.340   2.262  0.00  0.00    +0.262 A 
ATOM     10  O   UNL     1       0.988   3.228   2.219  0.00  0.00    -0.267 OA
ATOM     11  N   UNL     1      -0.963   3.223   1.142  0.00  0.00    -0.298 N 
ATOM     12  C   UNL     1      -2.315   3.350   1.171  0.00  0.00    +0.203 A 
ATOM     13  N   UNL     1      -2.949   3.579   2.289  0.00  0.00    -0.230 NA
ATOM     14  C   UNL     1      -0.798   4.200   7.298  0.00  0.00    +0.027 C 
ENDROOT
BRANCH   1  15
ATOM     15  N   UNL     1       1.120   4.183   8.830  0.00  0.00    +0.382 N 
ATOM     16  H   UNL     1       0.688   5.173   9.038  0.00  0.00    -0.085 HD
ATOM     17  H   UNL     1       2.217   4.260   8.803  0.00  0.00    -0.085 HD
BRANCH  15  18
ATOM     18  C   UNL     1       0.722   3.243   9.887  0.00  0.00    -0.060 C 
BRANCH  18  20
ATOM     19  C   UNL     1       0.754   5.022  11.642  0.00  0.00    +0.025 C 
ATOM     20  C   UNL     1       1.345   3.676  11.216  0.00  0.00    +0.001 C 
ATOM     21  C   UNL     1       1.044   2.625  12.287  0.00  0.00    +0.025 C 
BRANCH  20  22
ATOM     22  N   UNL     1       2.799   3.808  11.055  0.00  0.00    -0.295 NA
ATOM     23  C   UNL     1       3.394   2.548  10.587  0.00  0.00    +0.113 C 
ATOM     24  C   UNL     1       4.897   2.748  10.376  0.00  0.00    +0.175 C 
ATOM     25  O   UNL     1       5.488   3.205  11.595  0.00  0.00    -0.377 OA
ATOM     26  C   UNL     1       4.933   4.431  12.079  0.00  0.00    +0.175 C 
ATOM     27  C   UNL     1       3.430   4.249  12.307  0.00  0.00    +0.113 C 
ENDBRANCH  20  22
ENDBRANCH  18  20
ENDBRANCH  15  18
ENDBRANCH   1  15
BRANCH  11  28
ATOM     28  C   UNL     1      -0.294   2.959  -0.134  0.00  0.00    +0.129 C 
BRANCH  28  29
ATOM     29  C   UNL     1      -0.184   1.448  -0.349  0.00  0.00    +0.009 C 
ATOM     30  C   UNL     1       0.731   0.846   0.720  0.00  0.00    +0.005 C 
ATOM     31  C   UNL     1       0.841  -0.665   0.504  0.00  0.00    +0.000 C 
ATOM     32  C   UNL     1       1.426  -0.941  -0.882  0.00  0.00    +0.000 C 
ATOM     33  C   UNL     1       0.511  -0.339  -1.951  0.00  0.00    +0.000 C 
ATOM     34  C   UNL     1       0.401   1.172  -1.736  0.00  0.00    +0.005 C 
ENDBRANCH  28  29
ENDBRANCH  11  28
TORSDOF 6
