REMARK  Name = ZINC21659116
REMARK  6 active torsions:
REMARK  status: ('A' for Active; 'I' for Inactive)
REMARK    1  A    between atoms: C_1  and  N_2
REMARK    2  A    between atoms: C_5  and  C_25
REMARK    3  A    between atoms: C_8  and  C_17
REMARK    4  A    between atoms: C_20  and  O_24
REMARK    5  A    between atoms: C_21  and  O_23
REMARK    6  A    between atoms: N_34  and  C_37
REMARK                            x       y       z     vdW  Elec       q    Type
REMARK                         _______ _______ _______ _____ _____    ______ ____
ROOT
ATOM      1  C   UNL     1       4.706   4.515  -2.928  0.00  0.00    +0.154 C 
ATOM      2  N   UNL     1       4.676   5.758  -2.155  0.00  0.00    -0.294 N 
ATOM      3  C   UNL     1       4.805   5.753  -0.758  0.00  0.00    +0.082 A 
ATOM      4  C   UNL     1       4.768   7.047  -0.031  0.00  0.00    +0.089 A 
ATOM      5  C   UNL     1       4.912   6.751   1.302  0.00  0.00    +0.069 A 
ATOM      6  N   UNL     1       5.053   5.403   1.410  0.00  0.00    -0.306 N 
ATOM      7  C   UNL     1       4.965   4.809   0.158  0.00  0.00    +0.073 A 
ATOM      8  C   UNL     1       5.047   3.308  -0.015  0.00  0.00    +0.150 C 
ATOM      9  N   UNL     1       5.793   2.760   1.128  0.00  0.00    -0.330 N 
ATOM     10  C   UNL     1       5.601   3.288   2.409  0.00  0.00    +0.052 A 
ATOM     11  C   UNL     1       5.244   4.631   2.566  0.00  0.00    +0.068 A 
ATOM     12  C   UNL     1       5.074   5.165   3.828  0.00  0.00    +0.028 A 
ATOM     13  C   UNL     1       5.245   4.362   4.942  0.00  0.00    +0.002 A 
ATOM     14  C   UNL     1       5.585   3.030   4.792  0.00  0.00    +0.002 A 
ATOM     15  C   UNL     1       5.763   2.490   3.531  0.00  0.00    +0.025 A 
ATOM     16  C   UNL     1       4.594   8.290  -0.789  0.00  0.00    +0.266 A 
ATOM     17  O   UNL     1       4.554   9.380  -0.251  0.00  0.00    -0.267 OA
ATOM     18  N   UNL     1       4.482   8.140  -2.135  0.00  0.00    -0.263 N 
ATOM     19  C   UNL     1       4.522   6.958  -2.757  0.00  0.00    +0.332 A 
ATOM     20  O   UNL     1       4.410   6.963  -3.968  0.00  0.00    -0.246 OA
ATOM     21  C   UNL     1       4.307   9.345  -2.950  0.00  0.00    +0.157 C 
ATOM     22  H   UNL     1       6.504   1.934   0.976  0.00  0.00    +0.147 HD
ENDROOT
BRANCH   5  23
ATOM     23  C   UNL     1       4.914   7.719   2.415  0.00  0.00    -0.000 A 
ATOM     24  C   UNL     1       3.821   8.568   2.609  0.00  0.00    +0.011 A 
ATOM     25  C   UNL     1       3.827   9.468   3.654  0.00  0.00    +0.020 A 
ATOM     26  C   UNL     1       4.918   9.538   4.505  0.00  0.00    +0.041 A 
ATOM     27  C   UNL     1       6.006   8.703   4.316  0.00  0.00    +0.020 A 
ATOM     28  C   UNL     1       6.011   7.795   3.277  0.00  0.00    +0.011 A 
ATOM     29 CL   UNL     1       4.920  10.678   5.814  0.00  0.00    -0.084 Cl
ENDBRANCH   5  23
BRANCH   8  30
ATOM     30  C   UNL     1       3.659   2.721  -0.046  0.00  0.00    -0.018 A 
ATOM     31  C   UNL     1       3.163   2.185  -1.220  0.00  0.00    +0.009 A 
ATOM     32  C   UNL     1       1.893   1.640  -1.252  0.00  0.00    +0.049 A 
ATOM     33  C   UNL     1       1.109   1.643  -0.109  0.00  0.00    +0.158 A 
ATOM     34  C   UNL     1       1.608   2.183   1.072  0.00  0.00    +0.159 A 
ATOM     35  C   UNL     1       2.885   2.722   1.099  0.00  0.00    +0.055 A 
BRANCH  34  36
ATOM     36  O   UNL     1       0.845   2.184   2.197  0.00  0.00    -0.503 OA
ATOM     37  H   UNL     1       1.241   2.611   3.130  0.00  0.00    +0.292 HD
ENDBRANCH  34  36
BRANCH  33  38
ATOM     38  O   UNL     1      -0.143   1.113  -0.140  0.00  0.00    -0.503 OA
ATOM     39  H   UNL     1      -0.764   1.116   0.767  0.00  0.00    +0.292 HD
ENDBRANCH  33  38
ENDBRANCH   8  30
TORSDOF 4
