REMARK  Name = ZINC12499973
REMARK  12 active torsions:
REMARK  status: ('A' for Active; 'I' for Inactive)
REMARK    1  A    between atoms: C_1  and  C_2
REMARK    2  A    between atoms: C_4  and  O_12
REMARK    3  A    between atoms: C_5  and  C_9
REMARK    4  A    between atoms: C_9  and  C_10
REMARK    5  A    between atoms: C_9  and  C_11
REMARK    6  A    between atoms: O_12  and  C_13
REMARK    7  A    between atoms: C_13  and  C_14
REMARK    8  A    between atoms: N_16  and  C_17
REMARK    9  A    between atoms: C_17  and  N_19
REMARK   10  A    between atoms: N_19  and  C_20
REMARK   11  A    between atoms: C_22  and  N_27
REMARK   12  A    between atoms: C_25  and  O_26
REMARK                            x       y       z     vdW  Elec       q    Type
REMARK                         _______ _______ _______ _____ _____    ______ ____
ROOT
ATOM      1  C   UNL     1       0.491  -2.775  -4.809  0.00  0.00    +0.256 C 
ATOM      2  O   UNL     1       0.745  -3.951  -4.654  0.00  0.00    -0.272 OA
ATOM      3  N   UNL     1       0.232  -2.300  -6.043  0.00  0.00    -0.265 N 
ATOM      4  H   UNL     1       0.030  -1.359  -6.168  0.00  0.00    +0.157 HD
ENDROOT
BRANCH   3   5
ATOM      5  C   UNL     1       0.255  -3.130  -7.104  0.00  0.00    +0.141 C 
ATOM      6  S   UNL     1       0.613  -4.790  -6.885  0.00  0.00    -0.018 S 
BRANCH   5   7
ATOM      7  N   UNL     1      -0.004  -2.655  -8.338  0.00  0.00    -0.294 N 
ATOM      8  H   UNL     1      -0.268  -1.728  -8.456  0.00  0.00    +0.154 HD
BRANCH   7   9
ATOM      9  C   UNL     1       0.107  -3.497  -9.452  0.00  0.00    +0.077 A 
ATOM     10  C   UNL     1      -0.465  -4.761  -9.428  0.00  0.00    +0.059 A 
ATOM     11  C   UNL     1      -0.354  -5.590 -10.528  0.00  0.00    +0.128 A 
ATOM     12  C   UNL     1       0.327  -5.165 -11.653  0.00  0.00    +0.036 A 
ATOM     13  C   UNL     1       0.901  -3.907 -11.684  0.00  0.00    +0.049 A 
ATOM     14  C   UNL     1       0.789  -3.067 -10.588  0.00  0.00    +0.138 A 
BRANCH  11  15
ATOM     15  N   UNL     1      -0.966  -6.938 -10.501  0.00  0.00    +0.056 N 
ATOM     16  O   UNL     1      -1.562  -7.311  -9.518  0.00  0.00    -0.126 OA
ATOM     17  O   UNL     1      -0.870  -7.665 -11.462  0.00  0.00    -0.126 OA
ENDBRANCH  11  15
BRANCH  14  18
ATOM     18  O   UNL     1       1.348  -1.828 -10.619  0.00  0.00    -0.505 OA
ATOM     19  H   UNL     1       2.261  -1.800 -10.302  0.00  0.00    +0.292 HD
ENDBRANCH  14  18
ENDBRANCH   7   9
ENDBRANCH   5   7
ENDBRANCH   3   5
BRANCH   1  20
ATOM     20  C   UNL     1       0.466  -1.846  -3.623  0.00  0.00    +0.325 C 
BRANCH  20  21
ATOM     21  O   UNL     1       0.770  -2.582  -2.436  0.00  0.00    -0.482 OA
BRANCH  21  25
ATOM     22  C   UNL     1       0.248   1.657  -0.072  0.00  0.00    +0.045 C 
ATOM     23  C   UNL     1       0.539   0.178  -0.076  0.00  0.00    -0.033 A 
ATOM     24  C   UNL     1       0.520  -0.526  -1.264  0.00  0.00    +0.050 A 
ATOM     25  C   UNL     1       0.789  -1.887  -1.268  0.00  0.00    +0.125 A 
ATOM     26  C   UNL     1       1.077  -2.538  -0.077  0.00  0.00    -0.002 A 
ATOM     27  C   UNL     1       1.095  -1.831   1.109  0.00  0.00    +0.023 A 
ATOM     28  C   UNL     1       0.831  -0.472   1.110  0.00  0.00    +0.021 A 
ATOM     29 BR   UNL     1       0.864   0.496   2.734  0.00  0.00    -0.050 Br
BRANCH  26  30
ATOM     30  C   UNL     1       1.368  -4.017  -0.077  0.00  0.00    +0.016 C 
ATOM     31  C   UNL     1       2.774  -4.259   0.476  0.00  0.00    +0.012 C 
ATOM     32  C   UNL     1       0.344  -4.739   0.800  0.00  0.00    +0.012 C 
ENDBRANCH  26  30
ENDBRANCH  21  25
ENDBRANCH  20  21
ENDBRANCH   1  20
TORSDOF 9
