REMARK  Name = ZINC15675079
REMARK  8 active torsions:
REMARK  status: ('A' for Active; 'I' for Inactive)
REMARK    1  A    between atoms: C_1  and  O_2
REMARK    2  A    between atoms: O_2  and  C_3
REMARK    3  A    between atoms: C_6  and  C_13
REMARK    4  A    between atoms: C_13  and  N_56
REMARK    5  A    between atoms: C_15  and  O_34
REMARK    6  A    between atoms: C_18  and  C_20
REMARK    7  A    between atoms: C_22  and  C_25
REMARK    8  A    between atoms: C_25  and  C_26
REMARK                            x       y       z     vdW  Elec       q    Type
REMARK                         _______ _______ _______ _____ _____    ______ ____
ROOT
ATOM      1  C   UNL     1      -5.591   0.847   6.778  0.00  0.00    -0.046 C 
ATOM      2  C   UNL     1      -4.590   1.886   7.316  0.00  0.00    +0.097 C 
ATOM      3  C   UNL     1      -3.666   2.219   6.120  0.00  0.00    +0.023 C 
ATOM      4  C   UNL     1      -4.525   1.806   4.898  0.00  0.00    +0.025 C 
ATOM      5  N   UNL     1      -5.211   0.603   5.382  0.00  0.00    +0.392 N 
ATOM      6  H   UNL     1      -4.575  -0.202   5.331  0.00  0.00    -0.080 HD
ENDROOT
BRANCH   4   7
ATOM      7  C   UNL     1      -3.648   1.491   3.713  0.00  0.00    +0.214 A 
ATOM      8  N   UNL     1      -3.515   2.212   2.626  0.00  0.00    -0.197 NA
ATOM      9  C   UNL     1      -2.637   1.547   1.855  0.00  0.00    +0.176 A 
ATOM     10  N   UNL     1      -2.291   0.472   2.499  0.00  0.00    -0.061 NA
ATOM     11  O   UNL     1      -2.856   0.424   3.571  0.00  0.00    -0.340 OA
BRANCH   9  12
ATOM     12  C   UNL     1      -2.148   1.967   0.493  0.00  0.00    +0.116 C 
BRANCH  12  13
ATOM     13  C   UNL     1      -0.915   2.820   0.642  0.00  0.00    -0.021 A 
ATOM     14  C   UNL     1      -1.028   4.198   0.668  0.00  0.00    +0.008 A 
ATOM     15  C   UNL     1       0.103   4.981   0.799  0.00  0.00    +0.039 A 
ATOM     16  C   UNL     1       1.349   4.387   0.909  0.00  0.00    +0.125 A 
ATOM     17  C   UNL     1       1.461   3.007   0.888  0.00  0.00    +0.058 A 
ATOM     18  C   UNL     1       0.328   2.224   0.758  0.00  0.00    +0.047 A 
ATOM     19 CL   UNL     1       0.467   0.494   0.732  0.00  0.00    -0.083 Cl
ATOM     20  F   UNL     1       2.454   5.153   1.037  0.00  0.00    -0.205 F 
ENDBRANCH  12  13
ENDBRANCH   9  12
ENDBRANCH   4   7
BRANCH   2  21
ATOM     21  O   UNL     1      -5.278   3.061   7.749  0.00  0.00    -0.394 OA
ATOM     22  H   UNL     1      -5.905   2.907   8.469  0.00  0.00    +0.210 HD
ENDBRANCH   2  21
BRANCH   5  23
ATOM     23  C   UNL     1      -6.424   0.322   4.557  0.00  0.00    -0.041 C 
BRANCH  23  27
ATOM     24  C   UNL     1      -7.980  -3.577   5.508  0.00  0.00    +0.128 A 
ATOM     25  C   UNL     1      -8.559  -2.441   6.002  0.00  0.00    +0.046 A 
ATOM     26  C   UNL     1      -8.048  -1.185   5.689  0.00  0.00    +0.006 A 
ATOM     27  C   UNL     1      -6.959  -1.050   4.883  0.00  0.00    -0.056 A 
ATOM     28  C   UNL     1      -6.339  -2.192   4.350  0.00  0.00    -0.013 A 
ATOM     29  C   UNL     1      -6.851  -3.474   4.670  0.00  0.00    +0.024 A 
ATOM     30  C   UNL     1      -6.228  -4.617   4.143  0.00  0.00    +0.012 A 
ATOM     31  C   UNL     1      -5.139  -4.479   3.338  0.00  0.00    +0.001 A 
ATOM     32  C   UNL     1      -4.631  -3.219   3.028  0.00  0.00    +0.001 A 
ATOM     33  C   UNL     1      -5.209  -2.090   3.520  0.00  0.00    +0.009 A 
BRANCH  24  35
ATOM     34  C   UNL     1      -9.635  -4.819   6.677  0.00  0.00    +0.277 C 
ATOM     35  O   UNL     1      -8.490  -4.796   5.822  0.00  0.00    -0.495 OA
ENDBRANCH  24  35
ENDBRANCH  23  27
ENDBRANCH   5  23
TORSDOF 7
