REMARK  Name = ZINC12883374
REMARK  4 active torsions:
REMARK  status: ('A' for Active; 'I' for Inactive)
REMARK    1  A    between atoms: C_1  and  C_2
REMARK    2  A    between atoms: C_13  and  C_15
REMARK    3  A    between atoms: C_15  and  C_16
REMARK    4  A    between atoms: N_28  and  C_31
REMARK                            x       y       z     vdW  Elec       q    Type
REMARK                         _______ _______ _______ _____ _____    ______ ____
ROOT
ATOM      1  C   UNL     1       3.484  -2.041   2.585  0.00  0.00    +0.044 C 
ATOM      2  C   UNL     1       2.963  -0.640   2.396  0.00  0.00    -0.050 A 
ATOM      3  C   UNL     1       3.196   0.323   3.361  0.00  0.00    +0.005 A 
ATOM      4  C   UNL     1       2.722   1.607   3.193  0.00  0.00    +0.024 A 
ATOM      5  C   UNL     1       2.004   1.945   2.049  0.00  0.00    +0.036 A 
ATOM      6  C   UNL     1       1.776   0.969   1.083  0.00  0.00    -0.027 A 
ATOM      7  C   UNL     1       2.251  -0.312   1.255  0.00  0.00    +0.008 A 
ATOM      8  C   UNL     1       0.990   1.643  -0.005  0.00  0.00    +0.050 C 
ATOM      9  C   UNL     1       1.724   1.582  -1.350  0.00  0.00    +0.088 C 
ATOM     10  C   UNL     1       0.596   1.410  -2.405  0.00  0.00    +0.074 C 
ATOM     11  C   UNL     1      -0.713   1.408  -1.588  0.00  0.00    -0.053 C 
ATOM     12  C   UNL     1       0.675   2.687  -3.211  0.00  0.00    +0.228 C 
ATOM     13  O   UNL     1      -0.035   2.967  -4.152  0.00  0.00    -0.275 OA
ATOM     14  N   UNL     1       1.651   3.461  -2.722  0.00  0.00    -0.210 N 
ATOM     15  C   UNL     1       2.304   2.939  -1.677  0.00  0.00    +0.229 C 
ATOM     16  O   UNL     1       3.218   3.472  -1.085  0.00  0.00    -0.275 OA
ATOM     17  C   UNL     1       0.813   3.062   0.461  0.00  0.00    +0.211 C 
ATOM     18  O   UNL     1       0.231   3.950  -0.125  0.00  0.00    -0.277 OA
ATOM     19  N   UNL     1       1.429   3.156   1.656  0.00  0.00    -0.286 N 
ATOM     20  H   UNL     1       1.468   3.970   2.182  0.00  0.00    +0.155 HD
ATOM     21  N   UNL     1      -0.292   1.002  -0.245  0.00  0.00    +0.394 N 
ATOM     22  H   UNL     1      -0.980   1.313   0.452  0.00  0.00    -0.083 HD
ATOM     23  H   UNL     1      -0.193  -0.018  -0.197  0.00  0.00    -0.083 HD
ENDROOT
BRANCH  14  24
ATOM     24  C   UNL     1       1.964   4.717  -3.260  0.00  0.00    +0.044 A 
ATOM     25  C   UNL     1       3.182   4.918  -3.896  0.00  0.00    +0.024 A 
ATOM     26  C   UNL     1       3.485   6.155  -4.430  0.00  0.00    +0.002 A 
ATOM     27  C   UNL     1       2.582   7.196  -4.322  0.00  0.00    +0.000 A 
ATOM     28  C   UNL     1       1.370   7.001  -3.685  0.00  0.00    +0.002 A 
ATOM     29  C   UNL     1       1.059   5.765  -3.154  0.00  0.00    +0.024 A 
ENDBRANCH  14  24
BRANCH  11  30
ATOM     30  C   UNL     1      -1.712   0.413  -2.184  0.00  0.00    +0.022 C 
BRANCH  30  31
ATOM     31  C   UNL     1      -2.998   0.462  -1.400  0.00  0.00    -0.024 A 
ATOM     32  C   UNL     1      -3.344  -0.344  -0.384  0.00  0.00    +0.087 A 
ATOM     33  N   UNL     1      -4.584  -0.001   0.082  0.00  0.00    -0.360 N 
ATOM     34  H   UNL     1      -5.046  -0.441   0.813  0.00  0.00    +0.165 HD
ATOM     35  C   UNL     1      -5.079   1.061  -0.642  0.00  0.00    +0.047 A 
ATOM     36  C   UNL     1      -4.104   1.401  -1.598  0.00  0.00    +0.003 A 
ATOM     37  C   UNL     1      -4.332   2.459  -2.479  0.00  0.00    +0.010 A 
ATOM     38  C   UNL     1      -5.502   3.162  -2.406  0.00  0.00    +0.001 A 
ATOM     39  C   UNL     1      -6.465   2.833  -1.463  0.00  0.00    +0.002 A 
ATOM     40  C   UNL     1      -6.264   1.787  -0.588  0.00  0.00    +0.026 A 
ENDBRANCH  30  31
ENDBRANCH  11  30
TORSDOF 3
