REMARK  Name = ZINC44714620
REMARK  11 active torsions:
REMARK  status: ('A' for Active; 'I' for Inactive)
REMARK    1  A    between atoms: C_1  and  C_2
REMARK    2  A    between atoms: C_3  and  C_14
REMARK    3  A    between atoms: C_6  and  C_12
REMARK    4  A    between atoms: C_14  and  C_15
REMARK    5  A    between atoms: C_15  and  N_16
REMARK    6  A    between atoms: C_17  and  C_19
REMARK    7  A    between atoms: C_30  and  C_32
REMARK    8  A    between atoms: C_34  and  O_40
REMARK    9  A    between atoms: C_37  and  O_38
REMARK   10  A    between atoms: O_38  and  C_39
REMARK   11  A    between atoms: O_40  and  C_41
REMARK                            x       y       z     vdW  Elec       q    Type
REMARK                         _______ _______ _______ _____ _____    ______ ____
ROOT
ATOM      1  C   UNL     1       2.556   1.090  -6.479  0.00  0.00    +0.100 C 
ATOM      2  C   UNL     1       1.773   2.417  -6.593  0.00  0.00    +0.121 C 
ATOM      3  N   UNL     1       2.809   3.472  -6.500  0.00  0.00    -0.296 N 
ATOM      4  C   UNL     1       3.952   2.936  -7.278  0.00  0.00    +0.115 C 
ATOM      5  C   UNL     1       3.984   1.434  -6.933  0.00  0.00    -0.004 C 
ATOM      6  C   UNL     1       4.359   0.617  -8.165  0.00  0.00    -0.010 C 
ATOM      7  C   UNL     1       5.803   0.932  -8.562  0.00  0.00    -0.082 C 
ATOM      8  N   UNL     1       6.701   0.611  -7.446  0.00  0.00    +0.379 N 
ATOM      9  C   UNL     1       6.394   1.468  -6.294  0.00  0.00    -0.082 C 
ATOM     10  C   UNL     1       4.974   1.174  -5.801  0.00  0.00    -0.010 C 
ATOM     11  C   UNL     1       2.730   4.653  -5.856  0.00  0.00    +0.250 C 
ATOM     12  O   UNL     1       1.754   4.911  -5.177  0.00  0.00    -0.270 OA
ATOM     13  H   UNL     1       6.579  -0.356  -7.186  0.00  0.00    -0.086 HD
ATOM     14  H   UNL     1       7.657   0.763  -7.731  0.00  0.00    -0.086 HD
ENDROOT
BRANCH  11  15
ATOM     15  C   UNL     1       3.827   5.633  -5.973  0.00  0.00    +0.082 A 
ATOM     16  C   UNL     1       4.531   5.758  -7.173  0.00  0.00    +0.062 A 
ATOM     17  C   UNL     1       5.558   6.678  -7.276  0.00  0.00    +0.121 A 
ATOM     18  C   UNL     1       5.891   7.477  -6.189  0.00  0.00    +0.049 A 
ATOM     19  C   UNL     1       5.200   7.360  -5.000  0.00  0.00    +0.050 A 
ATOM     20  C   UNL     1       4.164   6.445  -4.883  0.00  0.00    +0.132 A 
BRANCH  20  21
ATOM     21  O   UNL     1       3.483   6.335  -3.714  0.00  0.00    -0.494 OA
ATOM     22  C   UNL     1       3.882   7.196  -2.646  0.00  0.00    +0.277 C 
ENDBRANCH  20  21
BRANCH  17  23
ATOM     23  O   UNL     1       6.244   6.801  -8.444  0.00  0.00    -0.495 OA
ATOM     24  C   UNL     1       7.292   7.771  -8.481  0.00  0.00    +0.277 C 
ENDBRANCH  17  23
ENDBRANCH  11  15
BRANCH   1  26
ATOM     25  N   UNL     1       2.608  -0.716  -4.790  0.00  0.00    -0.315 N 
ATOM     26  C   UNL     1       2.560   0.605  -5.052  0.00  0.00    +0.218 C 
ATOM     27  O   UNL     1       2.521   1.403  -4.140  0.00  0.00    -0.275 OA
ATOM     28  H   UNL     1       2.639  -1.355  -5.519  0.00  0.00    +0.149 HD
BRANCH  25  29
ATOM     29  C   UNL     1       2.613  -1.188  -3.403  0.00  0.00    +0.109 C 
BRANCH  29  30
ATOM     30  C   UNL     1       2.671  -2.716  -3.384  0.00  0.00    +0.056 C 
BRANCH  30  33
ATOM     31  C   UNL     1       0.170  -3.400  -1.676  0.00  0.00    +0.063 C 
ATOM     32  C   UNL     1       1.600  -3.500  -1.211  0.00  0.00    +0.017 A 
ATOM     33  C   UNL     1       2.675  -3.201  -1.957  0.00  0.00    -0.018 A 
ATOM     34  C   UNL     1       3.855  -3.438  -1.120  0.00  0.00    +0.004 A 
ATOM     35  C   UNL     1       5.227  -3.312  -1.325  0.00  0.00    +0.029 A 
ATOM     36  C   UNL     1       6.104  -3.627  -0.291  0.00  0.00    +0.052 A 
ATOM     37  C   UNL     1       5.605  -4.068   0.943  0.00  0.00    +0.021 A 
ATOM     38  C   UNL     1       4.262  -4.193   1.145  0.00  0.00    +0.027 A 
ATOM     39  C   UNL     1       3.366  -3.882   0.124  0.00  0.00    +0.047 A 
ATOM     40  N   UNL     1       1.994  -3.903   0.036  0.00  0.00    -0.358 N 
ATOM     41  H   UNL     1       1.395  -4.166   0.751  0.00  0.00    +0.166 HD
BRANCH  36  42
ATOM     42  C   UNL     1       7.517  -3.503  -0.488  0.00  0.00    +0.099 C 
ATOM     43  N   UNL     1       8.637  -3.404  -0.644  0.00  0.00    -0.191 NA
ENDBRANCH  36  42
ENDBRANCH  30  33
ENDBRANCH  29  30
ENDBRANCH  25  29
ENDBRANCH   1  26
TORSDOF 8
