REMARK  Name = ZINC39685980
REMARK  6 active torsions:
REMARK  status: ('A' for Active; 'I' for Inactive)
REMARK    1  A    between atoms: C_1  and  C_2
REMARK    2  A    between atoms: C_2  and  C_3
REMARK    3  A    between atoms: C_2  and  C_4
REMARK    4  A    between atoms: C_9  and  N_12
REMARK    5  A    between atoms: C_13  and  C_15
REMARK    6  A    between atoms: C_26  and  C_28
REMARK                            x       y       z     vdW  Elec       q    Type
REMARK                         _______ _______ _______ _____ _____    ______ ____
ROOT
ATOM      1  C   UNL     1      -4.239  -6.925  -2.661  0.00  0.00    +0.100 C 
ATOM      2  C   UNL     1      -4.670  -6.535  -4.093  0.00  0.00    +0.121 C 
ATOM      3  N   UNL     1      -5.647  -7.578  -4.487  0.00  0.00    -0.296 N 
ATOM      4  C   UNL     1      -6.436  -7.827  -3.257  0.00  0.00    +0.115 C 
ATOM      5  C   UNL     1      -5.401  -7.772  -2.115  0.00  0.00    -0.004 C 
ATOM      6  C   UNL     1      -6.009  -7.106  -0.885  0.00  0.00    -0.010 C 
ATOM      7  C   UNL     1      -7.123  -7.995  -0.326  0.00  0.00    -0.082 C 
ATOM      8  N   UNL     1      -6.573  -9.310   0.026  0.00  0.00    +0.379 N 
ATOM      9  C   UNL     1      -6.074  -9.983  -1.180  0.00  0.00    -0.082 C 
ATOM     10  C   UNL     1      -4.916  -9.178  -1.774  0.00  0.00    -0.010 C 
ATOM     11  C   UNL     1      -5.785  -8.167  -5.691  0.00  0.00    +0.247 C 
ATOM     12  O   UNL     1      -4.979  -7.944  -6.573  0.00  0.00    -0.270 OA
ATOM     13  H   UNL     1      -5.815  -9.191   0.681  0.00  0.00    -0.086 HD
ATOM     14  H   UNL     1      -7.295  -9.873   0.449  0.00  0.00    -0.086 HD
ENDROOT
BRANCH  11  15
ATOM     15  C   UNL     1      -6.918  -9.083  -5.939  0.00  0.00    +0.037 A 
ATOM     16  C   UNL     1      -8.056  -9.024  -5.134  0.00  0.00    +0.014 A 
ATOM     17  C   UNL     1      -9.110  -9.882  -5.371  0.00  0.00    +0.021 A 
ATOM     18  C   UNL     1      -9.040 -10.800  -6.405  0.00  0.00    +0.041 A 
ATOM     19  C   UNL     1      -7.913 -10.864  -7.208  0.00  0.00    +0.021 A 
ATOM     20  C   UNL     1      -6.855 -10.008  -6.984  0.00  0.00    +0.014 A 
ATOM     21 CL   UNL     1     -10.370 -11.877  -6.697  0.00  0.00    -0.084 Cl
ENDBRANCH  11  15
BRANCH   1  23
ATOM     22  N   UNL     1      -3.150  -5.695  -0.812  0.00  0.00    -0.312 N 
ATOM     23  C   UNL     1      -4.048  -5.691  -1.816  0.00  0.00    +0.218 C 
ATOM     24  O   UNL     1      -4.703  -4.695  -2.041  0.00  0.00    -0.275 OA
ATOM     25  H   UNL     1      -2.626  -6.492  -0.632  0.00  0.00    +0.149 HD
BRANCH  22  31
ATOM     26  C   UNL     1      -0.326  -2.149   2.108  0.00  0.00    +0.218 C 
ATOM     27  O   UNL     1       0.312  -1.292   1.534  0.00  0.00    -0.275 OA
ATOM     28  N   UNL     1      -1.423  -2.675   1.529  0.00  0.00    -0.301 N 
ATOM     29  C   UNL     1      -2.259  -3.645   2.249  0.00  0.00    +0.109 C 
ATOM     30  C   UNL     1      -2.419  -4.897   1.382  0.00  0.00    +0.041 C 
ATOM     31  C   UNL     1      -2.964  -4.496   0.009  0.00  0.00    +0.076 C 
ATOM     32  C   UNL     1      -1.972  -3.555  -0.680  0.00  0.00    +0.041 C 
ATOM     33  C   UNL     1      -1.810  -2.283   0.166  0.00  0.00    +0.109 C 
BRANCH  26  35
ATOM     34  C   UNL     1       0.912  -3.921   3.324  0.00  0.00    +0.017 C 
ATOM     35  C   UNL     1       0.109  -2.627   3.470  0.00  0.00    +0.069 C 
ATOM     36  C   UNL     1       0.982  -1.558   4.131  0.00  0.00    +0.017 C 
ENDBRANCH  26  35
ENDBRANCH  22  31
ENDBRANCH   1  23
TORSDOF 4
