REMARK  Name = ZINC65548749
REMARK  8 active torsions:
REMARK  status: ('A' for Active; 'I' for Inactive)
REMARK    1  A    between atoms: C_1  and  C_2
REMARK    2  A    between atoms: C_2  and  O_3
REMARK    3  A    between atoms: O_3  and  C_4
REMARK    4  A    between atoms: C_4  and  C_6
REMARK    5  A    between atoms: C_17  and  N_19
REMARK    6  A    between atoms: C_20  and  C_22
REMARK    7  A    between atoms: C_22  and  S_23
REMARK    8  A    between atoms: S_23  and  C_24
REMARK                            x       y       z     vdW  Elec       q    Type
REMARK                         _______ _______ _______ _____ _____    ______ ____
ROOT
ATOM      1  N   UNL     1      -0.452  -1.218   3.467  0.00  0.00    -0.302 N 
ATOM      2  C   UNL     1      -1.571  -1.495   4.165  0.00  0.00    +0.224 C 
ATOM      3  O   UNL     1      -1.540  -2.311   5.062  0.00  0.00    -0.275 OA
ATOM      4  H   UNL     1      -0.476  -0.565   2.750  0.00  0.00    +0.150 HD
ENDROOT
BRANCH   1  13
ATOM      5  C   UNL     1       1.516  -2.381   2.500  0.00  0.00    +0.132 C 
ATOM      6  C   UNL     1       1.531  -3.881   2.389  0.00  0.00    +0.018 C 
ATOM      7  C   UNL     1       2.526  -4.533   1.461  0.00  0.00    +0.005 C 
ATOM      8  C   UNL     1       2.123  -6.010   1.309  0.00  0.00    +0.000 C 
ATOM      9  C   UNL     1       2.054  -6.702   2.668  0.00  0.00    +0.001 C 
ATOM     10  C   UNL     1       1.104  -5.968   3.625  0.00  0.00    +0.014 C 
ATOM     11  C   UNL     1       1.654  -4.545   3.787  0.00  0.00    +0.052 C 
ATOM     12  S   UNL     1       0.470  -3.473   4.699  0.00  0.00    -0.134 S 
ATOM     13  C   UNL     1       0.802  -1.902   3.792  0.00  0.00    +0.145 C 
BRANCH   5  14
ATOM     14  C   UNL     1       0.801  -1.808   1.304  0.00  0.00    +0.313 C 
ATOM     15  O   UNL     1       0.324  -2.546   0.475  0.00  0.00    -0.250 OA
BRANCH  14  16
ATOM     16  O   UNL     1       0.693  -0.477   1.160  0.00  0.00    -0.465 OA
BRANCH  16  18
ATOM     17  C   UNL     1      -0.019   1.526   0.010  0.00  0.00    +0.048 C 
ATOM     18  C   UNL     1       0.002  -0.004   0.002  0.00  0.00    +0.229 C 
ENDBRANCH  16  18
ENDBRANCH  14  16
ENDBRANCH   5  14
ENDBRANCH   1  13
BRANCH   2  19
ATOM     19  C   UNL     1      -2.861  -0.791   3.831  0.00  0.00    +0.168 C 
BRANCH  19  20
ATOM     20  S   UNL     1      -4.173  -1.376   4.938  0.00  0.00    -0.106 S 
BRANCH  20  21
ATOM     21  C   UNL     1      -5.639  -0.445   4.412  0.00  0.00    +0.236 C 
ATOM     22  N   UNL     1      -5.898  -0.677   2.986  0.00  0.00    -0.355 N 
ATOM     23  C   UNL     1      -5.821   0.474   2.382  0.00  0.00    +0.061 A 
ATOM     24  C   UNL     1      -5.982   0.879   0.979  0.00  0.00    +0.027 A 
ATOM     25  C   UNL     1      -5.841   2.176   0.641  0.00  0.00    +0.002 A 
ATOM     26  C   UNL     1      -5.544   3.177   1.583  0.00  0.00    +0.002 A 
ATOM     27  C   UNL     1      -5.377   2.914   2.894  0.00  0.00    +0.027 A 
ATOM     28  C   UNL     1      -5.506   1.533   3.379  0.00  0.00    +0.061 A 
ATOM     29  N   UNL     1      -5.400   0.996   4.560  0.00  0.00    -0.355 N 
ATOM     30  H   UNL     1      -6.091  -1.531   2.569  0.00  0.00    +0.162 HD
ATOM     31  H   UNL     1      -5.200   1.463   5.387  0.00  0.00    +0.162 HD
ENDBRANCH  20  21
ENDBRANCH  19  20
ENDBRANCH   2  19
TORSDOF 7
