REMARK  Name = ZINC39664433
REMARK  11 active torsions:
REMARK  status: ('A' for Active; 'I' for Inactive)
REMARK    1  A    between atoms: C_1  and  C_2
REMARK    2  A    between atoms: C_4  and  C_11
REMARK    3  A    between atoms: N_5  and  C_7
REMARK    4  A    between atoms: C_7  and  C_8
REMARK    5  A    between atoms: C_7  and  C_9
REMARK    6  A    between atoms: C_7  and  C_10
REMARK    7  A    between atoms: C_15  and  C_24
REMARK    8  A    between atoms: N_26  and  C_27
REMARK    9  A    between atoms: C_27  and  C_28
REMARK   10  A    between atoms: C_28  and  C_30
REMARK   11  A    between atoms: C_28  and  N_36
REMARK                            x       y       z     vdW  Elec       q    Type
REMARK                         _______ _______ _______ _____ _____    ______ ____
ROOT
ATOM      1  C   UNL     1      -0.574  -3.784  -1.904  0.00  0.00    +0.265 C 
ATOM      2  O   UNL     1      -0.677  -3.740  -3.115  0.00  0.00    -0.268 OA
ATOM      3  N   UNL     1      -0.571  -4.974  -1.271  0.00  0.00    -0.295 N 
ATOM      4  C   UNL     1      -0.589  -5.226   0.190  0.00  0.00    +0.121 C 
ATOM      5  C   UNL     1      -1.527  -6.441   0.365  0.00  0.00    +0.100 C 
ATOM      6  C   UNL     1      -1.495  -7.160  -0.994  0.00  0.00    -0.004 C 
ATOM      7  C   UNL     1      -0.556  -6.327  -1.878  0.00  0.00    +0.115 C 
ATOM      8  C   UNL     1      -0.950  -8.576  -0.831  0.00  0.00    -0.010 C 
ATOM      9  C   UNL     1      -0.983  -9.290  -2.185  0.00  0.00    -0.082 C 
ATOM     10  N   UNL     1      -2.362  -9.330  -2.686  0.00  0.00    +0.379 N 
ATOM     11  C   UNL     1      -2.847  -7.966  -2.928  0.00  0.00    -0.082 C 
ATOM     12  C   UNL     1      -2.893  -7.196  -1.606  0.00  0.00    -0.010 C 
ATOM     13  H   UNL     1      -2.391  -9.854  -3.548  0.00  0.00    -0.086 HD
ATOM     14  H   UNL     1      -2.954  -9.779  -2.003  0.00  0.00    -0.086 HD
ENDROOT
BRANCH   1  18
ATOM     15  C   UNL     1       0.089  -0.404   1.819  0.00  0.00    +0.067 C 
ATOM     16  C   UNL     1      -0.165  -1.052   0.482  0.00  0.00    +0.061 A 
ATOM     17  C   UNL     1      -0.178  -2.424   0.222  0.00  0.00    +0.057 A 
ATOM     18  C   UNL     1      -0.452  -2.539  -1.130  0.00  0.00    +0.124 A 
ATOM     19  N   UNL     1      -0.586  -1.264  -1.602  0.00  0.00    -0.254 N 
ATOM     20  N   UNL     1      -0.418  -0.428  -0.641  0.00  0.00    -0.175 NA
BRANCH  19  21
ATOM     21  C   UNL     1      -0.881  -0.905  -2.991  0.00  0.00    +0.056 C 
ATOM     22  C   UNL     1      -2.154  -1.622  -3.444  0.00  0.00    +0.036 C 
ATOM     23  C   UNL     1      -1.084   0.608  -3.094  0.00  0.00    +0.036 C 
ATOM     24  C   UNL     1       0.287  -1.324  -3.886  0.00  0.00    +0.036 C 
ENDBRANCH  19  21
ENDBRANCH   1  18
BRANCH   5  25
ATOM     25  C   UNL     1      -1.012  -7.348   1.453  0.00  0.00    +0.218 C 
ATOM     26  O   UNL     1       0.172  -7.373   1.713  0.00  0.00    -0.275 OA
ATOM     27  N   UNL     1      -1.869  -8.132   2.138  0.00  0.00    -0.313 N 
ATOM     28  H   UNL     1      -2.804  -8.166   1.883  0.00  0.00    +0.149 HD
BRANCH  27  29
ATOM     29  C   UNL     1      -1.387  -8.932   3.267  0.00  0.00    +0.127 C 
BRANCH  29  30
ATOM     30  C   UNL     1      -2.526  -9.807   3.794  0.00  0.00    +0.104 C 
BRANCH  30  31
ATOM     31  C   UNL     1      -3.600  -8.932   4.385  0.00  0.00    -0.029 A 
ATOM     32  C   UNL     1      -3.448  -8.415   5.658  0.00  0.00    +0.005 A 
ATOM     33  C   UNL     1      -4.433  -7.612   6.201  0.00  0.00    +0.000 A 
ATOM     34  C   UNL     1      -5.571  -7.325   5.471  0.00  0.00    +0.000 A 
ATOM     35  C   UNL     1      -5.724  -7.841   4.197  0.00  0.00    +0.000 A 
ATOM     36  C   UNL     1      -4.736  -8.641   3.653  0.00  0.00    +0.005 A 
ENDBRANCH  30  31
BRANCH  30  37
ATOM     37  N   UNL     1      -2.008 -10.714   4.828  0.00  0.00    -0.290 NA
ATOM     38  C   UNL     1      -0.855 -11.477   4.329  0.00  0.00    +0.113 C 
ATOM     39  C   UNL     1      -0.312 -12.363   5.454  0.00  0.00    +0.175 C 
ATOM     40  O   UNL     1      -1.358 -13.212   5.933  0.00  0.00    -0.377 OA
ATOM     41  C   UNL     1      -2.497 -12.501   6.426  0.00  0.00    +0.175 C 
ATOM     42  C   UNL     1      -3.062 -11.617   5.311  0.00  0.00    +0.113 C 
ENDBRANCH  30  37
ENDBRANCH  29  30
ENDBRANCH  27  29
ENDBRANCH   5  25
TORSDOF 7
