REMARK  Name = ZINC01241071
REMARK  9 active torsions:
REMARK  status: ('A' for Active; 'I' for Inactive)
REMARK    1  A    between atoms: C_1  and  C_2
REMARK    2  A    between atoms: C_2  and  O_3
REMARK    3  A    between atoms: O_3  and  C_4
REMARK    4  A    between atoms: C_9  and  N_10
REMARK    5  A    between atoms: C_11  and  C_13
REMARK    6  A    between atoms: C_14  and  C_29
REMARK    7  A    between atoms: C_19  and  C_21
REMARK    8  A    between atoms: C_26  and  O_27
REMARK    9  A    between atoms: O_27  and  C_28
REMARK                            x       y       z     vdW  Elec       q    Type
REMARK                         _______ _______ _______ _____ _____    ______ ____
ROOT
ATOM      1  C   UNL     1       0.005   1.757   2.224  0.00  0.00    +0.056 C 
ATOM      2  C   UNL     1      -0.782   1.348   1.206  0.00  0.00    +0.017 C 
ATOM      3  N   UNL     1      -2.132   1.551   1.234  0.00  0.00    -0.300 N 
ATOM      4  C   UNL     1      -2.773   2.144   2.248  0.00  0.00    +0.135 C 
ATOM      5  S   UNL     1      -4.473   2.329   2.159  0.00  0.00    -0.019 S 
ATOM      6  N   UNL     1      -2.123   2.607   3.335  0.00  0.00    -0.315 N 
ATOM      7  C   UNL     1      -0.661   2.442   3.400  0.00  0.00    +0.143 C 
ATOM      8  C   UNL     1      -0.159   0.663   0.017  0.00  0.00    +0.061 C 
ATOM      9  H   UNL     1      -2.755   1.219   0.390  0.00  0.00    +0.154 HD
ATOM     10  H   UNL     1      -2.659   3.097   4.161  0.00  0.00    +0.149 HD
ENDROOT
BRANCH   7  11
ATOM     11  C   UNL     1      -0.338   1.652   4.642  0.00  0.00    +0.019 A 
ATOM     12  C   UNL     1      -1.195   0.656   5.070  0.00  0.00    +0.009 A 
ATOM     13  C   UNL     1      -0.899  -0.069   6.209  0.00  0.00    +0.001 A 
ATOM     14  C   UNL     1       0.255   0.200   6.923  0.00  0.00    +0.004 A 
ATOM     15  C   UNL     1       1.114   1.195   6.499  0.00  0.00    +0.046 A 
ATOM     16  C   UNL     1       0.822   1.920   5.353  0.00  0.00    +0.125 A 
BRANCH  16  17
ATOM     17  O   UNL     1       1.669   2.896   4.930  0.00  0.00    -0.495 OA
ATOM     18  C   UNL     1       2.779   3.203   5.777  0.00  0.00    +0.277 C 
ENDBRANCH  16  17
ENDBRANCH   7  11
BRANCH   1  20
ATOM     19  N   UNL     1       1.912   0.320   2.400  0.00  0.00    -0.279 N 
ATOM     20  C   UNL     1       1.406   1.552   2.194  0.00  0.00    +0.248 C 
ATOM     21  O   UNL     1       2.154   2.490   1.982  0.00  0.00    -0.270 OA
ATOM     22  H   UNL     1       1.236  -0.541   2.506  0.00  0.00    +0.155 HD
BRANCH  19  28
ATOM     23  C   UNL     1       3.846  -1.132   2.291  0.00  0.00    +0.142 A 
ATOM     24  C   UNL     1       5.218  -1.307   2.364  0.00  0.00    +0.047 A 
ATOM     25  C   UNL     1       6.040  -0.228   2.633  0.00  0.00    +0.004 A 
ATOM     26  C   UNL     1       5.496   1.029   2.823  0.00  0.00    +0.002 A 
ATOM     27  C   UNL     1       4.129   1.213   2.747  0.00  0.00    +0.027 A 
ATOM     28  C   UNL     1       3.298   0.136   2.478  0.00  0.00    +0.076 A 
BRANCH  23  29
ATOM     29  O   UNL     1       3.036  -2.193   2.032  0.00  0.00    -0.490 OA
BRANCH  29  31
ATOM     30  C   UNL     1       2.612  -4.525   1.559  0.00  0.00    +0.048 C 
ATOM     31  C   UNL     1       3.655  -3.478   1.956  0.00  0.00    +0.226 C 
ENDBRANCH  29  31
ENDBRANCH  23  29
ENDBRANCH  19  28
ENDBRANCH   1  20
TORSDOF 6
