REMARK  Name = ZINC16445847
REMARK  4 active torsions:
REMARK  status: ('A' for Active; 'I' for Inactive)
REMARK    1  A    between atoms: C_4  and  N_7
REMARK    2  A    between atoms: N_10  and  C_13
REMARK    3  A    between atoms: C_13  and  C_14
REMARK    4  A    between atoms: N_19  and  C_20
REMARK                            x       y       z     vdW  Elec       q    Type
REMARK                         _______ _______ _______ _____ _____    ______ ____
ROOT
ATOM      1  C   UNL     1       7.068  -4.006  -1.615  0.00  0.00    +0.234 C 
ATOM      2  O   UNL     1       6.566  -4.467  -0.613  0.00  0.00    -0.274 OA
ATOM      3  N   UNL     1       7.898  -4.761  -2.363  0.00  0.00    -0.239 N 
ATOM      4  C   UNL     1       8.168  -6.030  -1.996  0.00  0.00    +0.306 C 
ATOM      5  O   UNL     1       7.665  -6.492  -0.991  0.00  0.00    -0.252 OA
ATOM      6  N   UNL     1       8.998  -6.785  -2.743  0.00  0.00    -0.294 N 
ATOM      7  H   UNL     1       8.299  -4.392  -3.165  0.00  0.00    +0.159 HD
ATOM      8  H   UNL     1       9.399  -6.416  -3.545  0.00  0.00    +0.151 HD
ENDROOT
BRANCH   6   9
ATOM      9  C   UNL     1       9.292  -8.163  -2.344  0.00  0.00    +0.037 C 
ATOM     10  C   UNL     1       9.939  -8.166  -0.957  0.00  0.00    +0.029 C 
ATOM     11  C   UNL     1      10.246  -9.605  -0.540  0.00  0.00    -0.008 C 
ATOM     12  C   UNL     1      11.206 -10.235  -1.552  0.00  0.00    +0.007 C 
ATOM     13  C   UNL     1      10.559 -10.233  -2.938  0.00  0.00    -0.008 C 
ATOM     14  C   UNL     1      10.252  -8.793  -3.355  0.00  0.00    +0.029 C 
ATOM     15  C   UNL     1       9.261 -11.040  -2.896  0.00  0.00    +0.007 C 
ATOM     16  C   UNL     1       8.301 -10.411  -1.885  0.00  0.00    -0.008 C 
ATOM     17  C   UNL     1       8.947 -10.413  -0.498  0.00  0.00    +0.007 C 
ATOM     18  C   UNL     1       7.993  -8.971  -2.302  0.00  0.00    +0.029 C 
ENDBRANCH   6   9
BRANCH   1  19
ATOM     19  C   UNL     1       6.766  -2.588  -2.026  0.00  0.00    +0.181 C 
BRANCH  19  23
ATOM     20  N   UNL     1       3.620  -0.649  -0.036  0.00  0.00    -0.327 N 
ATOM     21  C   UNL     1       4.891   0.083  -0.149  0.00  0.00    +0.120 C 
ATOM     22  C   UNL     1       5.711  -0.538  -1.285  0.00  0.00    +0.104 C 
ATOM     23  N   UNL     1       5.844  -1.983  -1.055  0.00  0.00    -0.291 NA
ATOM     24  C   UNL     1       4.536  -2.651  -1.085  0.00  0.00    +0.104 C 
ATOM     25  C   UNL     1       3.668  -2.116   0.065  0.00  0.00    +0.120 C 
BRANCH  20  29
ATOM     26  C   UNL     1      -0.017   1.379   0.011  0.00  0.00    +0.000 A 
ATOM     27  C   UNL     1       0.002  -0.004  -0.011  0.00  0.00    +0.002 A 
ATOM     28  C   UNL     1       1.206  -0.680  -0.027  0.00  0.00    +0.023 A 
ATOM     29  C   UNL     1       2.400   0.031  -0.021  0.00  0.00    +0.030 A 
ATOM     30  C   UNL     1       2.377   1.420   0.002  0.00  0.00    +0.023 A 
ATOM     31  C   UNL     1       1.170   2.089   0.018  0.00  0.00    +0.002 A 
ENDBRANCH  20  29
ENDBRANCH  19  23
ENDBRANCH   1  19
TORSDOF 4
