REMARK  Name = ZINC63617057
REMARK  7 active torsions:
REMARK  status: ('A' for Active; 'I' for Inactive)
REMARK    1  A    between atoms: C_1  and  N_2
REMARK    2  A    between atoms: N_2  and  C_3
REMARK    3  A    between atoms: C_3  and  C_5
REMARK    4  A    between atoms: C_3  and  C_11
REMARK    5  A    between atoms: N_13  and  C_14
REMARK    6  A    between atoms: C_23  and  C_25
REMARK    7  A    between atoms: C_25  and  C_26
REMARK                            x       y       z     vdW  Elec       q    Type
REMARK                         _______ _______ _______ _____ _____    ______ ____
ROOT
ATOM      1  C   UNL     1       0.053  -0.606   1.407  0.00  0.00    +0.192 C 
ENDROOT
BRANCH   1   2
ATOM      2  C   UNL     1      -1.340  -0.639   1.980  0.00  0.00    -0.018 A 
ATOM      3  C   UNL     1      -1.744   0.337   2.872  0.00  0.00    +0.006 A 
ATOM      4  C   UNL     1      -3.022   0.307   3.397  0.00  0.00    +0.000 A 
ATOM      5  C   UNL     1      -3.896  -0.700   3.032  0.00  0.00    +0.000 A 
ATOM      6  C   UNL     1      -3.492  -1.676   2.140  0.00  0.00    +0.000 A 
ATOM      7  C   UNL     1      -2.216  -1.643   1.611  0.00  0.00    +0.006 A 
ENDBRANCH   1   2
BRANCH   1   9
ATOM      8  C   UNL     1      -0.004   1.889   0.948  0.00  0.00    +0.133 C 
ATOM      9  N   UNL     1       0.170   0.515   0.471  0.00  0.00    -0.289 N 
ATOM     10  C   UNL     1       0.436   0.282  -0.830  0.00  0.00    +0.220 C 
ATOM     11  O   UNL     1       0.580  -0.856  -1.225  0.00  0.00    -0.275 OA
BRANCH  10  12
ATOM     12  C   UNL     1       0.556   1.435  -1.793  0.00  0.00    +0.129 C 
BRANCH  12  13
ATOM     13  C   UNL     1       0.855   0.908  -3.172  0.00  0.00    -0.033 C 
ATOM     14  C   UNL     1      -0.036   0.654  -4.157  0.00  0.00    -0.001 A 
ATOM     15  C   UNL     1      -1.496   0.788  -4.236  0.00  0.00    +0.010 A 
ATOM     16  C   UNL     1      -2.125   0.446  -5.383  0.00  0.00    +0.001 A 
ATOM     17  C   UNL     1      -1.420  -0.030  -6.497  0.00  0.00    +0.002 A 
ATOM     18  C   UNL     1      -0.078  -0.180  -6.501  0.00  0.00    +0.026 A 
ATOM     19  C   UNL     1       0.685   0.149  -5.347  0.00  0.00    +0.043 A 
ATOM     20  N   UNL     1       1.973   0.092  -5.107  0.00  0.00    -0.380 N 
ATOM     21  C   UNL     1       2.215   0.561  -3.738  0.00  0.00    +0.145 C 
ATOM     22  H   UNL     1       2.652  -0.206  -5.731  0.00  0.00    +0.160 HD
ENDBRANCH  12  13
ENDBRANCH  10  12
ENDBRANCH   1   9
BRANCH   1  23
ATOM     23  C   UNL     1       1.052  -0.434   2.523  0.00  0.00    +0.242 C 
ATOM     24  O   UNL     1       1.788   0.530   2.534  0.00  0.00    -0.273 OA
ATOM     25  N   UNL     1       1.127  -1.352   3.507  0.00  0.00    -0.284 N 
ATOM     26  H   UNL     1       0.487  -2.080   3.541  0.00  0.00    +0.155 HD
BRANCH  25  27
ATOM     27  C   UNL     1       2.128  -1.253   4.481  0.00  0.00    +0.037 A 
ATOM     28  C   UNL     1       1.859  -1.618   5.794  0.00  0.00    +0.027 A 
ATOM     29  C   UNL     1       2.846  -1.522   6.756  0.00  0.00    +0.051 A 
ATOM     30  C   UNL     1       4.107  -1.062   6.414  0.00  0.00    +0.166 A 
ATOM     31  C   UNL     1       4.381  -0.695   5.098  0.00  0.00    +0.168 A 
ATOM     32  C   UNL     1       3.392  -0.797   4.134  0.00  0.00    +0.072 A 
ATOM     33  O   UNL     1       5.679  -0.280   5.022  0.00  0.00    -0.453 OA
ATOM     34  C   UNL     1       6.077  -0.008   6.379  0.00  0.00    +0.466 C 
ATOM     35  O   UNL     1       5.235  -0.875   7.162  0.00  0.00    -0.453 OA
ENDBRANCH  25  27
ENDBRANCH   1  23
TORSDOF 6
