REMARK  Name = ZINC12509549
REMARK  10 active torsions:
REMARK  status: ('A' for Active; 'I' for Inactive)
REMARK    1  A    between atoms: C_1  and  C_2
REMARK    2  A    between atoms: C_2  and  O_3
REMARK    3  A    between atoms: O_3  and  C_4
REMARK    4  A    between atoms: C_4  and  C_6
REMARK    5  A    between atoms: C_9  and  C_11
REMARK    6  A    between atoms: C_11  and  C_12
REMARK    7  A    between atoms: C_12  and  N_59
REMARK    8  A    between atoms: C_13  and  N_59
REMARK    9  A    between atoms: N_24  and  C_27
REMARK   10  A    between atoms: C_27  and  C_28
REMARK                            x       y       z     vdW  Elec       q    Type
REMARK                         _______ _______ _______ _____ _____    ______ ____
ROOT
ATOM      1  C   UNL     1       1.353   1.550  -0.003  0.00  0.00    -0.067 C 
ATOM      2  C   UNL     1       2.295   0.589   0.727  0.00  0.00    -0.011 C 
ATOM      3  C   UNL     1       3.746   1.018   0.509  0.00  0.00    +0.035 C 
ATOM      4  C   UNL     1       3.889   2.490   0.888  0.00  0.00    -0.023 A 
ATOM      5  C   UNL     1       2.798   3.288   0.970  0.00  0.00    -0.006 A 
ATOM      6  S   UNL     1       3.423   4.884   1.431  0.00  0.00    -0.073 S 
ATOM      7  C   UNL     1       5.139   4.480   1.512  0.00  0.00    +0.116 A 
ATOM      8  C   UNL     1       5.171   3.109   1.176  0.00  0.00    +0.076 A 
ATOM      9  C   UNL     1       6.457   2.473   1.154  0.00  0.00    +0.263 A 
ATOM     10  O   UNL     1       6.594   1.293   0.877  0.00  0.00    -0.267 OA
ATOM     11  N   UNL     1       7.511   3.267   1.461  0.00  0.00    -0.294 N 
ATOM     12  C   UNL     1       7.381   4.579   1.772  0.00  0.00    +0.203 A 
ATOM     13  N   UNL     1       6.221   5.197   1.803  0.00  0.00    -0.230 NA
ATOM     14  C   UNL     1       1.372   2.903   0.723  0.00  0.00    +0.027 C 
ENDROOT
BRANCH   1  15
ATOM     15  N   UNL     1      -0.015   0.998   0.015  0.00  0.00    +0.381 N 
ATOM     16  H   UNL     1       0.032  -0.025  -0.054  0.00  0.00    -0.086 HD
ATOM     17  H   UNL     1      -0.475   1.261   0.894  0.00  0.00    -0.086 HD
BRANCH  15  18
ATOM     18  C   UNL     1      -0.795   1.527  -1.120  0.00  0.00    -0.075 C 
BRANCH  18  19
ATOM     19  C   UNL     1      -2.207   0.938  -1.076  0.00  0.00    +0.044 C 
BRANCH  19  23
ATOM     20  C   UNL     1      -3.902   1.602  -4.335  0.00  0.00    +0.155 A 
ATOM     21  C   UNL     1      -4.532   2.757  -3.941  0.00  0.00    +0.082 A 
ATOM     22  S   UNL     1      -3.998   2.898  -2.296  0.00  0.00    -0.080 S 
ATOM     23  C   UNL     1      -3.011   1.474  -2.232  0.00  0.00    +0.077 A 
ATOM     24  N   UNL     1      -3.133   0.983  -3.438  0.00  0.00    -0.238 NA
BRANCH  20  25
ATOM     25  C   UNL     1      -4.064   1.071  -5.697  0.00  0.00    +0.358 C 
ATOM     26  O   UNL     1      -4.766   1.657  -6.498  0.00  0.00    -0.243 OA
BRANCH  25  27
ATOM     27  O   UNL     1      -3.434  -0.065  -6.058  0.00  0.00    -0.460 OA
BRANCH  27  29
ATOM     28  C   UNL     1      -2.851  -1.822  -7.639  0.00  0.00    +0.048 C 
ATOM     29  C   UNL     1      -3.640  -0.530  -7.418  0.00  0.00    +0.229 C 
ENDBRANCH  27  29
ENDBRANCH  25  27
ENDBRANCH  20  25
ENDBRANCH  19  23
ENDBRANCH  18  19
ENDBRANCH  15  18
ENDBRANCH   1  15
BRANCH  11  30
ATOM     30  C   UNL     1       8.853   2.679   1.457  0.00  0.00    +0.161 C 
BRANCH  30  31
ATOM     31  C   UNL     1       9.169   2.139   2.827  0.00  0.00    -0.028 A 
ATOM     32  C   UNL     1       9.784   2.948   3.765  0.00  0.00    +0.005 A 
ATOM     33  C   UNL     1      10.069   2.453   5.024  0.00  0.00    +0.000 A 
ATOM     34  C   UNL     1       9.750   1.146   5.341  0.00  0.00    +0.000 A 
ATOM     35  C   UNL     1       9.140   0.336   4.402  0.00  0.00    +0.000 A 
ATOM     36  C   UNL     1       8.850   0.832   3.145  0.00  0.00    +0.005 A 
ENDBRANCH  30  31
ENDBRANCH  11  30
TORSDOF 9
