REMARK  Name = ZINC33703369
REMARK  6 active torsions:
REMARK  status: ('A' for Active; 'I' for Inactive)
REMARK    1  A    between atoms: C_10  and  C_11
REMARK    2  A    between atoms: N_19  and  C_22
REMARK    3  A    between atoms: C_26  and  N_28
REMARK    4  A    between atoms: C_31  and  C_33
REMARK    5  A    between atoms: C_31  and  C_40
REMARK    6  A    between atoms: C_33  and  C_34
REMARK                            x       y       z     vdW  Elec       q    Type
REMARK                         _______ _______ _______ _____ _____    ______ ____
ROOT
ATOM      1  C   UNL     1      -5.544   0.532  -0.055  0.00  0.00    -0.026 C 
ATOM      2  C   UNL     1      -4.404   0.313   0.931  0.00  0.00    +0.077 C 
ATOM      3  C   UNL     1      -3.742  -0.919   0.214  0.00  0.00    +0.086 C 
ATOM      4  C   UNL     1      -2.419  -0.942   0.780  0.00  0.00    +0.229 C 
ATOM      5  O   UNL     1      -1.723  -1.914   0.983  0.00  0.00    -0.275 OA
ATOM      6  N   UNL     1      -2.116   0.370   1.043  0.00  0.00    -0.210 N 
ATOM      7  C   UNL     1      -3.200   1.196   0.937  0.00  0.00    +0.229 C 
ATOM      8  O   UNL     1      -3.186   2.406   0.864  0.00  0.00    -0.275 OA
ATOM      9  C   UNL     1      -4.872  -1.792  -0.115  0.00  0.00    +0.048 C 
ATOM     10  N   UNL     1      -6.022  -0.858  -0.349  0.00  0.00    +0.395 N 
ATOM     11  H   UNL     1      -6.859  -1.107   0.319  0.00  0.00    -0.083 HD
ATOM     12  H   UNL     1      -6.357  -0.917  -1.395  0.00  0.00    -0.083 HD
ENDROOT
BRANCH   1  22
ATOM     13  C   UNL     1      -9.573   3.182  -1.770  0.00  0.00    +0.001 A 
ATOM     14  C   UNL     1      -8.565   2.431  -2.372  0.00  0.00    +0.001 A 
ATOM     15  C   UNL     1      -7.601   1.826  -1.626  0.00  0.00    +0.009 A 
ATOM     16  C   UNL     1      -7.617   1.963  -0.227  0.00  0.00    -0.016 A 
ATOM     17  C   UNL     1      -8.645   2.723   0.385  0.00  0.00    -0.018 A 
ATOM     18  C   UNL     1      -9.623   3.332  -0.419  0.00  0.00    +0.008 A 
ATOM     19  C   UNL     1      -8.663   2.855   1.784  0.00  0.00    +0.008 A 
ATOM     20  C   UNL     1      -7.699   2.249   2.531  0.00  0.00    +0.001 A 
ATOM     21  C   UNL     1      -6.692   1.499   1.929  0.00  0.00    +0.002 A 
ATOM     22  C   UNL     1      -6.642   1.348   0.577  0.00  0.00    -0.053 A 
ENDBRANCH   1  22
BRANCH   6  23
ATOM     23  C   UNL     1      -0.830   0.817   1.378  0.00  0.00    +0.046 A 
ATOM     24  C   UNL     1       0.220  -0.087   1.465  0.00  0.00    +0.024 A 
ATOM     25  C   UNL     1       1.487   0.357   1.790  0.00  0.00    +0.004 A 
ATOM     26  C   UNL     1       1.709   1.700   2.034  0.00  0.00    +0.033 A 
ATOM     27  C   UNL     1       0.664   2.602   1.954  0.00  0.00    +0.128 A 
ATOM     28  C   UNL     1      -0.605   2.164   1.629  0.00  0.00    +0.056 A 
BRANCH  27  29
ATOM     29  N   UNL     1       0.906   4.038   2.216  0.00  0.00    +0.056 N 
ATOM     30  O   UNL     1       2.025   4.425   2.502  0.00  0.00    -0.126 OA
ATOM     31  O   UNL     1      -0.014   4.834   2.145  0.00  0.00    -0.126 OA
ENDBRANCH  27  29
ENDBRANCH   6  23
BRANCH   9  32
ATOM     32  C   UNL     1      -5.173  -2.718   1.035  0.00  0.00    +0.346 C 
ATOM     33  O   UNL     1      -4.283  -3.081   1.767  0.00  0.00    -0.248 OA
ATOM     34  O   UNL     1      -6.430  -3.138   1.247  0.00  0.00    -0.248 OA
ENDBRANCH   9  32
BRANCH   9  35
ATOM     35  C   UNL     1      -4.574  -2.597  -1.382  0.00  0.00    +0.003 C 
BRANCH  35  36
ATOM     36  C   UNL     1      -5.762  -3.508  -1.698  0.00  0.00    -0.012 C 
ATOM     37  C   UNL     1      -5.393  -4.447  -2.848  0.00  0.00    +0.003 C 
ATOM     38  C   UNL     1      -6.581  -5.358  -3.165  0.00  0.00    +0.000 C 
ATOM     39  C   UNL     1      -7.785  -4.504  -3.569  0.00  0.00    +0.000 C 
ATOM     40  C   UNL     1      -8.154  -3.565  -2.419  0.00  0.00    +0.000 C 
ATOM     41  C   UNL     1      -6.965  -2.654  -2.102  0.00  0.00    +0.003 C 
ENDBRANCH  35  36
ENDBRANCH   9  35
TORSDOF 6
