REMARK  Name = ZINC25438829
REMARK  7 active torsions:
REMARK  status: ('A' for Active; 'I' for Inactive)
REMARK    1  A    between atoms: C_1  and  C_2
REMARK    2  A    between atoms: C_2  and  C_4
REMARK    3  A    between atoms: C_2  and  N_12
REMARK    4  A    between atoms: C_13  and  C_15
REMARK    5  A    between atoms: C_15  and  N_16
REMARK    6  A    between atoms: C_19  and  C_23
REMARK    7  A    between atoms: C_19  and  C_24
REMARK                            x       y       z     vdW  Elec       q    Type
REMARK                         _______ _______ _______ _____ _____    ______ ____
ROOT
ATOM      1  N   UNL     1       6.769   2.032   2.245  0.00  0.00    -0.215 N 
ATOM      2  C   UNL     1       7.842   1.635   1.533  0.00  0.00    +0.251 C 
ATOM      3  O   UNL     1       8.089   1.895   0.375  0.00  0.00    -0.272 OA
ATOM      4  C   UNL     1       8.676   0.796   2.481  0.00  0.00    +0.135 C 
ATOM      5  N   UNL     1       7.903   0.819   3.735  0.00  0.00    -0.281 N 
ATOM      6  C   UNL     1       6.811   1.569   3.500  0.00  0.00    +0.310 C 
ATOM      7  O   UNL     1       5.956   1.797   4.333  0.00  0.00    -0.252 OA
ATOM      8  C   UNL     1      10.055   1.425   2.687  0.00  0.00    +0.047 C 
ATOM      9  H   UNL     1       8.272   0.279   4.619  0.00  0.00    +0.152 HD
ENDROOT
BRANCH   4  10
ATOM     10  C   UNL     1       8.806  -0.614   1.965  0.00  0.00    -0.015 A 
ATOM     11  C   UNL     1       8.781  -0.857   0.604  0.00  0.00    +0.009 A 
ATOM     12  C   UNL     1       8.906  -2.149   0.130  0.00  0.00    +0.039 A 
ATOM     13  C   UNL     1       9.046  -3.201   1.019  0.00  0.00    +0.123 A 
ATOM     14  C   UNL     1       9.066  -2.958   2.381  0.00  0.00    +0.039 A 
ATOM     15  C   UNL     1       8.946  -1.664   2.853  0.00  0.00    +0.009 A 
ATOM     16  F   UNL     1       9.163  -4.465   0.556  0.00  0.00    -0.205 F 
ENDBRANCH   4  10
BRANCH   1  17
ATOM     17  C   UNL     1       5.693   2.872   1.713  0.00  0.00    +0.213 C 
BRANCH  17  19
ATOM     18  N   UNL     1       3.525   2.555   0.565  0.00  0.00    -0.307 N 
ATOM     19  C   UNL     1       4.620   1.997   1.118  0.00  0.00    +0.231 C 
ATOM     20  O   UNL     1       4.742   0.790   1.137  0.00  0.00    -0.274 OA
ATOM     21  H   UNL     1       3.414   3.649   0.549  0.00  0.00    +0.149 HD
BRANCH  18  23
ATOM     22  C   UNL     1       2.852   1.354  -1.456  0.00  0.00    +0.033 C 
ATOM     23  C   UNL     1       2.482   1.704  -0.013  0.00  0.00    +0.102 C 
BRANCH  23  24
ATOM     24  C   UNL     1       1.167   2.440   0.004  0.00  0.00    -0.009 A 
ATOM     25  C   UNL     1       1.148   3.822   0.012  0.00  0.00    +0.008 A 
ATOM     26  C   UNL     1      -0.057   4.497   0.027  0.00  0.00    +0.020 A 
ATOM     27  C   UNL     1      -1.247   3.790   0.034  0.00  0.00    +0.042 A 
ATOM     28  C   UNL     1      -1.229   2.407   0.021  0.00  0.00    +0.040 A 
ATOM     29  C   UNL     1      -0.021   1.732   0.012  0.00  0.00    +0.047 A 
ATOM     30 CL   UNL     1       0.002  -0.004   0.002  0.00  0.00    -0.083 Cl
ATOM     31 CL   UNL     1      -2.761   4.639   0.053  0.00  0.00    -0.083 Cl
ENDBRANCH  23  24
ENDBRANCH  18  23
ENDBRANCH  17  19
ENDBRANCH   1  17
TORSDOF 5
