REMARK  Name = ZINC08230959
REMARK  9 active torsions:
REMARK  status: ('A' for Active; 'I' for Inactive)
REMARK    1  A    between atoms: C_1  and  C_2
REMARK    2  A    between atoms: C_2  and  C_3
REMARK    3  A    between atoms: C_3  and  C_4
REMARK    4  A    between atoms: C_4  and  N_5
REMARK    5  A    between atoms: C_9  and  S_25
REMARK    6  A    between atoms: C_13  and  C_14
REMARK    7  A    between atoms: C_14  and  N_54
REMARK    8  A    between atoms: C_18  and  C_20
REMARK    9  A    between atoms: S_25  and  N_28
REMARK                            x       y       z     vdW  Elec       q    Type
REMARK                         _______ _______ _______ _____ _____    ______ ____
ROOT
ATOM      1  N   UNL     1      -2.909   3.291   4.775  0.00  0.00    -0.329 N 
ATOM      2  C   UNL     1      -2.370   2.635   3.686  0.00  0.00    +0.069 A 
ATOM      3  C   UNL     1      -2.568   1.386   3.115  0.00  0.00    +0.030 A 
ATOM      4  C   UNL     1      -1.848   1.024   1.996  0.00  0.00    +0.030 A 
ATOM      5  C   UNL     1      -0.927   1.900   1.439  0.00  0.00    +0.107 A 
ATOM      6  C   UNL     1      -0.714   3.131   1.992  0.00  0.00    +0.058 A 
ATOM      7  C   UNL     1      -1.437   3.522   3.122  0.00  0.00    +0.091 A 
ATOM      8  N   UNL     1      -1.455   4.649   3.879  0.00  0.00    -0.234 NA
ATOM      9  C   UNL     1      -2.316   4.513   4.845  0.00  0.00    +0.094 A 
ENDROOT
BRANCH   5  10
ATOM     10  S   UNL     1      -0.017   1.417   0.010  0.00  0.00    +0.056 S 
ATOM     11  O   UNL     1       0.002  -0.004   0.002  0.00  0.00    -0.153 OA
ATOM     12  O   UNL     1       1.172   2.195   0.003  0.00  0.00    -0.153 OA
BRANCH  10  13
ATOM     13  N   UNL     1      -0.897   1.885  -1.312  0.00  0.00    -0.204 NA
ATOM     14  H   UNL     1      -1.201   1.223  -1.952  0.00  0.00    +0.144 HD
ATOM     15  H   UNL     1      -1.110   2.822  -1.446  0.00  0.00    +0.144 HD
ENDBRANCH  10  13
ENDBRANCH   5  10
BRANCH   1  16
ATOM     16  C   UNL     1      -3.931   2.768   5.685  0.00  0.00    +0.123 C 
BRANCH  16  17
ATOM     17  C   UNL     1      -3.254   2.036   6.846  0.00  0.00    +0.021 C 
BRANCH  17  19
ATOM     18  C   UNL     1      -3.644   0.758   8.957  0.00  0.00    +0.004 C 
ATOM     19  C   UNL     1      -4.321   1.490   7.796  0.00  0.00    -0.002 C 
ENDBRANCH  17  19
ENDBRANCH  16  17
ENDBRANCH   1  16
BRANCH   9  20
ATOM     20  C   UNL     1      -2.612   5.558   5.890  0.00  0.00    -0.002 C 
BRANCH  20  25
ATOM     21  C   UNL     1      -0.328   5.722   6.689  0.00  0.00    -0.077 C 
ATOM     22  C   UNL     1       0.132   6.809   7.684  0.00  0.00    -0.020 C 
ATOM     23  C   UNL     1      -0.821   6.603   8.891  0.00  0.00    -0.012 C 
ATOM     24  C   UNL     1      -2.139   6.202   8.184  0.00  0.00    -0.030 C 
ATOM     25  N   UNL     1      -1.707   5.359   7.052  0.00  0.00    +0.389 N 
ATOM     26  H   UNL     1      -1.735   4.372   7.334  0.00  0.00    -0.080 HD
BRANCH  24  27
ATOM     27  C   UNL     1      -3.014   5.406   9.117  0.00  0.00    -0.024 A 
ATOM     28  C   UNL     1      -4.130   5.794   9.782  0.00  0.00    +0.009 A 
ATOM     29  C   UNL     1      -4.779   4.883  10.593  0.00  0.00    +0.008 A 
ATOM     30  C   UNL     1      -4.280   3.627  10.701  0.00  0.00    +0.045 A 
ATOM     31  S   UNL     1      -2.854   3.703   9.629  0.00  0.00    -0.103 S 
ENDBRANCH  24  27
ENDBRANCH  20  25
ENDBRANCH   9  20
TORSDOF 8
