REMARK  Name = ZINC22738712
REMARK  5 active torsions:
REMARK  status: ('A' for Active; 'I' for Inactive)
REMARK    1  A    between atoms: C_1  and  C_2
REMARK    2  A    between atoms: C_2  and  C_4
REMARK    3  A    between atoms: C_2  and  S_18
REMARK    4  A    between atoms: N_6  and  C_7
REMARK    5  A    between atoms: S_18  and  C_19
REMARK                            x       y       z     vdW  Elec       q    Type
REMARK                         _______ _______ _______ _____ _____    ______ ____
ROOT
ATOM      1  C   UNL     1      -1.205  -3.956   1.414  0.00  0.00    +0.230 C 
ATOM      2  O   UNL     1      -2.061  -3.760   2.250  0.00  0.00    -0.274 OA
ATOM      3  N   UNL     1      -1.268  -5.048   0.627  0.00  0.00    -0.280 N 
ATOM      4  H   UNL     1      -0.539  -5.183  -0.186  0.00  0.00    +0.155 HD
ENDROOT
BRANCH   3   5
ATOM      5  C   UNL     1      -2.263  -6.012   0.844  0.00  0.00    +0.111 A 
ATOM      6  C   UNL     1      -2.031  -7.067   1.718  0.00  0.00    +0.185 A 
ATOM      7  C   UNL     1      -3.017  -8.015   1.934  0.00  0.00    +0.198 A 
ATOM      8  C   UNL     1      -4.230  -7.918   1.272  0.00  0.00    +0.199 A 
ATOM      9  C   UNL     1      -4.462  -6.870   0.397  0.00  0.00    +0.198 A 
ATOM     10  C   UNL     1      -3.481  -5.916   0.181  0.00  0.00    +0.185 A 
ATOM     11  F   UNL     1      -3.707  -4.894  -0.673  0.00  0.00    -0.200 F 
ATOM     12  F   UNL     1      -5.646  -6.777  -0.247  0.00  0.00    -0.199 F 
ATOM     13  F   UNL     1      -5.189  -8.847   1.482  0.00  0.00    -0.199 F 
ATOM     14  F   UNL     1      -2.793  -9.039   2.787  0.00  0.00    -0.199 F 
ATOM     15  F   UNL     1      -0.846  -7.165   2.359  0.00  0.00    -0.200 F 
ENDBRANCH   3   5
BRANCH   1  17
ATOM     16  C   UNL     1      -0.408  -1.978   0.147  0.00  0.00    +0.029 C 
ATOM     17  C   UNL     1      -0.069  -2.977   1.256  0.00  0.00    +0.136 C 
BRANCH  17  18
ATOM     18  S   UNL     1       0.184  -2.087   2.816  0.00  0.00    -0.084 S 
BRANCH  18  19
ATOM     19  C   UNL     1       1.617  -1.105   2.519  0.00  0.00    +0.161 A 
ATOM     20  N   UNL     1       2.356  -1.014   1.430  0.00  0.00    -0.133 NA
ATOM     21  N   UNL     1       3.446  -0.175   1.412  0.00  0.00    -0.125 NA
ATOM     22  C   UNL     1       3.747   0.534   2.482  0.00  0.00    +0.180 A 
ATOM     23  S   UNL     1       2.456   0.033   3.611  0.00  0.00    -0.025 S 
ATOM     24  N   UNL     1       4.789   1.433   2.680  0.00  0.00    -0.336 N 
ATOM     25  H   UNL     1       4.896   1.946   3.647  0.00  0.00    +0.144 HD
ATOM     26  H   UNL     1       5.506   1.630   1.870  0.00  0.00    +0.144 HD
ENDBRANCH  18  19
ENDBRANCH  17  18
ENDBRANCH   1  17
TORSDOF 4
