REMARK  Name = ZINC64787724
REMARK  6 active torsions:
REMARK  status: ('A' for Active; 'I' for Inactive)
REMARK    1  A    between atoms: C_1  and  C_2
REMARK    2  A    between atoms: C_5  and  C_20
REMARK    3  A    between atoms: C_7  and  S_8
REMARK    4  A    between atoms: S_8  and  N_11
REMARK    5  A    between atoms: N_11  and  C_12
REMARK    6  A    between atoms: C_17  and  C_18
REMARK                            x       y       z     vdW  Elec       q    Type
REMARK                         _______ _______ _______ _____ _____    ______ ____
ROOT
ATOM      1  C   UNL     1      -0.646   1.255  -0.097  0.00  0.00    +0.046 C 
ATOM      2  C   UNL     1      -0.476  -0.240  -0.018  0.00  0.00    -0.024 A 
ATOM      3  C   UNL     1      -0.713  -1.021  -1.136  0.00  0.00    +0.006 A 
ATOM      4  C   UNL     1      -0.558  -2.390  -1.070  0.00  0.00    +0.010 A 
ATOM      5  C   UNL     1      -0.162  -2.987   0.126  0.00  0.00    +0.004 A 
ATOM      6  C   UNL     1       0.075  -2.197   1.248  0.00  0.00    +0.039 A 
ATOM      7  C   UNL     1      -0.078  -0.827   1.169  0.00  0.00    +0.112 A 
ENDROOT
BRANCH   5   8
ATOM      8  C   UNL     1       0.005  -4.460   0.203  0.00  0.00    +0.091 A 
ATOM      9  C   UNL     1      -0.237  -5.257  -0.940  0.00  0.00    +0.035 A 
ATOM     10  C   UNL     1      -0.073  -6.606  -0.832  0.00  0.00    +0.073 A 
ATOM     11  C   UNL     1       0.331  -7.125   0.419  0.00  0.00    +0.265 A 
ATOM     12  O   UNL     1       0.491  -8.326   0.563  0.00  0.00    -0.266 OA
ATOM     13  N   UNL     1       0.538  -6.285   1.450  0.00  0.00    -0.243 N 
ATOM     14  N   UNL     1       0.383  -5.016   1.329  0.00  0.00    -0.171 NA
ATOM     15  H   UNL     1       0.815  -6.647   2.306  0.00  0.00    +0.192 HD
ENDBRANCH   5   8
BRANCH   7  16
ATOM     16  S   UNL     1       0.228   0.175   2.586  0.00  0.00    +0.073 S 
ATOM     17  O   UNL     1       0.571  -0.710   3.643  0.00  0.00    -0.150 OA
ATOM     18  O   UNL     1       1.086   1.225   2.163  0.00  0.00    -0.150 OA
BRANCH  16  19
ATOM     19  N   UNL     1      -1.211   0.879   3.007  0.00  0.00    -0.216 N 
ATOM     20  H   UNL     1      -1.293   1.846   3.018  0.00  0.00    +0.174 HD
BRANCH  19  21
ATOM     21  C   UNL     1      -2.307   0.081   3.347  0.00  0.00    +0.051 A 
ATOM     22  C   UNL     1      -2.114  -1.110   4.035  0.00  0.00    +0.027 A 
ATOM     23  C   UNL     1      -3.198  -1.897   4.370  0.00  0.00    +0.040 A 
ATOM     24  C   UNL     1      -4.478  -1.499   4.021  0.00  0.00    +0.124 A 
ATOM     25  C   UNL     1      -4.673  -0.313   3.334  0.00  0.00    +0.043 A 
ATOM     26  C   UNL     1      -3.592   0.480   3.002  0.00  0.00    -0.025 A 
ATOM     27  C   UNL     1      -3.805   1.774   2.260  0.00  0.00    +0.046 C 
ATOM     28  F   UNL     1      -5.537  -2.271   4.349  0.00  0.00    -0.205 F 
ENDBRANCH  19  21
ENDBRANCH  16  19
ENDBRANCH   7  16
TORSDOF 4
