REMARK  Name = ZINC20542697
REMARK  14 active torsions:
REMARK  status: ('A' for Active; 'I' for Inactive)
REMARK    1  A    between atoms: C_1  and  N_2
REMARK    2  A    between atoms: N_2  and  C_3
REMARK    3  A    between atoms: N_2  and  C_4
REMARK    4  A    between atoms: C_4  and  C_5
REMARK    5  A    between atoms: C_5  and  N_6
REMARK    6  A    between atoms: N_6  and  C_7
REMARK    7  A    between atoms: N_6  and  C_15
REMARK    8  A    between atoms: C_7  and  C_8
REMARK    9  A    between atoms: C_13  and  O_14
REMARK   10  A    between atoms: C_15  and  C_16
REMARK   11  A    between atoms: N_21  and  C_23
REMARK   12  A    between atoms: C_23  and  C_24
REMARK   13  A    between atoms: C_29  and  O_30
REMARK   14  A    between atoms: O_30  and  C_31
REMARK                            x       y       z     vdW  Elec       q    Type
REMARK                         _______ _______ _______ _____ _____    ______ ____
ROOT
ATOM      1  C   UNL     1      -0.170   1.359   2.574  0.00  0.00    -0.077 C 
ENDROOT
BRANCH   1   2
ATOM      2  C   UNL     1      -0.697   2.201   1.411  0.00  0.00    -0.044 C 
ATOM      3  C   UNL     1      -0.320   1.533   0.085  0.00  0.00    -0.002 C 
ATOM      4  C   UNL     1      -0.799   2.412  -1.074  0.00  0.00    -0.018 C 
ATOM      5  C   UNL     1      -0.174   3.803  -0.945  0.00  0.00    -0.078 C 
ATOM      6  N   UNL     1      -0.564   4.399   0.339  0.00  0.00    +0.383 N 
ATOM      7  C   UNL     1      -0.075   3.598   1.468  0.00  0.00    -0.077 C 
ATOM      8  H   UNL     1      -1.663   4.407   0.385  0.00  0.00    -0.081 HD
BRANCH   6   9
ATOM      9  C   UNL     1      -0.097   5.789   0.438  0.00  0.00    -0.039 C 
BRANCH   9  10
ATOM     10  C   UNL     1      -0.809   6.633  -0.587  0.00  0.00    -0.022 A 
ATOM     11  C   UNL     1      -0.178   6.961  -1.771  0.00  0.00    +0.005 A 
ATOM     12  C   UNL     1      -0.833   7.732  -2.714  0.00  0.00    +0.000 A 
ATOM     13  C   UNL     1      -2.117   8.184  -2.470  0.00  0.00    +0.004 A 
ATOM     14  C   UNL     1      -2.750   7.862  -1.285  0.00  0.00    +0.046 A 
ATOM     15  C   UNL     1      -2.097   7.085  -0.340  0.00  0.00    +0.121 A 
BRANCH  15  16
ATOM     16  O   UNL     1      -2.718   6.767   0.827  0.00  0.00    -0.495 OA
ATOM     17  C   UNL     1      -4.044   7.267   1.013  0.00  0.00    +0.277 C 
ENDBRANCH  15  16
ENDBRANCH   9  10
ENDBRANCH   6   9
ENDBRANCH   1   2
BRANCH   1  18
ATOM     18  N   UNL     1      -0.625   1.939   3.844  0.00  0.00    +0.383 N 
ATOM     19  H   UNL     1      -0.505   3.030   3.780  0.00  0.00    -0.081 HD
BRANCH  18  20
ATOM     20  C   UNL     1      -2.048   1.654   4.073  0.00  0.00    -0.063 C 
BRANCH  20  21
ATOM     21  C   UNL     1      -2.571   2.544   5.202  0.00  0.00    +0.065 C 
BRANCH  21  23
ATOM     22  C   UNL     1      -4.417   2.839   6.742  0.00  0.00    +0.104 C 
ATOM     23  N   UNL     1      -3.958   2.175   5.514  0.00  0.00    -0.310 NA
ATOM     24  C   UNL     1      -4.850   2.479   4.387  0.00  0.00    +0.104 C 
ENDBRANCH  21  23
ENDBRANCH  20  21
ENDBRANCH  18  20
BRANCH  18  25
ATOM     25  C   UNL     1       0.195   1.460   4.966  0.00  0.00    -0.039 C 
BRANCH  25  26
ATOM     26  C   UNL     1       1.578   2.048   4.863  0.00  0.00    -0.022 A 
ATOM     27  C   UNL     1       2.639   1.256   4.467  0.00  0.00    +0.005 A 
ATOM     28  C   UNL     1       3.908   1.794   4.373  0.00  0.00    +0.000 A 
ATOM     29  C   UNL     1       4.121   3.127   4.674  0.00  0.00    +0.004 A 
ATOM     30  C   UNL     1       3.064   3.924   5.069  0.00  0.00    +0.045 A 
ATOM     31  C   UNL     1       1.788   3.387   5.160  0.00  0.00    +0.118 A 
BRANCH  31  32
ATOM     32  O   UNL     1       0.746   4.170   5.545  0.00  0.00    -0.507 OA
ATOM     33  H   UNL     1       0.913   5.231   5.780  0.00  0.00    +0.292 HD
ENDBRANCH  31  32
ENDBRANCH  25  26
ENDBRANCH  18  25
ENDBRANCH   1  18
TORSDOF 11
