REMARK  Name = ZINC15732042
REMARK  4 active torsions:
REMARK  status: ('A' for Active; 'I' for Inactive)
REMARK    1  A    between atoms: C_3  and  N_23
REMARK    2  A    between atoms: C_6  and  N_7
REMARK    3  A    between atoms: N_7  and  S_8
REMARK    4  A    between atoms: S_8  and  C_11
REMARK                            x       y       z     vdW  Elec       q    Type
REMARK                         _______ _______ _______ _____ _____    ______ ____
ROOT
ATOM      1  S   UNL     1       2.341  -2.795  -1.026  0.00  0.00    +0.072 S 
ATOM      2  O   UNL     1       2.182  -4.197  -0.863  0.00  0.00    -0.150 OA
ATOM      3  O   UNL     1       2.220  -2.156  -2.290  0.00  0.00    -0.150 OA
ENDROOT
BRANCH   1   4
ATOM      4  C   UNL     1       3.943  -2.395  -0.411  0.00  0.00    +0.110 A 
ATOM      5  C   UNL     1       4.544  -1.205  -0.780  0.00  0.00    +0.030 A 
ATOM      6  C   UNL     1       5.800  -0.880  -0.298  0.00  0.00    +0.018 A 
ATOM      7  C   UNL     1       6.458  -1.758   0.547  0.00  0.00    +0.029 A 
ATOM      8  C   UNL     1       5.855  -2.959   0.916  0.00  0.00    +0.049 A 
ATOM      9  C   UNL     1       4.596  -3.275   0.434  0.00  0.00    +0.053 A 
ATOM     10  N   UNL     1       6.533  -3.836   1.777  0.00  0.00    -0.284 N 
ATOM     11  C   UNL     1       7.051  -3.387   2.927  0.00  0.00    +0.218 C 
ATOM     12  O   UNL     1       7.794  -4.103   3.564  0.00  0.00    -0.275 OA
ATOM     13  C   UNL     1       6.728  -2.017   3.443  0.00  0.00    +0.107 C 
ATOM     14  C   UNL     1       7.751  -0.991   2.924  0.00  0.00    +0.083 C 
ATOM     15  S   UNL     1       8.063  -1.375   1.169  0.00  0.00    -0.123 S 
ATOM     16  H   UNL     1       6.626  -4.771   1.537  0.00  0.00    +0.155 HD
ENDBRANCH   1   4
BRANCH   1  17
ATOM     17  N   UNL     1       1.238  -2.074  -0.024  0.00  0.00    -0.216 N 
ATOM     18  H   UNL     1       0.629  -1.405  -0.374  0.00  0.00    +0.174 HD
BRANCH  17  24
ATOM     19  C   UNL     1       1.111  -1.444   2.303  0.00  0.00    +0.027 A 
ATOM     20  C   UNL     1       1.058  -1.798   3.636  0.00  0.00    +0.034 A 
ATOM     21  C   UNL     1       1.078  -3.132   4.000  0.00  0.00    +0.126 A 
ATOM     22  C   UNL     1       1.150  -4.115   3.030  0.00  0.00    +0.034 A 
ATOM     23  C   UNL     1       1.203  -3.768   1.695  0.00  0.00    +0.027 A 
ATOM     24  C   UNL     1       1.184  -2.429   1.326  0.00  0.00    +0.048 A 
BRANCH  21  25
ATOM     25  N   UNL     1       1.022  -3.509   5.430  0.00  0.00    +0.056 N 
ATOM     26  O   UNL     1       0.958  -2.644   6.285  0.00  0.00    -0.126 OA
ATOM     27  O   UNL     1       1.039  -4.683   5.752  0.00  0.00    -0.126 OA
ENDBRANCH  21  25
ENDBRANCH  17  24
ENDBRANCH   1  17
TORSDOF 4
