REMARK  Name = ZINC09540977
REMARK  7 active torsions:
REMARK  status: ('A' for Active; 'I' for Inactive)
REMARK    1  A    between atoms: C_6  and  C_7
REMARK    2  A    between atoms: C_9  and  C_13
REMARK    3  A    between atoms: C_16  and  S_19
REMARK    4  A    between atoms: N_17  and  N_18
REMARK    5  A    between atoms: S_19  and  C_20
REMARK    6  A    between atoms: C_20  and  C_21
REMARK    7  A    between atoms: N_23  and  C_24
REMARK                            x       y       z     vdW  Elec       q    Type
REMARK                         _______ _______ _______ _____ _____    ______ ____
ROOT
ATOM      1  C   UNL     1      -3.359  -3.781  -0.033  0.00  0.00    +0.202 A 
ATOM      2  N   UNL     1      -2.700  -4.916  -0.030  0.00  0.00    -0.125 NA
ATOM      3  N   UNL     1      -3.524  -5.902  -0.017  0.00  0.00    -0.120 NA
ATOM      4  C   UNL     1      -4.760  -5.457  -0.010  0.00  0.00    +0.209 A 
ATOM      5  N   UNL     1      -4.698  -4.092  -0.014  0.00  0.00    -0.222 N 
ENDROOT
BRANCH   1   8
ATOM      6  C   UNL     1      -1.272  -0.762  -0.073  0.00  0.00    +0.066 A 
ATOM      7  C   UNL     1      -1.398  -2.120  -0.066  0.00  0.00    +0.061 A 
ATOM      8  C   UNL     1      -2.771  -2.424  -0.047  0.00  0.00    +0.132 A 
ATOM      9  N   UNL     1      -3.445  -1.291  -0.043  0.00  0.00    -0.170 NA
ATOM     10  N   UNL     1      -2.529  -0.232  -0.054  0.00  0.00    -0.276 N 
ATOM     11  H   UNL     1      -2.749   0.713  -0.050  0.00  0.00    +0.189 HD
BRANCH   6  17
ATOM     12  C   UNL     1      -0.022   1.393  -0.093  0.00  0.00    +0.013 A 
ATOM     13  C   UNL     1       1.164   2.097  -0.112  0.00  0.00    +0.039 A 
ATOM     14  C   UNL     1       2.373   1.421  -0.130  0.00  0.00    +0.123 A 
ATOM     15  C   UNL     1       2.398   0.035  -0.130  0.00  0.00    +0.039 A 
ATOM     16  C   UNL     1       1.218  -0.678  -0.112  0.00  0.00    +0.013 A 
ATOM     17  C   UNL     1      -0.003  -0.002  -0.093  0.00  0.00    -0.000 A 
ATOM     18  F   UNL     1       3.533   2.115  -0.148  0.00  0.00    -0.205 F 
ENDBRANCH   6  17
ENDBRANCH   1   8
BRANCH   5  19
ATOM     19  N   UNL     1      -5.748  -3.219  -0.004  0.00  0.00    -0.295 N 
ATOM     20  H   UNL     1      -6.039  -2.992  -0.944  0.00  0.00    +0.163 HD
ATOM     21  H   UNL     1      -6.519  -3.586   0.533  0.00  0.00    +0.163 HD
ENDBRANCH   5  19
BRANCH   4  22
ATOM     22  S   UNL     1      -6.224  -6.438   0.009  0.00  0.00    -0.075 S 
BRANCH  22  23
ATOM     23  C   UNL     1      -5.609  -8.144   0.016  0.00  0.00    +0.173 C 
BRANCH  23  24
ATOM     24  C   UNL     1      -6.775  -9.098   0.031  0.00  0.00    +0.228 C 
ATOM     25  O   UNL     1      -7.910  -8.669   0.037  0.00  0.00    -0.275 OA
ATOM     26  N   UNL     1      -6.558 -10.428   0.039  0.00  0.00    -0.284 N 
ATOM     27  H   UNL     1      -5.654 -10.772  -0.031  0.00  0.00    +0.155 HD
BRANCH  26  28
ATOM     28  C   UNL     1      -7.637 -11.314   0.148  0.00  0.00    +0.052 A 
ATOM     29  C   UNL     1      -8.855 -11.001  -0.441  0.00  0.00    +0.026 A 
ATOM     30  C   UNL     1      -9.919 -11.876  -0.331  0.00  0.00    +0.022 A 
ATOM     31  C   UNL     1      -9.771 -13.063   0.365  0.00  0.00    +0.042 A 
ATOM     32  C   UNL     1      -8.559 -13.378   0.953  0.00  0.00    +0.041 A 
ATOM     33  C   UNL     1      -7.490 -12.509   0.841  0.00  0.00    +0.064 A 
ATOM     34 CL   UNL     1      -5.967 -12.907   1.573  0.00  0.00    -0.082 Cl
ATOM     35 CL   UNL     1     -11.111 -14.159   0.501  0.00  0.00    -0.083 Cl
ENDBRANCH  26  28
ENDBRANCH  23  24
ENDBRANCH  22  23
ENDBRANCH   4  22
TORSDOF 7
