REMARK  Name = ZINC39892651
REMARK  3 active torsions:
REMARK  status: ('A' for Active; 'I' for Inactive)
REMARK    1  A    between atoms: C_4  and  C_7
REMARK    2  A    between atoms: C_18  and  C_20
REMARK    3  A    between atoms: C_20  and  C_21
REMARK                            x       y       z     vdW  Elec       q    Type
REMARK                         _______ _______ _______ _____ _____    ______ ____
ROOT
ATOM      1  C   UNL     1       3.711  -0.707  -0.038  0.00  0.00    +0.170 C 
ATOM      2  C   UNL     1       3.795  -1.658  -1.221  0.00  0.00    +0.245 C 
ATOM      3  O   UNL     1       3.756  -1.264  -2.367  0.00  0.00    -0.273 OA
ATOM      4  N   UNL     1       3.913  -2.940  -0.923  0.00  0.00    -0.196 N 
ATOM      5  C   UNL     1       3.958  -3.396   0.383  0.00  0.00    +0.162 C 
ATOM      6  N   UNL     1       4.072  -4.623   0.804  0.00  0.00    -0.279 NA
ATOM      7  S   UNL     1       3.825  -1.902   1.357  0.00  0.00    -0.073 S 
ATOM      8  C   UNL     1       3.994  -3.866  -1.961  0.00  0.00    +0.173 A 
ATOM      9  N   UNL     1       3.975  -3.645  -3.257  0.00  0.00    -0.232 NA
ATOM     10  C   UNL     1       4.062  -4.639  -4.120  0.00  0.00    +0.124 A 
ATOM     11  C   UNL     1       4.171  -5.891  -3.610  0.00  0.00    +0.015 A 
ATOM     12  S   UNL     1       4.147  -5.539  -1.860  0.00  0.00    -0.056 S 
ATOM     13  H   UNL     1       4.091  -4.810   1.755  0.00  0.00    +0.189 HD
ENDROOT
BRANCH   1  17
ATOM     14  C   UNL     1      -0.017   1.378   0.010  0.00  0.00    +0.000 A 
ATOM     15  C   UNL     1       1.171   2.086   0.002  0.00  0.00    +0.000 A 
ATOM     16  C   UNL     1       2.377   1.411  -0.013  0.00  0.00    +0.005 A 
ATOM     17  C   UNL     1       2.396   0.029  -0.020  0.00  0.00    -0.025 A 
ATOM     18  C   UNL     1       1.208  -0.679  -0.012  0.00  0.00    +0.005 A 
ATOM     19  C   UNL     1       0.002  -0.004   0.002  0.00  0.00    +0.000 A 
ENDBRANCH   1  17
BRANCH  11  20
ATOM     20  C   UNL     1       4.286  -7.213  -4.324  0.00  0.00    +0.080 C 
BRANCH  20  21
ATOM     21  C   UNL     1       5.739  -7.531  -4.561  0.00  0.00    -0.023 A 
ATOM     22  C   UNL     1       6.332  -7.199  -5.765  0.00  0.00    +0.025 A 
ATOM     23  C   UNL     1       7.666  -7.490  -5.984  0.00  0.00    +0.041 A 
ATOM     24  C   UNL     1       8.408  -8.115  -4.997  0.00  0.00    +0.021 A 
ATOM     25  C   UNL     1       7.816  -8.448  -3.793  0.00  0.00    +0.022 A 
ATOM     26  C   UNL     1       6.483  -8.150  -3.573  0.00  0.00    +0.045 A 
ATOM     27 CL   UNL     1       5.741  -8.562  -2.058  0.00  0.00    -0.083 Cl
ATOM     28 CL   UNL     1       8.410  -7.073  -7.496  0.00  0.00    -0.084 Cl
ENDBRANCH  20  21
ENDBRANCH  11  20
TORSDOF 3
