REMARK  Name = ZINC39666189
REMARK  10 active torsions:
REMARK  status: ('A' for Active; 'I' for Inactive)
REMARK    1  A    between atoms: C_1  and  C_2
REMARK    2  A    between atoms: C_5  and  O_8
REMARK    3  A    between atoms: O_8  and  C_9
REMARK    4  A    between atoms: C_9  and  C_11
REMARK    5  A    between atoms: C_9  and  C_12
REMARK    6  A    between atoms: C_12  and  N_13
REMARK    7  A    between atoms: C_14  and  C_16
REMARK    8  A    between atoms: C_27  and  C_29
REMARK    9  A    between atoms: C_33  and  O_34
REMARK   10  A    between atoms: O_34  and  C_35
REMARK                            x       y       z     vdW  Elec       q    Type
REMARK                         _______ _______ _______ _____ _____    ______ ____
ROOT
ATOM      1  C   UNL     1      -4.022  -6.683   0.463  0.00  0.00    +0.100 C 
ATOM      2  C   UNL     1      -4.657  -5.803   1.563  0.00  0.00    +0.121 C 
ATOM      3  N   UNL     1      -6.045  -6.306   1.689  0.00  0.00    -0.296 N 
ATOM      4  C   UNL     1      -5.917  -7.777   1.560  0.00  0.00    +0.115 C 
ATOM      5  C   UNL     1      -4.851  -7.978   0.465  0.00  0.00    -0.004 C 
ATOM      6  C   UNL     1      -3.965  -9.172   0.805  0.00  0.00    -0.010 C 
ATOM      7  C   UNL     1      -4.799 -10.455   0.744  0.00  0.00    -0.082 C 
ATOM      8  N   UNL     1      -5.366 -10.608  -0.602  0.00  0.00    +0.379 N 
ATOM      9  C   UNL     1      -6.290  -9.503  -0.884  0.00  0.00    -0.082 C 
ATOM     10  C   UNL     1      -5.519  -8.180  -0.892  0.00  0.00    -0.010 C 
ATOM     11  C   UNL     1      -7.170  -5.588   1.878  0.00  0.00    +0.251 C 
ATOM     12  O   UNL     1      -7.104  -4.384   2.038  0.00  0.00    -0.270 OA
ATOM     13  H   UNL     1      -4.621 -10.604  -1.282  0.00  0.00    -0.086 HD
ATOM     14  H   UNL     1      -5.864 -11.484  -0.657  0.00  0.00    -0.086 HD
ENDROOT
BRANCH  11  15
ATOM     15  C   UNL     1      -8.478  -6.260   1.891  0.00  0.00    +0.087 A 
ATOM     16  C   UNL     1      -8.635  -7.524   2.418  0.00  0.00    +0.063 A 
ATOM     17  S   UNL     1     -10.265  -7.859   2.210  0.00  0.00    -0.081 S 
ATOM     18  C   UNL     1     -10.798  -6.354   1.426  0.00  0.00    +0.120 A 
ATOM     19  C   UNL     1      -9.661  -5.625   1.357  0.00  0.00    +0.158 A 
ATOM     20 CL   UNL     1     -12.390  -5.923   0.886  0.00  0.00    -0.072 Cl
BRANCH  19  21
ATOM     21  O   UNL     1      -9.632  -4.375   0.817  0.00  0.00    -0.492 OA
ATOM     22  C   UNL     1      -9.371  -4.281  -0.585  0.00  0.00    +0.277 C 
ENDBRANCH  19  21
ENDBRANCH  11  15
BRANCH   1  24
ATOM     23  N   UNL     1      -1.687  -7.167  -0.194  0.00  0.00    -0.312 N 
ATOM     24  C   UNL     1      -2.582  -6.981   0.796  0.00  0.00    +0.218 C 
ATOM     25  O   UNL     1      -2.230  -7.053   1.954  0.00  0.00    -0.275 OA
ATOM     26  H   UNL     1      -1.968  -7.109  -1.120  0.00  0.00    +0.149 HD
BRANCH  23  27
ATOM     27  C   UNL     1      -0.287  -7.456   0.130  0.00  0.00    +0.148 C 
BRANCH  27  28
ATOM     28  C   UNL     1       0.512  -7.622  -1.164  0.00  0.00    +0.187 C 
ATOM     29  C   UNL     1       1.973  -7.925  -0.826  0.00  0.00    +0.053 C 
BRANCH  28  30
ATOM     30  O   UNL     1      -0.034  -8.701  -1.926  0.00  0.00    -0.488 OA
BRANCH  30  35
ATOM     31  C   UNL     1       0.863  -8.617  -7.486  0.00  0.00    +0.044 C 
ATOM     32  C   UNL     1       0.623  -8.640  -5.998  0.00  0.00    -0.050 A 
ATOM     33  C   UNL     1       1.039  -7.579  -5.216  0.00  0.00    +0.007 A 
ATOM     34  C   UNL     1       0.820  -7.597  -3.852  0.00  0.00    +0.046 A 
ATOM     35  C   UNL     1       0.182  -8.681  -3.268  0.00  0.00    +0.121 A 
ATOM     36  C   UNL     1      -0.235  -9.744  -4.055  0.00  0.00    +0.046 A 
ATOM     37  C   UNL     1      -0.019  -9.719  -5.419  0.00  0.00    +0.007 A 
ENDBRANCH  30  35
ENDBRANCH  28  30
ENDBRANCH  27  28
ENDBRANCH  23  27
ENDBRANCH   1  24
TORSDOF 7
