REMARK  Name = ZINC33998458
REMARK  6 active torsions:
REMARK  status: ('A' for Active; 'I' for Inactive)
REMARK    1  A    between atoms: C_1  and  C_2
REMARK    2  A    between atoms: C_4  and  O_5
REMARK    3  A    between atoms: C_14  and  C_16
REMARK    4  A    between atoms: C_16  and  C_18
REMARK    5  A    between atoms: C_16  and  N_29
REMARK    6  A    between atoms: C_18  and  C_19
REMARK                            x       y       z     vdW  Elec       q    Type
REMARK                         _______ _______ _______ _____ _____    ______ ____
ROOT
ATOM      1  C   UNL     1       0.308   1.444  -0.040  0.00  0.00    +0.045 C 
ATOM      2  C   UNL     1      -0.134   0.004   0.011  0.00  0.00    -0.033 A 
ATOM      3  C   UNL     1      -0.600  -0.632  -1.122  0.00  0.00    +0.091 A 
ATOM      4  C   UNL     1      -1.002  -1.958  -1.056  0.00  0.00    +0.285 A 
ATOM      5  O   UNL     1      -0.948  -2.646   0.091  0.00  0.00    -0.425 OA
ATOM      6  C   UNL     1      -0.501  -2.073   1.227  0.00  0.00    +0.141 A 
ATOM      7  C   UNL     1      -0.073  -0.726   1.217  0.00  0.00    +0.021 A 
ATOM      8  C   UNL     1       0.399  -0.128   2.398  0.00  0.00    +0.013 A 
ATOM      9  C   UNL     1       0.449  -0.847   3.550  0.00  0.00    +0.024 A 
ATOM     10  C   UNL     1       0.031  -2.190   3.568  0.00  0.00    +0.037 A 
ATOM     11  C   UNL     1      -0.451  -2.795   2.406  0.00  0.00    +0.070 A 
ATOM     12  N   UNL     1       0.086  -2.900   4.729  0.00  0.00    -0.287 N 
ATOM     13  C   UNL     1       0.004  -4.216   4.701  0.00  0.00    +0.203 C 
ATOM     14  O   UNL     1       0.002  -4.804   3.633  0.00  0.00    -0.277 OA
ATOM     15  H   UNL     1       0.185  -2.438   5.576  0.00  0.00    +0.155 HD
ENDROOT
BRANCH   4  16
ATOM     16  O   UNL     1      -1.455  -2.567  -2.168  0.00  0.00    -0.480 OA
ATOM     17  H   UNL     1      -1.714  -3.489  -2.035  0.00  0.00    +0.295 HD
ENDBRANCH   4  16
BRANCH  13  18
ATOM     18  C   UNL     1      -0.086  -4.993   5.989  0.00  0.00    +0.017 C 
BRANCH  18  19
ATOM     19  N   UNL     1      -0.636  -6.328   5.718  0.00  0.00    +0.386 N 
ATOM     20  H   UNL     1      -0.697  -6.848   6.580  0.00  0.00    -0.089 HD
ATOM     21  H   UNL     1      -1.556  -6.237   5.314  0.00  0.00    -0.089 HD
ATOM     22  H   UNL     1      -0.033  -6.816   5.073  0.00  0.00    -0.089 HD
ENDBRANCH  18  19
BRANCH  18  23
ATOM     23  C   UNL     1       1.309  -5.130   6.601  0.00  0.00    +0.030 C 
BRANCH  23  24
ATOM     24  C   UNL     1       1.203  -5.799   7.947  0.00  0.00    -0.023 A 
ATOM     25  C   UNL     1       1.124  -5.186   9.139  0.00  0.00    +0.087 A 
ATOM     26  N   UNL     1       1.040  -6.118  10.138  0.00  0.00    -0.360 N 
ATOM     27  H   UNL     1       0.974  -5.915  11.084  0.00  0.00    +0.165 HD
ATOM     28  C   UNL     1       1.065  -7.385   9.600  0.00  0.00    +0.047 A 
ATOM     29  C   UNL     1       1.161  -7.241   8.203  0.00  0.00    +0.003 A 
ATOM     30  C   UNL     1       1.200  -8.373   7.387  0.00  0.00    +0.010 A 
ATOM     31  C   UNL     1       1.140  -9.617   7.950  0.00  0.00    +0.001 A 
ATOM     32  C   UNL     1       1.040  -9.764   9.326  0.00  0.00    +0.002 A 
ATOM     33  C   UNL     1       1.010  -8.661  10.151  0.00  0.00    +0.026 A 
ENDBRANCH  23  24
ENDBRANCH  18  23
ENDBRANCH  13  18
TORSDOF 5
