REMARK  Name = ZINC12496847
REMARK  10 active torsions:
REMARK  status: ('A' for Active; 'I' for Inactive)
REMARK    1  A    between atoms: C_1  and  O_2
REMARK    2  A    between atoms: O_2  and  C_3
REMARK    3  A    between atoms: C_3  and  C_5
REMARK    4  A    between atoms: C_5  and  C_31
REMARK    5  A    between atoms: C_10  and  C_12
REMARK    6  A    between atoms: C_15  and  O_18
REMARK    7  A    between atoms: N_21  and  C_24
REMARK    8  A    between atoms: C_31  and  C_32
REMARK    9  A    between atoms: C_32  and  S_33
REMARK   10  A    between atoms: S_33  and  C_34
REMARK                            x       y       z     vdW  Elec       q    Type
REMARK                         _______ _______ _______ _____ _____    ______ ____
ROOT
ATOM      1  C   UNL     1      -0.079  -0.041  -0.041  0.00  0.00    +0.044 C 
ATOM      2  C   UNL     1      -1.425  -0.637   0.066  0.00  0.00    +0.086 C 
ATOM      3  C   UNL     1      -1.074  -2.114   0.515  0.00  0.00    +0.077 C 
ATOM      4  C   UNL     1      -0.138  -1.757   1.667  0.00  0.00    -0.027 C 
ATOM      5  C   UNL     1      -2.491  -2.528   0.803  0.00  0.00    +0.229 C 
ATOM      6  O   UNL     1      -2.874  -3.267   1.684  0.00  0.00    -0.275 OA
ATOM      7  N   UNL     1      -3.255  -1.897  -0.139  0.00  0.00    -0.210 N 
ATOM      8  C   UNL     1      -2.590  -0.868  -0.757  0.00  0.00    +0.229 C 
ATOM      9  O   UNL     1      -2.909  -0.281  -1.769  0.00  0.00    -0.275 OA
ATOM     10  N   UNL     1       0.568  -0.527   1.218  0.00  0.00    +0.395 N 
ATOM     11  H   UNL     1       0.500   0.196   1.944  0.00  0.00    -0.083 HD
ATOM     12  H   UNL     1       1.556  -0.741   1.040  0.00  0.00    -0.083 HD
ENDROOT
BRANCH   7  13
ATOM     13  C   UNL     1      -4.575  -2.263  -0.441  0.00  0.00    +0.044 A 
ATOM     14  C   UNL     1      -5.285  -1.565  -1.408  0.00  0.00    +0.027 A 
ATOM     15  C   UNL     1      -6.583  -1.930  -1.709  0.00  0.00    +0.040 A 
ATOM     16  C   UNL     1      -7.180  -2.983  -1.037  0.00  0.00    +0.124 A 
ATOM     17  C   UNL     1      -6.475  -3.677  -0.067  0.00  0.00    +0.040 A 
ATOM     18  C   UNL     1      -5.175  -3.318   0.232  0.00  0.00    +0.027 A 
ATOM     19  F   UNL     1      -8.451  -3.336  -1.328  0.00  0.00    -0.205 F 
ENDBRANCH   7  13
BRANCH   4  20
ATOM     20  C   UNL     1      -0.931  -1.480   2.918  0.00  0.00    -0.060 A 
ATOM     21  C   UNL     1      -1.403  -0.205   3.169  0.00  0.00    +0.005 A 
ATOM     22  C   UNL     1      -2.136   0.049   4.312  0.00  0.00    +0.045 A 
ATOM     23  C   UNL     1      -2.388  -0.974   5.215  0.00  0.00    +0.117 A 
ATOM     24  C   UNL     1      -1.909  -2.251   4.964  0.00  0.00    +0.045 A 
ATOM     25  C   UNL     1      -1.182  -2.502   3.816  0.00  0.00    +0.005 A 
BRANCH  23  26
ATOM     26  O   UNL     1      -3.103  -0.724   6.344  0.00  0.00    -0.507 OA
ATOM     27  H   UNL     1      -2.563  -0.457   7.100  0.00  0.00    +0.292 HD
ENDBRANCH  23  26
ENDBRANCH   4  20
BRANCH   1  28
ATOM     28  C   UNL     1       0.646  -0.563  -1.255  0.00  0.00    +0.297 C 
ATOM     29  O   UNL     1       0.019  -0.926  -2.223  0.00  0.00    -0.252 OA
BRANCH  28  31
ATOM     30  C   UNL     1       2.617  -1.137  -2.465  0.00  0.00    +0.280 C 
ATOM     31  O   UNL     1       1.987  -0.624  -1.262  0.00  0.00    -0.469 OA
ENDBRANCH  28  31
ENDBRANCH   1  28
BRANCH   1  32
ATOM     32  C   UNL     1      -0.158   1.486  -0.069  0.00  0.00    +0.010 C 
BRANCH  32  33
ATOM     33  C   UNL     1       1.256   2.070  -0.106  0.00  0.00    +0.068 C 
BRANCH  33  34
ATOM     34  S   UNL     1       1.161   3.881  -0.139  0.00  0.00    -0.164 S 
ATOM     35  C   UNL     1       2.896   4.410  -0.180  0.00  0.00    +0.084 C 
ENDBRANCH  33  34
ENDBRANCH  32  33
ENDBRANCH   1  32
TORSDOF 8
