REMARK  Name = ZINC39695701
REMARK  10 active torsions:
REMARK  status: ('A' for Active; 'I' for Inactive)
REMARK    1  A    between atoms: C_1  and  C_2
REMARK    2  A    between atoms: C_2  and  C_3
REMARK    3  A    between atoms: C_3  and  C_4
REMARK    4  A    between atoms: C_4  and  C_6
REMARK    5  A    between atoms: C_4  and  C_7
REMARK    6  A    between atoms: C_11  and  C_20
REMARK    7  A    between atoms: N_22  and  C_23
REMARK    8  A    between atoms: C_23  and  C_25
REMARK    9  A    between atoms: C_23  and  C_26
REMARK   10  A    between atoms: C_32  and  C_36
REMARK                            x       y       z     vdW  Elec       q    Type
REMARK                         _______ _______ _______ _____ _____    ______ ____
ROOT
ATOM      1  C   UNL     1       1.317  -2.578   2.201  0.00  0.00    +0.218 C 
ATOM      2  O   UNL     1       1.768  -1.711   2.919  0.00  0.00    -0.275 OA
ATOM      3  N   UNL     1       1.579  -3.874   2.463  0.00  0.00    -0.300 N 
ATOM      4  C   UNL     1       1.125  -5.064   1.704  0.00  0.00    +0.121 C 
ATOM      5  C   UNL     1       2.342  -6.016   1.709  0.00  0.00    +0.100 C 
ATOM      6  C   UNL     1       3.163  -5.598   2.940  0.00  0.00    -0.004 C 
ATOM      7  C   UNL     1       2.390  -4.431   3.572  0.00  0.00    +0.115 C 
ATOM      8  C   UNL     1       4.553  -5.133   2.515  0.00  0.00    -0.010 C 
ATOM      9  C   UNL     1       5.370  -4.777   3.760  0.00  0.00    -0.082 C 
ATOM     10  N   UNL     1       5.471  -5.952   4.634  0.00  0.00    +0.379 N 
ATOM     11  C   UNL     1       4.138  -6.336   5.113  0.00  0.00    -0.082 C 
ATOM     12  C   UNL     1       3.269  -6.758   3.925  0.00  0.00    -0.010 C 
ATOM     13  H   UNL     1       5.876  -6.719   4.118  0.00  0.00    -0.086 HD
ATOM     14  H   UNL     1       6.060  -5.732   5.423  0.00  0.00    -0.086 HD
ENDROOT
BRANCH   5  15
ATOM     15  C   UNL     1       3.151  -5.840   0.450  0.00  0.00    +0.219 C 
ATOM     16  O   UNL     1       3.189  -4.760  -0.100  0.00  0.00    -0.275 OA
ATOM     17  N   UNL     1       3.834  -6.882  -0.064  0.00  0.00    -0.305 N 
ATOM     18  H   UNL     1       3.804  -7.746   0.376  0.00  0.00    +0.149 HD
BRANCH  17  19
ATOM     19  C   UNL     1       4.621  -6.711  -1.288  0.00  0.00    +0.136 C 
ATOM     20  C   UNL     1       6.006  -6.168  -0.931  0.00  0.00    +0.036 C 
BRANCH  19  21
ATOM     21  C   UNL     1       4.765  -8.040  -1.983  0.00  0.00    +0.128 A 
ATOM     22  H   UNL     1       5.067  -7.497  -3.975  0.00  0.00    +0.167 HD
ATOM     23  N   UNL     1       4.696  -9.199  -1.396  0.00  0.00    -0.231 NA
ATOM     24  C   UNL     1       4.869 -10.186  -2.312  0.00  0.00    +0.089 A 
ATOM     25  C   UNL     1       4.888 -11.581  -2.235  0.00  0.00    +0.030 A 
ATOM     26  C   UNL     1       5.089 -12.323  -3.364  0.00  0.00    +0.005 A 
ATOM     27  C   UNL     1       5.275 -11.706  -4.593  0.00  0.00    -0.048 A 
ATOM     28  C   UNL     1       5.261 -10.331  -4.693  0.00  0.00    +0.031 A 
ATOM     29  C   UNL     1       5.057  -9.560  -3.557  0.00  0.00    +0.067 A 
ATOM     30  N   UNL     1       4.981  -8.203  -3.316  0.00  0.00    -0.340 N 
ATOM     31  C   UNL     1       5.496 -12.544  -5.825  0.00  0.00    +0.044 C 
ENDBRANCH  19  21
ENDBRANCH  17  19
ENDBRANCH   5  15
BRANCH   1  32
ATOM     32  C   UNL     1       0.463  -2.207   1.017  0.00  0.00    +0.072 C 
ATOM     33  C   UNL     1      -0.922  -2.840   1.167  0.00  0.00    +0.017 C 
BRANCH  32  34
ATOM     34  C   UNL     1       0.322  -0.685   0.947  0.00  0.00    +0.012 C 
BRANCH  34  36
ATOM     35  C   UNL     1      -0.580   1.221  -0.393  0.00  0.00    +0.004 C 
ATOM     36  C   UNL     1      -0.439  -0.300  -0.323  0.00  0.00    -0.003 C 
ENDBRANCH  34  36
ENDBRANCH  32  34
ENDBRANCH   1  32
TORSDOF 6
