REMARK  Name = ZINC67267052
REMARK  7 active torsions:
REMARK  status: ('A' for Active; 'I' for Inactive)
REMARK    1  A    between atoms: C_4  and  N_13
REMARK    2  A    between atoms: C_5  and  C_7
REMARK    3  A    between atoms: C_7  and  N_8
REMARK    4  A    between atoms: C_14  and  C_16
REMARK    5  A    between atoms: C_16  and  C_17
REMARK    6  A    between atoms: C_20  and  S_23
REMARK    7  A    between atoms: S_23  and  N_26
REMARK                            x       y       z     vdW  Elec       q    Type
REMARK                         _______ _______ _______ _____ _____    ______ ____
ROOT
ATOM      1  N   UNL     1       3.622  -0.651  -0.037  0.00  0.00    -0.285 N 
ATOM      2  C   UNL     1       4.730  -0.058   0.448  0.00  0.00    +0.222 C 
ATOM      3  O   UNL     1       4.653   1.029   0.980  0.00  0.00    -0.275 OA
ATOM      4  H   UNL     1       3.669  -1.553  -0.391  0.00  0.00    +0.155 HD
ENDROOT
BRANCH   1   8
ATOM      5  C   UNL     1      -0.010   1.391  -0.020  0.00  0.00    +0.000 A 
ATOM      6  C   UNL     1       1.179   2.097  -0.025  0.00  0.00    +0.002 A 
ATOM      7  C   UNL     1       2.384   1.424  -0.031  0.00  0.00    +0.023 A 
ATOM      8  C   UNL     1       2.402   0.035  -0.031  0.00  0.00    +0.035 A 
ATOM      9  C   UNL     1       1.206  -0.672  -0.026  0.00  0.00    -0.043 A 
ATOM     10  C   UNL     1       0.004   0.008  -0.021  0.00  0.00    +0.003 A 
BRANCH   9  11
ATOM     11  C   UNL     1       1.221  -2.179  -0.027  0.00  0.00    -0.041 C 
BRANCH  11  12
ATOM     12  N   UNL     1       1.472  -2.667   1.336  0.00  0.00    +0.382 N 
ATOM     13  C   UNL     1       0.308  -2.370   2.209  0.00  0.00    -0.078 C 
ATOM     14  C   UNL     1       0.463  -3.390   3.365  0.00  0.00    -0.020 C 
ATOM     15  C   UNL     1       0.985  -4.653   2.644  0.00  0.00    -0.020 C 
ATOM     16  C   UNL     1       1.609  -4.139   1.333  0.00  0.00    -0.078 C 
ATOM     17  H   UNL     1       2.307  -2.240   1.710  0.00  0.00    -0.081 HD
ENDBRANCH  11  12
ENDBRANCH   9  11
ENDBRANCH   1   8
BRANCH   2  18
ATOM     18  C   UNL     1       6.066  -0.745   0.328  0.00  0.00    +0.131 C 
BRANCH  18  19
ATOM     19  C   UNL     1       7.134   0.122   0.944  0.00  0.00    -0.039 A 
ATOM     20  C   UNL     1       7.799   1.054   0.170  0.00  0.00    +0.006 A 
ATOM     21  C   UNL     1       8.778   1.849   0.734  0.00  0.00    +0.029 A 
ATOM     22  C   UNL     1       9.093   1.712   2.073  0.00  0.00    +0.105 A 
ATOM     23  C   UNL     1       8.428   0.780   2.848  0.00  0.00    +0.029 A 
ATOM     24  C   UNL     1       7.445  -0.012   2.284  0.00  0.00    +0.006 A 
BRANCH  22  25
ATOM     25  S   UNL     1      10.342   2.725   2.793  0.00  0.00    +0.056 S 
ATOM     26  O   UNL     1      10.828   2.025   3.930  0.00  0.00    -0.153 OA
ATOM     27  O   UNL     1      11.193   3.137   1.731  0.00  0.00    -0.153 OA
BRANCH  25  28
ATOM     28  N   UNL     1       9.599   4.091   3.360  0.00  0.00    -0.204 NA
ATOM     29  H   UNL     1       9.960   4.556   4.131  0.00  0.00    +0.144 HD
ATOM     30  H   UNL     1       8.801   4.427   2.922  0.00  0.00    +0.144 HD
ENDBRANCH  25  28
ENDBRANCH  22  25
ENDBRANCH  18  19
ENDBRANCH   2  18
TORSDOF 7
