REMARK  Name = ZINC06813167
REMARK  7 active torsions:
REMARK  status: ('A' for Active; 'I' for Inactive)
REMARK    1  A    between atoms: C_1  and  C_2
REMARK    2  A    between atoms: C_5  and  S_8
REMARK    3  A    between atoms: S_8  and  C_9
REMARK    4  A    between atoms: C_9  and  C_10
REMARK    5  A    between atoms: C_17  and  N_30
REMARK    6  A    between atoms: C_18  and  C_28
REMARK    7  A    between atoms: C_19  and  C_21
REMARK                            x       y       z     vdW  Elec       q    Type
REMARK                         _______ _______ _______ _____ _____    ______ ____
ROOT
ATOM      1  C   UNL     1       0.097  -6.482   1.870  0.00  0.00    +0.081 A 
ATOM      2  C   UNL     1      -1.016  -7.309   1.944  0.00  0.00    +0.050 A 
ATOM      3  C   UNL     1      -0.579  -8.599   2.060  0.00  0.00    +0.223 A 
ATOM      4  N   UNL     1       0.764  -8.573   2.060  0.00  0.00    -0.246 N 
ATOM      5  H   UNL     1       1.350  -9.343   2.131  0.00  0.00    +0.192 HD
ATOM      6  N   UNL     1       1.169  -7.235   1.933  0.00  0.00    -0.175 NA
ATOM      7  O   UNL     1      -1.426  -9.654   2.151  0.00  0.00    -0.423 OA
ATOM      8  C   UNL     1      -2.723  -9.441   1.850  0.00  0.00    +0.200 C 
ATOM      9  C   UNL     1      -3.274  -8.214   1.722  0.00  0.00    +0.098 C 
ATOM     10  C   UNL     1      -2.478  -6.946   1.911  0.00  0.00    +0.104 C 
ENDROOT
BRANCH  10  11
ATOM     11  C   UNL     1      -2.869  -6.289   3.209  0.00  0.00    +0.001 A 
ATOM     12  C   UNL     1      -2.720  -6.972   4.402  0.00  0.00    +0.007 A 
ATOM     13  C   UNL     1      -3.078  -6.370   5.593  0.00  0.00    +0.000 A 
ATOM     14  C   UNL     1      -3.585  -5.083   5.594  0.00  0.00    +0.003 A 
ATOM     15  C   UNL     1      -3.734  -4.398   4.403  0.00  0.00    +0.038 A 
ATOM     16  C   UNL     1      -3.371  -4.999   3.209  0.00  0.00    +0.127 A 
ATOM     17  F   UNL     1      -3.512  -4.328   2.045  0.00  0.00    -0.205 F 
ENDBRANCH  10  11
BRANCH   8  18
ATOM     18  N   UNL     1      -3.531 -10.535   1.664  0.00  0.00    -0.328 N 
ATOM     19  H   UNL     1      -3.164 -11.429   1.749  0.00  0.00    +0.145 HD
ATOM     20  H   UNL     1      -4.469 -10.414   1.446  0.00  0.00    +0.145 HD
ENDBRANCH   8  18
BRANCH   9  21
ATOM     21  C   UNL     1      -4.664  -8.113   1.394  0.00  0.00    +0.101 C 
ATOM     22  N   UNL     1      -5.767  -8.033   1.135  0.00  0.00    -0.191 NA
ENDBRANCH   9  21
BRANCH   1  23
ATOM     23  C   UNL     1       0.077  -4.981   1.735  0.00  0.00    +0.132 C 
BRANCH  23  24
ATOM     24  S   UNL     1       0.062  -4.533  -0.023  0.00  0.00    -0.119 S 
BRANCH  24  29
ATOM     25  C   UNL     1      -0.018   1.503   0.010  0.00  0.00    +0.044 C 
ATOM     26  C   UNL     1       0.002  -0.004   0.002  0.00  0.00    -0.050 A 
ATOM     27  C   UNL     1       0.006  -0.687  -1.200  0.00  0.00    +0.004 A 
ATOM     28  C   UNL     1       0.024  -2.068  -1.212  0.00  0.00    +0.015 A 
ATOM     29  C   UNL     1       0.039  -2.771  -0.013  0.00  0.00    +0.008 A 
ATOM     30  C   UNL     1       0.036  -2.081   1.193  0.00  0.00    +0.015 A 
ATOM     31  C   UNL     1       0.023  -0.700   1.197  0.00  0.00    +0.004 A 
ENDBRANCH  24  29
ENDBRANCH  23  24
ENDBRANCH   1  23
TORSDOF 6
