REMARK  Name = ZINC19794796
REMARK  7 active torsions:
REMARK  status: ('A' for Active; 'I' for Inactive)
REMARK    1  A    between atoms: C_1  and  C_2
REMARK    2  A    between atoms: C_2  and  O_3
REMARK    3  A    between atoms: O_3  and  C_4
REMARK    4  A    between atoms: C_6  and  C_14
REMARK    5  A    between atoms: C_8  and  N_11
REMARK    6  A    between atoms: C_9  and  O_10
REMARK    7  A    between atoms: C_19  and  C_24
REMARK                            x       y       z     vdW  Elec       q    Type
REMARK                         _______ _______ _______ _____ _____    ______ ____
ROOT
ATOM      1  C   UNL     1       2.212   0.508  -3.627  0.00  0.00    +0.136 C 
ATOM      2  C   UNL     1       1.321   0.963  -2.496  0.00  0.00    +0.036 C 
ATOM      3  C   UNL     1      -0.013   1.107  -2.553  0.00  0.00    +0.017 C 
ATOM      4  C   UNL     1      -0.783   1.613  -1.344  0.00  0.00    +0.059 C 
ATOM      5  C   UNL     1      -0.111   1.127  -0.061  0.00  0.00    +0.032 C 
ATOM      6  C   UNL     1       1.319   1.681  -0.045  0.00  0.00    +0.088 C 
ATOM      7  C   UNL     1       2.017   1.241  -1.296  0.00  0.00    +0.163 C 
ATOM      8  O   UNL     1       3.226   1.119  -1.280  0.00  0.00    -0.292 OA
ATOM      9  N   UNL     1      -0.778   0.846  -3.643  0.00  0.00    -0.316 N 
ATOM     10  C   UNL     1      -0.488   1.273  -4.934  0.00  0.00    +0.052 A 
ATOM     11  C   UNL     1      -1.297   2.165  -5.617  0.00  0.00    +0.025 A 
ATOM     12  C   UNL     1      -0.975   2.514  -6.918  0.00  0.00    +0.002 A 
ATOM     13  C   UNL     1       0.142   1.974  -7.529  0.00  0.00    +0.002 A 
ATOM     14  C   UNL     1       0.961   1.095  -6.841  0.00  0.00    +0.025 A 
ATOM     15  C   UNL     1       0.653   0.760  -5.533  0.00  0.00    +0.049 A 
ATOM     16  N   UNL     1       1.503  -0.035  -4.766  0.00  0.00    -0.331 N 
ATOM     17  H   UNL     1      -1.701   0.257  -3.539  0.00  0.00    +0.152 HD
ATOM     18  H   UNL     1       1.631  -1.093  -5.040  0.00  0.00    +0.147 HD
ENDROOT
BRANCH   1  21
ATOM     19  C   UNL     1       5.166   2.734  -4.399  0.00  0.00    +0.164 A 
ATOM     20  C   UNL     1       4.409   1.656  -3.967  0.00  0.00    +0.055 A 
ATOM     21  C   UNL     1       3.033   1.684  -4.091  0.00  0.00    -0.017 A 
ATOM     22  C   UNL     1       2.407   2.790  -4.635  0.00  0.00    +0.042 A 
ATOM     23  C   UNL     1       3.155   3.871  -5.063  0.00  0.00    +0.171 A 
ATOM     24  C   UNL     1       4.536   3.847  -4.947  0.00  0.00    +0.189 A 
BRANCH  23  25
ATOM     25  N   UNL     1       2.482   5.053  -5.645  0.00  0.00    +0.060 N 
ATOM     26  O   UNL     1       1.268   5.074  -5.747  0.00  0.00    -0.126 OA
ATOM     27  O   UNL     1       3.141   6.006  -6.022  0.00  0.00    -0.126 OA
ENDBRANCH  23  25
BRANCH  24  28
ATOM     28  O   UNL     1       5.274   4.909  -5.367  0.00  0.00    -0.502 OA
ATOM     29  H   UNL     1       4.774   5.789  -5.800  0.00  0.00    +0.292 HD
ENDBRANCH  24  28
BRANCH  19  30
ATOM     30  O   UNL     1       6.521   2.706  -4.283  0.00  0.00    -0.488 OA
BRANCH  30  32
ATOM     31  C   UNL     1       8.620   1.682  -3.663  0.00  0.00    +0.048 C 
ATOM     32  C   UNL     1       7.098   1.530  -3.711  0.00  0.00    +0.226 C 
ENDBRANCH  30  32
ENDBRANCH  19  30
ENDBRANCH   1  21
BRANCH   5  33
ATOM     33  C   UNL     1      -0.869   1.635   1.138  0.00  0.00    -0.044 A 
ATOM     34  C   UNL     1      -1.025   2.995   1.332  0.00  0.00    +0.004 A 
ATOM     35  C   UNL     1      -1.725   3.461   2.429  0.00  0.00    +0.000 A 
ATOM     36  C   UNL     1      -2.260   2.568   3.338  0.00  0.00    +0.000 A 
ATOM     37  C   UNL     1      -2.099   1.208   3.148  0.00  0.00    +0.000 A 
ATOM     38  C   UNL     1      -1.404   0.742   2.048  0.00  0.00    +0.004 A 
ENDBRANCH   5  33
TORSDOF 6
