REMARK  Name = ZINC15055004
REMARK  9 active torsions:
REMARK  status: ('A' for Active; 'I' for Inactive)
REMARK    1  A    between atoms: C_1  and  O_2
REMARK    2  A    between atoms: O_2  and  C_3
REMARK    3  A    between atoms: C_6  and  C_9
REMARK    4  A    between atoms: C_9  and  C_11
REMARK    5  A    between atoms: C_11  and  C_12
REMARK    6  A    between atoms: N_16  and  C_27
REMARK    7  A    between atoms: N_18  and  C_19
REMARK    8  A    between atoms: C_22  and  O_25
REMARK    9  A    between atoms: C_30  and  O_33
REMARK                            x       y       z     vdW  Elec       q    Type
REMARK                         _______ _______ _______ _____ _____    ______ ____
ROOT
ATOM      1  C   UNL     1      -5.181   2.039  -2.191  0.00  0.00    +0.148 C 
ATOM      2  C   UNL     1      -5.629   3.211  -1.332  0.00  0.00    +0.239 C 
ATOM      3  O   UNL     1      -6.797   3.415  -1.080  0.00  0.00    -0.274 OA
ATOM      4  N   UNL     1      -4.665   3.989  -0.871  0.00  0.00    -0.218 N 
ATOM      5  C   UNL     1      -3.333   3.763  -1.159  0.00  0.00    +0.168 C 
ATOM      6  N   UNL     1      -2.291   4.458  -0.770  0.00  0.00    -0.225 NA
ATOM      7  S   UNL     1      -3.363   2.297  -2.180  0.00  0.00    -0.076 S 
ENDROOT
BRANCH   6   8
ATOM      8  C   UNL     1      -1.031   4.077  -1.153  0.00  0.00    +0.067 A 
ATOM      9  C   UNL     1      -0.655   2.734  -1.087  0.00  0.00    +0.031 A 
ATOM     10  C   UNL     1       0.615   2.356  -1.468  0.00  0.00    +0.047 A 
ATOM     11  C   UNL     1       1.516   3.306  -1.928  0.00  0.00    +0.117 A 
ATOM     12  C   UNL     1       1.145   4.642  -2.001  0.00  0.00    +0.047 A 
ATOM     13  C   UNL     1      -0.122   5.030  -1.617  0.00  0.00    +0.031 A 
BRANCH  11  14
ATOM     14  O   UNL     1       2.765   2.928  -2.308  0.00  0.00    -0.507 OA
ATOM     15  H   UNL     1       2.838   2.693  -3.244  0.00  0.00    +0.292 HD
ENDBRANCH  11  14
ENDBRANCH   6   8
BRANCH   4  16
ATOM     16  C   UNL     1      -5.006   5.086  -0.065  0.00  0.00    +0.043 A 
ATOM     17  C   UNL     1      -5.265   6.320  -0.646  0.00  0.00    +0.027 A 
ATOM     18  C   UNL     1      -5.606   7.398   0.147  0.00  0.00    +0.047 A 
ATOM     19  C   UNL     1      -5.680   7.250   1.524  0.00  0.00    +0.117 A 
ATOM     20  C   UNL     1      -5.417   6.018   2.106  0.00  0.00    +0.047 A 
ATOM     21  C   UNL     1      -5.081   4.938   1.313  0.00  0.00    +0.027 A 
BRANCH  19  22
ATOM     22  O   UNL     1      -6.011   8.313   2.305  0.00  0.00    -0.507 OA
ATOM     23  H   UNL     1      -5.253   8.835   2.600  0.00  0.00    +0.292 HD
ENDBRANCH  19  22
ENDBRANCH   4  16
BRANCH   1  24
ATOM     24  C   UNL     1      -5.747   2.144  -3.608  0.00  0.00    +0.103 C 
BRANCH  24  25
ATOM     25  C   UNL     1      -5.229   1.000  -4.442  0.00  0.00    +0.165 C 
ATOM     26  O   UNL     1      -4.481   0.182  -3.950  0.00  0.00    -0.292 OA
BRANCH  25  30
ATOM     27  C   UNL     1      -6.386   0.644  -8.501  0.00  0.00    +0.120 A 
ATOM     28  C   UNL     1      -5.528  -0.296  -7.939  0.00  0.00    +0.046 A 
ATOM     29  C   UNL     1      -5.150  -0.185  -6.626  0.00  0.00    +0.015 A 
ATOM     30  C   UNL     1      -5.630   0.877  -5.849  0.00  0.00    +0.018 A 
ATOM     31  C   UNL     1      -6.498   1.817  -6.418  0.00  0.00    +0.015 A 
ATOM     32  C   UNL     1      -6.865   1.700  -7.734  0.00  0.00    +0.046 A 
BRANCH  27  34
ATOM     33  C   UNL     1      -7.639   1.529 -10.314  0.00  0.00    +0.277 C 
ATOM     34  O   UNL     1      -6.756   0.530  -9.801  0.00  0.00    -0.495 OA
ENDBRANCH  27  34
ENDBRANCH  25  30
ENDBRANCH  24  25
ENDBRANCH   1  24
TORSDOF 8
