REMARK  Name = ZINC25382921
REMARK  10 active torsions:
REMARK  status: ('A' for Active; 'I' for Inactive)
REMARK    1  A    between atoms: C_1  and  C_2
REMARK    2  A    between atoms: C_2  and  C_3
REMARK    3  A    between atoms: C_6  and  C_9
REMARK    4  A    between atoms: C_9  and  C_11
REMARK    5  A    between atoms: C_9  and  N_32
REMARK    6  A    between atoms: C_11  and  N_12
REMARK    7  A    between atoms: C_13  and  C_15
REMARK    8  A    between atoms: C_15  and  N_16
REMARK    9  A    between atoms: N_32  and  C_33
REMARK   10  A    between atoms: N_32  and  C_34
REMARK                            x       y       z     vdW  Elec       q    Type
REMARK                         _______ _______ _______ _____ _____    ______ ____
ROOT
ATOM      1  N   UNL     1      -1.462   1.006  -2.056  0.00  0.00    -0.315 N 
ATOM      2  C   UNL     1      -1.951   1.142  -3.305  0.00  0.00    +0.231 C 
ATOM      3  O   UNL     1      -1.246   1.584  -4.188  0.00  0.00    -0.274 OA
ATOM      4  H   UNL     1      -2.102   0.606  -1.256  0.00  0.00    +0.149 HD
ENDROOT
BRANCH   1   5
ATOM      5  C   UNL     1      -0.080   1.393  -1.765  0.00  0.00    +0.093 C 
BRANCH   5   6
ATOM      6  C   UNL     1       0.167   1.306  -0.258  0.00  0.00    -0.021 C 
BRANCH   6  10
ATOM      7  C   UNL     1       4.272   2.159   0.564  0.00  0.00    -0.048 A 
ATOM      8  C   UNL     1       3.824   0.851   0.565  0.00  0.00    +0.004 A 
ATOM      9  C   UNL     1       2.496   0.575   0.300  0.00  0.00    +0.002 A 
ATOM     10  C   UNL     1       1.615   1.607   0.033  0.00  0.00    -0.059 A 
ATOM     11  C   UNL     1       2.064   2.914   0.026  0.00  0.00    +0.002 A 
ATOM     12  C   UNL     1       3.391   3.191   0.296  0.00  0.00    +0.004 A 
BRANCH   7  14
ATOM     13  C   UNL     1       6.512   2.457  -0.456  0.00  0.00    +0.009 C 
ATOM     14  C   UNL     1       5.720   2.460   0.853  0.00  0.00    +0.032 C 
ENDBRANCH   7  14
ENDBRANCH   6  10
BRANCH   6  15
ATOM     15  N   UNL     1      -0.684   2.282   0.436  0.00  0.00    +0.382 N 
ATOM     16  C   UNL     1      -0.970   3.437  -0.426  0.00  0.00    -0.096 C 
ATOM     17  C   UNL     1      -1.927   1.656   0.906  0.00  0.00    -0.096 C 
ATOM     18  H   UNL     1      -0.134   2.645   1.316  0.00  0.00    -0.082 HD
ENDBRANCH   6  15
ENDBRANCH   5   6
ENDBRANCH   1   5
BRANCH   2  19
ATOM     19  C   UNL     1      -3.373   0.744  -3.605  0.00  0.00    +0.213 C 
BRANCH  19  20
ATOM     20  N   UNL     1      -3.660   0.986  -5.021  0.00  0.00    -0.215 N 
ATOM     21  C   UNL     1      -3.467   0.077  -5.999  0.00  0.00    +0.251 C 
ATOM     22  O   UNL     1      -3.042  -1.051  -5.878  0.00  0.00    -0.272 OA
ATOM     23  C   UNL     1      -3.896   0.762  -7.278  0.00  0.00    +0.138 C 
ATOM     24  C   UNL     1      -5.063   0.017  -7.912  0.00  0.00    +0.040 C 
ATOM     25  C   UNL     1      -4.535  -1.288  -8.519  0.00  0.00    +0.008 C 
ATOM     26  C   UNL     1      -3.661  -0.942  -9.723  0.00  0.00    +0.035 C 
ATOM     27  C   UNL     1      -2.621   0.081  -9.348  0.00  0.00    -0.042 A 
ATOM     28  C   UNL     1      -2.732   0.870  -8.223  0.00  0.00    -0.012 A 
ATOM     29  C   UNL     1      -1.743   1.800  -7.937  0.00  0.00    +0.006 A 
ATOM     30  C   UNL     1      -0.649   1.940  -8.767  0.00  0.00    +0.000 A 
ATOM     31  C   UNL     1      -0.537   1.148  -9.894  0.00  0.00    +0.000 A 
ATOM     32  C   UNL     1      -1.520   0.223 -10.182  0.00  0.00    +0.004 A 
ATOM     33  N   UNL     1      -4.320   2.099  -6.839  0.00  0.00    -0.281 N 
ATOM     34  C   UNL     1      -4.150   2.134  -5.504  0.00  0.00    +0.310 C 
ATOM     35  O   UNL     1      -4.411   3.101  -4.815  0.00  0.00    -0.252 OA
ATOM     36  H   UNL     1      -4.684   2.830  -7.576  0.00  0.00    +0.152 HD
ENDBRANCH  19  20
ENDBRANCH   2  19
TORSDOF 7
