REMARK  Name = ZINC19074341
REMARK  11 active torsions:
REMARK  status: ('A' for Active; 'I' for Inactive)
REMARK    1  A    between atoms: C_1  and  C_2
REMARK    2  A    between atoms: C_2  and  N_67
REMARK    3  A    between atoms: C_3  and  C_4
REMARK    4  A    between atoms: C_3  and  N_67
REMARK    5  A    between atoms: C_5  and  C_6
REMARK    6  A    between atoms: C_5  and  N_67
REMARK    7  A    between atoms: C_6  and  C_7
REMARK    8  A    between atoms: C_10  and  C_20
REMARK    9  A    between atoms: C_13  and  C_15
REMARK   10  A    between atoms: C_22  and  C_32
REMARK   11  A    between atoms: C_25  and  C_26
REMARK                            x       y       z     vdW  Elec       q    Type
REMARK                         _______ _______ _______ _____ _____    ______ ____
ROOT
ATOM      1  C   UNL     1      -3.154   3.761   3.586  0.00  0.00    +0.234 C 
ATOM      2  O   UNL     1      -2.949   3.101   4.583  0.00  0.00    -0.274 OA
ATOM      3  N   UNL     1      -2.177   3.921   2.671  0.00  0.00    -0.183 N 
ATOM      4  C   UNL     1      -0.788   3.445   2.809  0.00  0.00    +0.157 C 
ATOM      5  C   UNL     1      -0.123   3.892   1.493  0.00  0.00    +0.091 C 
ATOM      6  C   UNL     1      -1.232   4.590   0.738  0.00  0.00    +0.104 C 
ATOM      7  N   UNL     1      -2.314   4.564   1.443  0.00  0.00    -0.178 NA
ENDROOT
BRANCH   6   8
ATOM      8  C   UNL     1      -1.099   5.202  -0.587  0.00  0.00    +0.150 A 
ATOM      9  C   UNL     1      -2.091   5.830  -1.283  0.00  0.00    +0.051 A 
ATOM     10  C   UNL     1      -1.523   6.263  -2.496  0.00  0.00    +0.042 A 
ATOM     11  C   UNL     1      -0.231   5.877  -2.488  0.00  0.00    +0.196 A 
ATOM     12  O   UNL     1       0.022   5.237  -1.335  0.00  0.00    -0.462 OA
ENDBRANCH   6   8
BRANCH   4  13
ATOM     13  C   UNL     1      -0.751   1.944   2.938  0.00  0.00    +0.087 C 
ATOM     14  N   UNL     1      -1.638   1.137   2.466  0.00  0.00    -0.253 NA
ATOM     15  C   UNL     1      -1.222  -0.228   2.811  0.00  0.00    +0.252 C 
ATOM     16  N   UNL     1       0.038  -0.094   3.554  0.00  0.00    -0.251 NA
ATOM     17  C   UNL     1       0.311   1.176   3.620  0.00  0.00    +0.091 C 
BRANCH  17  18
ATOM     18  C   UNL     1       1.500   1.762   4.280  0.00  0.00    +0.002 A 
ATOM     19  C   UNL     1       1.969   3.017   3.893  0.00  0.00    +0.010 A 
ATOM     20  C   UNL     1       3.074   3.560   4.515  0.00  0.00    +0.001 A 
ATOM     21  C   UNL     1       3.724   2.857   5.514  0.00  0.00    +0.000 A 
ATOM     22  C   UNL     1       3.267   1.609   5.899  0.00  0.00    +0.001 A 
ATOM     23  C   UNL     1       2.160   1.058   5.288  0.00  0.00    +0.010 A 
ENDBRANCH  17  18
BRANCH  15  24
ATOM     24  C   UNL     1      -2.266  -0.885   3.676  0.00  0.00    -0.002 A 
ATOM     25  C   UNL     1      -3.596  -0.530   3.545  0.00  0.00    +0.007 A 
ATOM     26  C   UNL     1      -4.554  -1.136   4.335  0.00  0.00    +0.000 A 
ATOM     27  C   UNL     1      -4.182  -2.091   5.263  0.00  0.00    +0.000 A 
ATOM     28  C   UNL     1      -2.852  -2.443   5.397  0.00  0.00    +0.000 A 
ATOM     29  C   UNL     1      -1.894  -1.840   4.604  0.00  0.00    +0.007 A 
ENDBRANCH  15  24
ENDBRANCH   4  13
BRANCH   1  30
ATOM     30  C   UNL     1      -4.500   4.402   3.369  0.00  0.00    +0.079 C 
BRANCH  30  31
ATOM     31  C   UNL     1      -5.420   4.068   4.546  0.00  0.00    -0.070 C 
BRANCH  31  32
ATOM     32  N   UNL     1      -6.728   4.721   4.329  0.00  0.00    +0.380 N 
ATOM     33  H   UNL     1      -6.575   5.716   4.131  0.00  0.00    -0.082 HD
BRANCH  32  35
ATOM     34  C   UNL     1      -7.609   2.601   3.411  0.00  0.00    -0.017 C 
ATOM     35  C   UNL     1      -7.417   4.101   3.178  0.00  0.00    -0.082 C 
ENDBRANCH  32  35
BRANCH  32  36
ATOM     36  C   UNL     1      -7.562   4.596   5.544  0.00  0.00    -0.082 C 
ATOM     37  C   UNL     1      -8.823   5.443   5.366  0.00  0.00    -0.017 C 
ENDBRANCH  32  36
ENDBRANCH  31  32
ENDBRANCH  30  31
ENDBRANCH   1  30
TORSDOF 9
