REMARK  Name = ZINC39694738
REMARK  6 active torsions:
REMARK  status: ('A' for Active; 'I' for Inactive)
REMARK    1  A    between atoms: C_1  and  C_2
REMARK    2  A    between atoms: C_4  and  C_33
REMARK    3  A    between atoms: C_6  and  C_8
REMARK    4  A    between atoms: C_8  and  N_9
REMARK    5  A    between atoms: C_10  and  C_12
REMARK    6  A    between atoms: C_23  and  C_25
REMARK                            x       y       z     vdW  Elec       q    Type
REMARK                         _______ _______ _______ _____ _____    ______ ____
ROOT
ATOM      1  C   UNL     1       2.758  -4.499   4.187  0.00  0.00    +0.100 C 
ATOM      2  C   UNL     1       3.742  -5.262   3.273  0.00  0.00    +0.121 C 
ATOM      3  N   UNL     1       4.612  -6.016   4.206  0.00  0.00    -0.296 N 
ATOM      4  C   UNL     1       3.692  -6.487   5.268  0.00  0.00    +0.115 C 
ATOM      5  C   UNL     1       2.727  -5.306   5.495  0.00  0.00    -0.004 C 
ATOM      6  C   UNL     1       1.316  -5.822   5.765  0.00  0.00    -0.010 C 
ATOM      7  C   UNL     1       1.298  -6.572   7.100  0.00  0.00    -0.082 C 
ATOM      8  N   UNL     1       1.725  -5.669   8.176  0.00  0.00    +0.379 N 
ATOM      9  C   UNL     1       3.115  -5.252   7.958  0.00  0.00    -0.082 C 
ATOM     10  C   UNL     1       3.210  -4.446   6.659  0.00  0.00    -0.010 C 
ATOM     11  C   UNL     1       5.940  -6.226   4.110  0.00  0.00    +0.247 C 
ATOM     12  O   UNL     1       6.583  -5.665   3.245  0.00  0.00    -0.270 OA
ATOM     13  H   UNL     1       1.128  -4.856   8.187  0.00  0.00    -0.086 HD
ATOM     14  H   UNL     1       1.654  -6.147   9.062  0.00  0.00    -0.086 HD
ENDROOT
BRANCH  11  15
ATOM     15  C   UNL     1       6.614  -7.138   5.058  0.00  0.00    +0.040 A 
ATOM     16  C   UNL     1       5.875  -8.097   5.753  0.00  0.00    +0.033 A 
ATOM     17  C   UNL     1       6.511  -8.946   6.638  0.00  0.00    +0.043 A 
ATOM     18  C   UNL     1       7.878  -8.848   6.835  0.00  0.00    +0.040 A 
ATOM     19  C   UNL     1       8.616  -7.899   6.148  0.00  0.00    +0.043 A 
ATOM     20  C   UNL     1       7.992  -7.048   5.257  0.00  0.00    +0.033 A 
ATOM     21 CL   UNL     1      10.329  -7.783   6.403  0.00  0.00    -0.083 Cl
ATOM     22 CL   UNL     1       5.594 -10.139   7.504  0.00  0.00    -0.083 Cl
ENDBRANCH  11  15
BRANCH   1  24
ATOM     23  N   UNL     1       0.566  -3.417   3.809  0.00  0.00    -0.311 N 
ATOM     24  C   UNL     1       1.386  -4.457   3.563  0.00  0.00    +0.218 C 
ATOM     25  O   UNL     1       1.022  -5.360   2.841  0.00  0.00    -0.275 OA
ATOM     26  H   UNL     1       0.857  -2.695   4.387  0.00  0.00    +0.149 HD
BRANCH  23  27
ATOM     27  C   UNL     1      -0.767  -3.377   3.202  0.00  0.00    +0.139 C 
BRANCH  27  33
ATOM     28  C   UNL     1      -3.750  -0.968   6.419  0.00  0.00    +0.044 C 
ATOM     29  C   UNL     1      -2.905  -0.967   5.171  0.00  0.00    -0.050 A 
ATOM     30  C   UNL     1      -2.781   0.188   4.421  0.00  0.00    +0.006 A 
ATOM     31  C   UNL     1      -2.006   0.189   3.276  0.00  0.00    -0.050 A 
ATOM     32  C   UNL     1      -1.355  -0.965   2.882  0.00  0.00    +0.008 A 
ATOM     33  C   UNL     1      -1.478  -2.119   3.632  0.00  0.00    -0.030 A 
ATOM     34  C   UNL     1      -2.249  -2.119   4.779  0.00  0.00    +0.008 A 
ATOM     35  C   UNL     1      -1.872   1.447   2.458  0.00  0.00    +0.044 C 
ENDBRANCH  27  33
ENDBRANCH  23  27
ENDBRANCH   1  24
TORSDOF 4
