REMARK  Name = ZINC05686612
REMARK  8 active torsions:
REMARK  status: ('A' for Active; 'I' for Inactive)
REMARK    1  A    between atoms: C_1  and  C_2
REMARK    2  A    between atoms: C_2  and  C_3
REMARK    3  A    between atoms: C_3  and  C_4
REMARK    4  A    between atoms: C_3  and  C_6
REMARK    5  A    between atoms: C_4  and  C_5
REMARK    6  A    between atoms: C_9  and  C_20
REMARK    7  A    between atoms: C_15  and  N_19
REMARK    8  A    between atoms: C_16  and  C_17
REMARK                            x       y       z     vdW  Elec       q    Type
REMARK                         _______ _______ _______ _____ _____    ______ ____
ROOT
ATOM      1  C   UNL     1       0.734  -1.965   1.547  0.00  0.00    +0.075 C 
ATOM      2  C   UNL     1       1.678  -2.222   2.694  0.00  0.00    +0.050 A 
ATOM      3  C   UNL     1       1.479  -2.026   4.064  0.00  0.00    +0.100 A 
ATOM      4  N   UNL     1       2.583  -2.389   4.690  0.00  0.00    -0.171 NA
ATOM      5  N   UNL     1       3.512  -2.824   3.732  0.00  0.00    -0.246 N 
ATOM      6  H   UNL     1       4.409  -3.146   3.912  0.00  0.00    +0.192 HD
ATOM      7  C   UNL     1       2.938  -2.715   2.515  0.00  0.00    +0.223 A 
ATOM      8  O   UNL     1       3.441  -3.015   1.292  0.00  0.00    -0.423 OA
ATOM      9  C   UNL     1       2.575  -3.077   0.259  0.00  0.00    +0.200 C 
ATOM     10  C   UNL     1       1.306  -2.612   0.311  0.00  0.00    +0.094 C 
ENDROOT
BRANCH   3  11
ATOM     11  C   UNL     1       0.245  -1.504   4.702  0.00  0.00    +0.003 A 
ATOM     12  C   UNL     1       0.333  -0.570   5.732  0.00  0.00    +0.010 A 
ATOM     13  C   UNL     1      -0.818  -0.087   6.322  0.00  0.00    +0.001 A 
ATOM     14  C   UNL     1      -2.056  -0.528   5.891  0.00  0.00    +0.000 A 
ATOM     15  C   UNL     1      -2.149  -1.456   4.869  0.00  0.00    +0.001 A 
ATOM     16  C   UNL     1      -1.005  -1.940   4.268  0.00  0.00    +0.010 A 
ENDBRANCH   3  11
BRANCH   9  17
ATOM     17  N   UNL     1       3.007  -3.646  -0.913  0.00  0.00    -0.328 N 
ATOM     18  H   UNL     1       3.912  -3.988  -0.981  0.00  0.00    +0.145 HD
ATOM     19  H   UNL     1       2.408  -3.704  -1.673  0.00  0.00    +0.145 HD
ENDBRANCH   9  17
BRANCH  10  20
ATOM     20  C   UNL     1       0.476  -2.738  -0.849  0.00  0.00    +0.100 C 
ATOM     21  N   UNL     1      -0.183  -2.838  -1.769  0.00  0.00    -0.191 NA
ENDBRANCH  10  20
BRANCH   1  22
ATOM     22  C   UNL     1       0.593  -0.458   1.323  0.00  0.00    +0.001 C 
BRANCH  22  24
ATOM     23  C   UNL     1       1.829   1.640   0.764  0.00  0.00    +0.004 C 
ATOM     24  C   UNL     1       1.934   0.117   0.864  0.00  0.00    +0.001 C 
ENDBRANCH  22  24
BRANCH  22  25
ATOM     25  C   UNL     1      -0.467  -0.199   0.250  0.00  0.00    +0.001 C 
ATOM     26  C   UNL     1      -1.825  -0.702   0.744  0.00  0.00    +0.004 C 
ENDBRANCH  22  25
ENDBRANCH   1  22
TORSDOF 6
