REMARK  Name = ZINC00826908
REMARK  9 active torsions:
REMARK  status: ('A' for Active; 'I' for Inactive)
REMARK    1  A    between atoms: C_1  and  C_2
REMARK    2  A    between atoms: C_5  and  S_8
REMARK    3  A    between atoms: S_8  and  N_11
REMARK    4  A    between atoms: N_11  and  C_12
REMARK    5  A    between atoms: C_15  and  C_18
REMARK    6  A    between atoms: C_23  and  N_28
REMARK    7  A    between atoms: N_28  and  S_29
REMARK    8  A    between atoms: S_29  and  C_32
REMARK    9  A    between atoms: C_35  and  C_38
REMARK                            x       y       z     vdW  Elec       q    Type
REMARK                         _______ _______ _______ _____ _____    ______ ____
ROOT
ATOM      1  C   UNL     1       0.301   5.692   0.157  0.00  0.00    +0.139 A 
ATOM      2  N   UNL     1      -0.928   6.299   0.176  0.00  0.00    -0.338 N 
ATOM      3  H   UNL     1      -1.816   5.841   0.218  0.00  0.00    +0.167 HD
ATOM      4  C   UNL     1      -0.711   7.662   0.125  0.00  0.00    +0.068 A 
ATOM      5  C   UNL     1      -1.546   8.770   0.117  0.00  0.00    +0.052 A 
ATOM      6  C   UNL     1      -1.000  10.041   0.051  0.00  0.00    +0.050 A 
ATOM      7  C   UNL     1       0.383  10.210  -0.006  0.00  0.00    +0.027 A 
ATOM      8  C   UNL     1       1.216   9.128   0.002  0.00  0.00    +0.032 A 
ATOM      9  C   UNL     1       0.684   7.836   0.068  0.00  0.00    +0.090 A 
ATOM     10  N   UNL     1       1.243   6.600   0.090  0.00  0.00    -0.228 NA
ENDROOT
BRANCH   1  14
ATOM     11  C   UNL     1       0.956   1.496   0.277  0.00  0.00    +0.048 A 
ATOM     12  C   UNL     1      -0.342   1.996   0.302  0.00  0.00    +0.025 A 
ATOM     13  C   UNL     1      -0.557   3.357   0.269  0.00  0.00    +0.013 A 
ATOM     14  C   UNL     1       0.528   4.232   0.199  0.00  0.00    +0.017 A 
ATOM     15  C   UNL     1       1.830   3.726   0.169  0.00  0.00    +0.013 A 
ATOM     16  C   UNL     1       2.039   2.365   0.208  0.00  0.00    +0.025 A 
BRANCH  11  17
ATOM     17  N   UNL     1       1.171   0.119   0.316  0.00  0.00    -0.216 N 
ATOM     18  H   UNL     1       1.797  -0.292  -0.300  0.00  0.00    +0.174 HD
BRANCH  17  19
ATOM     19  S   UNL     1       0.357  -0.815   1.415  0.00  0.00    +0.072 S 
ATOM     20  O   UNL     1      -1.022  -0.506   1.269  0.00  0.00    -0.150 OA
ATOM     21  O   UNL     1       0.861  -2.137   1.276  0.00  0.00    -0.150 OA
BRANCH  19  26
ATOM     22  C   UNL     1       1.975   1.077   6.911  0.00  0.00    +0.044 C 
ATOM     23  C   UNL     1       1.571   0.604   5.539  0.00  0.00    -0.050 A 
ATOM     24  C   UNL     1       0.417   1.090   4.952  0.00  0.00    +0.005 A 
ATOM     25  C   UNL     1       0.046   0.656   3.693  0.00  0.00    +0.029 A 
ATOM     26  C   UNL     1       0.830  -0.263   3.020  0.00  0.00    +0.109 A 
ATOM     27  C   UNL     1       1.980  -0.752   3.609  0.00  0.00    +0.029 A 
ATOM     28  C   UNL     1       2.353  -0.315   4.866  0.00  0.00    +0.005 A 
ENDBRANCH  19  26
ENDBRANCH  17  19
ENDBRANCH  11  17
ENDBRANCH   1  14
BRANCH   6  29
ATOM     29  N   UNL     1      -1.838  11.159   0.043  0.00  0.00    -0.216 N 
ATOM     30  H   UNL     1      -1.988  11.647  -0.782  0.00  0.00    +0.174 HD
BRANCH  29  31
ATOM     31  S   UNL     1      -2.576  11.652   1.441  0.00  0.00    +0.072 S 
ATOM     32  O   UNL     1      -3.331  12.811   1.115  0.00  0.00    -0.150 OA
ATOM     33  O   UNL     1      -3.167  10.495   2.017  0.00  0.00    -0.150 OA
BRANCH  31  34
ATOM     34  C   UNL     1      -1.306  12.172   2.545  0.00  0.00    +0.109 A 
ATOM     35  C   UNL     1      -0.668  11.246   3.350  0.00  0.00    +0.029 A 
ATOM     36  C   UNL     1       0.332  11.654   4.213  0.00  0.00    +0.005 A 
ATOM     37  C   UNL     1       0.688  12.988   4.279  0.00  0.00    -0.050 A 
ATOM     38  C   UNL     1       0.047  13.914   3.478  0.00  0.00    +0.005 A 
ATOM     39  C   UNL     1      -0.950  13.506   2.611  0.00  0.00    +0.029 A 
ATOM     40  C   UNL     1       1.774  13.433   5.223  0.00  0.00    +0.044 C 
ENDBRANCH  31  34
ENDBRANCH  29  31
ENDBRANCH   6  29
TORSDOF 7
