REMARK  Name = ZINC63993654
REMARK  9 active torsions:
REMARK  status: ('A' for Active; 'I' for Inactive)
REMARK    1  A    between atoms: C_1  and  C_2
REMARK    2  A    between atoms: C_2  and  C_3
REMARK    3  A    between atoms: C_2  and  C_4
REMARK    4  A    between atoms: C_4  and  C_5
REMARK    5  A    between atoms: C_5  and  N_6
REMARK    6  A    between atoms: N_9  and  C_29
REMARK    7  A    between atoms: N_15  and  C_18
REMARK    8  A    between atoms: C_18  and  C_19
REMARK    9  A    between atoms: C_29  and  C_30
REMARK                            x       y       z     vdW  Elec       q    Type
REMARK                         _______ _______ _______ _____ _____    ______ ____
ROOT
ATOM      1  N   UNL     1      -3.547  -0.524  -1.283  0.00  0.00    -0.271 N 
ATOM      2  C   UNL     1      -4.056  -1.705  -1.682  0.00  0.00    +0.312 C 
ATOM      3  O   UNL     1      -3.383  -2.623  -2.109  0.00  0.00    -0.252 OA
ATOM      4  N   UNL     1      -5.388  -1.755  -1.556  0.00  0.00    -0.220 N 
ATOM      5  C   UNL     1      -5.884  -0.603  -1.058  0.00  0.00    +0.247 C 
ATOM      6  O   UNL     1      -7.045  -0.342  -0.830  0.00  0.00    -0.273 OA
ATOM      7  C   UNL     1      -4.685   0.290  -0.839  0.00  0.00    +0.112 C 
ATOM      8  C   UNL     1      -4.802   1.554  -1.684  0.00  0.00    +0.017 C 
ATOM      9  C   UNL     1      -3.599   2.461  -1.408  0.00  0.00    -0.076 C 
ATOM     10  N   UNL     1      -3.558   2.803   0.018  0.00  0.00    +0.381 N 
ATOM     11  C   UNL     1      -3.352   1.590   0.819  0.00  0.00    -0.076 C 
ATOM     12  C   UNL     1      -4.544   0.647   0.638  0.00  0.00    +0.017 C 
ATOM     13  H   UNL     1      -4.431   3.235   0.284  0.00  0.00    -0.082 HD
ENDROOT
BRANCH   1  14
ATOM     14  C   UNL     1      -2.135  -0.131  -1.286  0.00  0.00    +0.110 C 
BRANCH  14  15
ATOM     15  C   UNL     1      -1.636  -0.033  -2.729  0.00  0.00    +0.022 C 
BRANCH  15  17
ATOM     16  C   UNL     1       0.722  -0.512  -2.057  0.00  0.00    +0.007 C 
ATOM     17  C   UNL     1      -0.202   0.500  -2.737  0.00  0.00    -0.016 C 
ATOM     18  C   UNL     1       0.254   0.717  -4.181  0.00  0.00    +0.007 C 
ENDBRANCH  15  17
ENDBRANCH  14  15
ENDBRANCH   1  14
BRANCH  10  19
ATOM     19  C   UNL     1      -2.456   3.743   0.264  0.00  0.00    -0.050 C 
BRANCH  19  20
ATOM     20  C   UNL     1      -2.489   4.197   1.724  0.00  0.00    +0.086 C 
ATOM     21  C   UNL     1      -1.479   5.300   1.950  0.00  0.00    +0.005 C 
ATOM     22  C   UNL     1      -2.186   6.379   2.355  0.00  0.00    -0.004 A 
ATOM     23  C   UNL     1      -1.792   7.743   2.728  0.00  0.00    +0.010 A 
ATOM     24  C   UNL     1      -2.749   8.623   3.100  0.00  0.00    +0.001 A 
ATOM     25  C   UNL     1      -4.104   8.267   3.139  0.00  0.00    +0.002 A 
ATOM     26  C   UNL     1      -4.543   7.033   2.811  0.00  0.00    +0.026 A 
ATOM     27  C   UNL     1      -3.623   6.027   2.404  0.00  0.00    +0.043 A 
ATOM     28  N   UNL     1      -3.798   4.778   2.044  0.00  0.00    -0.380 N 
ATOM     29  H   UNL     1      -4.649   4.315   1.996  0.00  0.00    +0.160 HD
ENDBRANCH  19  20
ENDBRANCH  10  19
BRANCH   4  30
ATOM     30  C   UNL     1      -6.206  -2.917  -1.914  0.00  0.00    +0.154 C 
BRANCH  30  31
ATOM     31  C   UNL     1      -6.343  -3.823  -0.718  0.00  0.00    -0.011 A 
ATOM     32  C   UNL     1      -5.419  -4.832  -0.492  0.00  0.00    +0.008 A 
ATOM     33  C   UNL     1      -5.584  -5.641   0.622  0.00  0.00    +0.020 A 
ATOM     34  C   UNL     1      -6.657  -5.417   1.463  0.00  0.00    +0.111 A 
ATOM     35  N   UNL     1      -7.517  -4.448   1.217  0.00  0.00    -0.263 NA
ATOM     36  C   UNL     1      -7.388  -3.655   0.171  0.00  0.00    +0.116 A 
ENDBRANCH  30  31
ENDBRANCH   4  30
TORSDOF 7
