REMARK  Name = ZINC16440744
REMARK  5 active torsions:
REMARK  status: ('A' for Active; 'I' for Inactive)
REMARK    1  A    between atoms: C_1  and  C_2
REMARK    2  A    between atoms: N_4  and  C_5
REMARK    3  A    between atoms: C_8  and  C_11
REMARK    4  A    between atoms: C_16  and  N_18
REMARK    5  A    between atoms: N_18  and  C_19
REMARK                            x       y       z     vdW  Elec       q    Type
REMARK                         _______ _______ _______ _____ _____    ______ ____
ROOT
ATOM      1  C   UNL     1      -1.046  -6.242  -1.038  0.00  0.00    +0.028 C 
ATOM      2  C   UNL     1      -0.698  -7.006  -2.105  0.00  0.00    +0.079 C 
ATOM      3  C   UNL     1      -0.550  -8.476  -2.212  0.00  0.00    +0.276 C 
ATOM      4  O   UNL     1      -0.746  -9.214  -1.259  0.00  0.00    -0.267 OA
ATOM      5  N   UNL     1      -0.196  -8.942  -3.389  0.00  0.00    -0.152 NA
ATOM      6  C   UNL     1       0.019  -8.153  -4.430  0.00  0.00    +0.175 C 
ATOM      7  S   UNL     1      -0.295  -6.520  -3.778  0.00  0.00    -0.050 S 
ENDROOT
BRANCH   1  11
ATOM      8  C   UNL     1      -1.778  -2.096  -1.546  0.00  0.00    +0.033 A 
ATOM      9  C   UNL     1      -1.720  -2.932  -2.658  0.00  0.00    +0.024 A 
ATOM     10  C   UNL     1      -1.483  -4.278  -2.498  0.00  0.00    +0.010 A 
ATOM     11  C   UNL     1      -1.299  -4.807  -1.214  0.00  0.00    -0.024 A 
ATOM     12  C   UNL     1      -1.357  -3.962  -0.098  0.00  0.00    +0.010 A 
ATOM     13  C   UNL     1      -1.590  -2.616  -0.269  0.00  0.00    +0.024 A 
BRANCH   8  17
ATOM     14  C   UNL     1      -3.210   1.151  -2.787  0.00  0.00    +0.109 C 
ATOM     15  C   UNL     1      -2.849  -0.309  -2.686  0.00  0.00    +0.214 C 
ATOM     16  O   UNL     1      -3.307  -1.103  -3.481  0.00  0.00    -0.276 OA
ATOM     17  N   UNL     1      -2.018  -0.733  -1.713  0.00  0.00    -0.286 N 
ATOM     18  H   UNL     1      -1.587  -0.089  -1.129  0.00  0.00    +0.155 HD
ENDBRANCH   8  17
ENDBRANCH   1  11
BRANCH   6  19
ATOM     19  N   UNL     1       0.389  -8.505  -5.702  0.00  0.00    -0.192 NA
BRANCH  19  20
ATOM     20  C   UNL     1       0.387  -9.850  -6.084  0.00  0.00    +0.056 A 
ATOM     21  C   UNL     1      -0.409 -10.764  -5.406  0.00  0.00    +0.025 A 
ATOM     22  C   UNL     1      -0.409 -12.092  -5.787  0.00  0.00    +0.002 A 
ATOM     23  C   UNL     1       0.382 -12.511  -6.840  0.00  0.00    +0.000 A 
ATOM     24  C   UNL     1       1.175 -11.603  -7.517  0.00  0.00    +0.002 A 
ATOM     25  C   UNL     1       1.176 -10.273  -7.146  0.00  0.00    +0.025 A 
ENDBRANCH  19  20
ENDBRANCH   6  19
TORSDOF 4
