REMARK  Name = ZINC28302809
REMARK  7 active torsions:
REMARK  status: ('A' for Active; 'I' for Inactive)
REMARK    1  A    between atoms: C_4  and  C_7
REMARK    2  A    between atoms: C_10  and  S_19
REMARK    3  A    between atoms: N_11  and  C_12
REMARK    4  A    between atoms: S_19  and  C_20
REMARK    5  A    between atoms: C_20  and  C_21
REMARK    6  A    between atoms: N_23  and  C_24
REMARK    7  A    between atoms: C_29  and  N_30
REMARK                            x       y       z     vdW  Elec       q    Type
REMARK                         _______ _______ _______ _____ _____    ______ ____
ROOT
ATOM      1  C   UNL     1      -9.693   0.337   0.715  0.00  0.00    +0.169 A 
ATOM      2  N   UNL     1      -8.865   1.332   0.495  0.00  0.00    -0.128 NA
ATOM      3  N   UNL     1      -7.655   0.899   0.466  0.00  0.00    -0.122 NA
ATOM      4  C   UNL     1      -7.635  -0.400   0.665  0.00  0.00    +0.197 A 
ATOM      5  N   UNL     1      -8.931  -0.806   0.826  0.00  0.00    -0.270 N 
ENDROOT
BRANCH   5   6
ATOM      6  C   UNL     1      -9.389  -2.111   1.057  0.00  0.00    +0.051 A 
ATOM      7  C   UNL     1     -10.181  -2.748   0.111  0.00  0.00    +0.029 A 
ATOM      8  C   UNL     1     -10.627  -4.035   0.338  0.00  0.00    +0.040 A 
ATOM      9  C   UNL     1     -10.293  -4.687   1.513  0.00  0.00    +0.124 A 
ATOM     10  C   UNL     1      -9.507  -4.052   2.460  0.00  0.00    +0.040 A 
ATOM     11  C   UNL     1      -9.055  -2.767   2.234  0.00  0.00    +0.029 A 
ATOM     12  F   UNL     1     -10.735  -5.944   1.736  0.00  0.00    -0.205 F 
ENDBRANCH   5   6
BRANCH   1  16
ATOM     13  C   UNL     1     -13.922   0.589   1.010  0.00  0.00    +0.000 A 
ATOM     14  C   UNL     1     -13.205   1.645   0.475  0.00  0.00    +0.001 A 
ATOM     15  C   UNL     1     -11.831   1.569   0.377  0.00  0.00    +0.011 A 
ATOM     16  C   UNL     1     -11.165   0.425   0.818  0.00  0.00    +0.020 A 
ATOM     17  C   UNL     1     -11.895  -0.638   1.352  0.00  0.00    +0.011 A 
ATOM     18  C   UNL     1     -13.268  -0.548   1.450  0.00  0.00    +0.001 A 
ENDBRANCH   1  16
BRANCH   4  19
ATOM     19  S   UNL     1      -6.204  -1.428   0.710  0.00  0.00    -0.076 S 
BRANCH  19  20
ATOM     20  C   UNL     1      -4.918  -0.190   0.416  0.00  0.00    +0.173 C 
BRANCH  20  21
ATOM     21  C   UNL     1      -3.567  -0.859   0.412  0.00  0.00    +0.228 C 
ATOM     22  O   UNL     1      -3.483  -2.056   0.590  0.00  0.00    -0.275 OA
ATOM     23  N   UNL     1      -2.453  -0.128   0.210  0.00  0.00    -0.283 N 
ATOM     24  H   UNL     1      -2.520   0.967   0.135  0.00  0.00    +0.155 HD
BRANCH  23  25
ATOM     25  C   UNL     1      -1.211  -0.762   0.096  0.00  0.00    +0.064 A 
ATOM     26  C   UNL     1      -1.118  -2.005  -0.518  0.00  0.00    +0.025 A 
ATOM     27  C   UNL     1       0.109  -2.628  -0.629  0.00  0.00    +0.002 A 
ATOM     28  C   UNL     1       1.244  -2.017  -0.129  0.00  0.00    +0.002 A 
ATOM     29  C   UNL     1       1.156  -0.778   0.477  0.00  0.00    +0.034 A 
ATOM     30  C   UNL     1      -0.069  -0.151   0.596  0.00  0.00    +0.147 A 
BRANCH  30  31
ATOM     31  N   UNL     1      -0.164   1.173   1.251  0.00  0.00    +0.058 N 
ATOM     32  O   UNL     1       0.821   1.668   1.770  0.00  0.00    -0.126 OA
ATOM     33  O   UNL     1      -1.226   1.770   1.267  0.00  0.00    -0.126 OA
ENDBRANCH  30  31
ENDBRANCH  23  25
ENDBRANCH  20  21
ENDBRANCH  19  20
ENDBRANCH   4  19
TORSDOF 7
