REMARK  Name = ZINC49528731
REMARK  7 active torsions:
REMARK  status: ('A' for Active; 'I' for Inactive)
REMARK    1  A    between atoms: C_1  and  C_2
REMARK    2  A    between atoms: C_2  and  C_3
REMARK    3  A    between atoms: C_3  and  C_5
REMARK    4  A    between atoms: C_3  and  N_10
REMARK    5  A    between atoms: N_10  and  S_11
REMARK    6  A    between atoms: S_11  and  C_14
REMARK    7  A    between atoms: C_19  and  N_20
REMARK                            x       y       z     vdW  Elec       q    Type
REMARK                         _______ _______ _______ _____ _____    ______ ____
ROOT
ATOM      1  S   UNL     1       2.615   1.277  -1.964  0.00  0.00    +0.061 S 
ATOM      2  O   UNL     1       1.855   2.372  -1.471  0.00  0.00    -0.153 OA
ATOM      3  O   UNL     1       4.021   1.181  -1.778  0.00  0.00    -0.153 OA
ENDROOT
BRANCH   1   4
ATOM      4  C   UNL     1       2.330   1.207  -3.701  0.00  0.00    +0.126 A 
ATOM      5  C   UNL     1       1.516   2.144  -4.306  0.00  0.00    +0.031 A 
ATOM      6  C   UNL     1       1.292   2.090  -5.670  0.00  0.00    +0.017 A 
ATOM      7  C   UNL     1       1.881   1.097  -6.432  0.00  0.00    +0.020 A 
ATOM      8  C   UNL     1       2.696   0.156  -5.832  0.00  0.00    +0.040 A 
ATOM      9  C   UNL     1       2.928   0.212  -4.464  0.00  0.00    +0.052 A 
ATOM     10 BR   UNL     1       1.571   1.027  -8.296  0.00  0.00    -0.050 Br
BRANCH   9  11
ATOM     11  N   UNL     1       3.756  -0.734  -3.855  0.00  0.00    -0.356 N 
ATOM     12  H   UNL     1       3.843  -0.752  -2.889  0.00  0.00    +0.142 HD
ATOM     13  H   UNL     1       4.243  -1.373  -4.398  0.00  0.00    +0.142 HD
ENDBRANCH   9  11
ENDBRANCH   1   4
BRANCH   1  14
ATOM     14  N   UNL     1       1.956  -0.091  -1.303  0.00  0.00    -0.182 NA
ATOM     15  H   UNL     1       2.525  -0.735  -0.853  0.00  0.00    +0.149 HD
BRANCH  14  16
ATOM     16  C   UNL     1       0.514  -0.329  -1.399  0.00  0.00    +0.113 C 
BRANCH  16  17
ATOM     17  C   UNL     1       0.266  -1.628  -2.122  0.00  0.00    +0.008 A 
ATOM     18  C   UNL     1      -0.682  -1.925  -3.045  0.00  0.00    +0.013 A 
ATOM     19  C   UNL     1      -0.721  -3.198  -3.581  0.00  0.00    +0.008 A 
ATOM     20  C   UNL     1       0.191  -4.113  -3.168  0.00  0.00    +0.045 A 
ATOM     21  S   UNL     1       1.150  -3.174  -1.991  0.00  0.00    -0.100 S 
ENDBRANCH  16  17
BRANCH  16  23
ATOM     22  C   UNL     1       0.049   0.955   0.693  0.00  0.00    +0.006 C 
ATOM     23  C   UNL     1      -0.085  -0.406   0.007  0.00  0.00    +0.022 C 
ENDBRANCH  16  23
ENDBRANCH  14  16
ENDBRANCH   1  14
TORSDOF 6
