REMARK  Name = ZINC38932376
REMARK  6 active torsions:
REMARK  status: ('A' for Active; 'I' for Inactive)
REMARK    1  A    between atoms: C_7  and  C_10
REMARK    2  A    between atoms: N_11  and  N_12
REMARK    3  A    between atoms: C_13  and  C_15
REMARK    4  A    between atoms: C_15  and  N_16
REMARK    5  A    between atoms: N_19  and  S_22
REMARK    6  A    between atoms: S_22  and  C_25
REMARK                            x       y       z     vdW  Elec       q    Type
REMARK                         _______ _______ _______ _____ _____    ______ ____
ROOT
ATOM      1  C   UNL     1      -0.220  -7.864  -0.038  0.00  0.00    +0.182 C 
ENDROOT
BRANCH   1   2
ATOM      2  N   UNL     1       0.542  -9.120  -0.053  0.00  0.00    -0.291 NA
ATOM      3  C   UNL     1       1.286  -9.270  -1.311  0.00  0.00    +0.102 C 
ATOM      4  C   UNL     1       2.205 -10.492  -1.214  0.00  0.00    +0.125 C 
ATOM      5  N   UNL     1       1.394 -11.657  -0.829  0.00  0.00    -0.174 NA
ATOM      6  C   UNL     1       0.517 -11.536   0.346  0.00  0.00    +0.125 C 
ATOM      7  C   UNL     1      -0.336 -10.272   0.188  0.00  0.00    +0.102 C 
BRANCH   5   8
ATOM      8  S   UNL     1       1.467 -13.068  -1.693  0.00  0.00    +0.061 S 
ATOM      9  O   UNL     1       0.244 -13.751  -1.459  0.00  0.00    -0.153 OA
ATOM     10  O   UNL     1       1.910 -12.722  -2.998  0.00  0.00    -0.153 OA
BRANCH   8  11
ATOM     11  C   UNL     1       2.740 -14.053  -0.975  0.00  0.00    +0.106 A 
ATOM     12  C   UNL     1       4.040 -13.941  -1.429  0.00  0.00    +0.029 A 
ATOM     13  C   UNL     1       5.039 -14.713  -0.866  0.00  0.00    +0.017 A 
ATOM     14  C   UNL     1       4.736 -15.599   0.153  0.00  0.00    +0.018 A 
ATOM     15  C   UNL     1       3.434 -15.711   0.607  0.00  0.00    +0.017 A 
ATOM     16  C   UNL     1       2.438 -14.934   0.047  0.00  0.00    +0.029 A 
ATOM     17 BR   UNL     1       6.101 -16.656   0.923  0.00  0.00    -0.050 Br
ENDBRANCH   8  11
ENDBRANCH   5   8
ENDBRANCH   1   2
BRANCH   1  19
ATOM     18  N   UNL     1       0.255  -5.437  -0.030  0.00  0.00    -0.206 N 
ATOM     19  C   UNL     1       0.733  -6.697  -0.041  0.00  0.00    +0.246 C 
ATOM     20  O   UNL     1       1.930  -6.892  -0.054  0.00  0.00    -0.273 OA
ATOM     21  H   UNL     1      -0.702  -5.281  -0.020  0.00  0.00    +0.177 HD
BRANCH  18  23
ATOM     22  C   UNL     1       0.677  -3.128  -0.022  0.00  0.00    +0.136 C 
ATOM     23  N   UNL     1       1.141  -4.352  -0.033  0.00  0.00    -0.188 NA
BRANCH  22  30
ATOM     24  C   UNL     1      -0.016   1.353   0.009  0.00  0.00    +0.001 A 
ATOM     25  C   UNL     1       1.164   2.102   0.002  0.00  0.00    +0.002 A 
ATOM     26  C   UNL     1       2.384   1.514  -0.013  0.00  0.00    +0.026 A 
ATOM     27  C   UNL     1       2.485   0.097  -0.022  0.00  0.00    +0.043 A 
ATOM     28  N   UNL     1       3.531  -0.702  -0.037  0.00  0.00    -0.380 N 
ATOM     29  C   UNL     1       3.076  -2.096  -0.040  0.00  0.00    +0.150 C 
ATOM     30  C   UNL     1       1.565  -2.042  -0.024  0.00  0.00    +0.000 C 
ATOM     31  C   UNL     1       1.238  -0.688  -0.013  0.00  0.00    +0.004 A 
ATOM     32  C   UNL     1       0.002  -0.004   0.002  0.00  0.00    +0.010 A 
ATOM     33  H   UNL     1       4.458  -0.414  -0.045  0.00  0.00    +0.160 HD
ENDBRANCH  22  30
ENDBRANCH  18  23
ENDBRANCH   1  19
TORSDOF 6
