REMARK  Name = ZINC63270031
REMARK  12 active torsions:
REMARK  status: ('A' for Active; 'I' for Inactive)
REMARK    1  A    between atoms: C_1  and  C_2
REMARK    2  A    between atoms: C_4  and  C_34
REMARK    3  A    between atoms: C_6  and  N_8
REMARK    4  A    between atoms: C_9  and  C_11
REMARK    5  A    between atoms: C_11  and  C_12
REMARK    6  A    between atoms: C_12  and  C_13
REMARK    7  A    between atoms: N_17  and  C_21
REMARK    8  A    between atoms: C_18  and  O_20
REMARK    9  A    between atoms: C_21  and  C_22
REMARK   10  A    between atoms: C_22  and  C_23
REMARK   11  A    between atoms: C_26  and  O_32
REMARK   12  A    between atoms: O_32  and  C_33
REMARK                            x       y       z     vdW  Elec       q    Type
REMARK                         _______ _______ _______ _____ _____    ______ ____
ROOT
ATOM      1  C   UNL     1       0.505  -2.694   7.333  0.00  0.00    +0.197 C 
ATOM      2  C   UNL     1       0.674  -1.743   8.502  0.00  0.00    +0.248 C 
ATOM      3  O   UNL     1       1.571  -0.947   8.682  0.00  0.00    -0.273 OA
ATOM      4  N   UNL     1      -0.392  -1.973   9.297  0.00  0.00    -0.224 N 
ATOM      5  C   UNL     1      -1.194  -2.948   8.762  0.00  0.00    +0.285 C 
ATOM      6  N   UNL     1      -0.743  -3.412   7.636  0.00  0.00    -0.224 NA
ENDROOT
BRANCH   5   7
ATOM      7  O   UNL     1      -2.332  -3.383   9.345  0.00  0.00    -0.481 OA
ATOM      8  H   UNL     1      -2.789  -4.075   8.848  0.00  0.00    +0.295 HD
ENDBRANCH   5   7
BRANCH   1   9
ATOM      9  C   UNL     1       0.374  -1.917   6.022  0.00  0.00    +0.045 C 
BRANCH   9  10
ATOM     10  C   UNL     1       0.280  -2.900   4.854  0.00  0.00    +0.098 C 
BRANCH  10  12
ATOM     11  N   UNL     1       0.052  -2.797   2.393  0.00  0.00    -0.285 N 
ATOM     12  C   UNL     1       0.150  -2.134   3.562  0.00  0.00    +0.217 C 
ATOM     13  O   UNL     1       0.134  -0.922   3.575  0.00  0.00    -0.275 OA
ATOM     14  H   UNL     1      -0.012  -3.765   2.388  0.00  0.00    +0.155 HD
BRANCH  11  20
ATOM     15  C   UNL     1      -1.512  -2.365  -2.248  0.00  0.00    +0.044 C 
ATOM     16  C   UNL     1      -0.707  -1.857  -1.080  0.00  0.00    -0.048 A 
ATOM     17  C   UNL     1       0.025  -0.690  -1.201  0.00  0.00    +0.006 A 
ATOM     18  C   UNL     1       0.765  -0.220  -0.131  0.00  0.00    -0.048 A 
ATOM     19  C   UNL     1       0.776  -0.917   1.061  0.00  0.00    +0.026 A 
ATOM     20  C   UNL     1       0.043  -2.089   1.186  0.00  0.00    +0.034 A 
ATOM     21  C   UNL     1      -0.704  -2.555   0.112  0.00  0.00    +0.026 A 
ATOM     22  C   UNL     1       1.561   1.052  -0.268  0.00  0.00    +0.044 C 
ENDBRANCH  11  20
ENDBRANCH  10  12
ENDBRANCH   9  10
ENDBRANCH   1   9
BRANCH   4  23
ATOM     23  C   UNL     1      -0.655  -1.277  10.559  0.00  0.00    +0.122 C 
BRANCH  23  24
ATOM     24  C   UNL     1      -1.496  -0.028  10.288  0.00  0.00    +0.052 C 
BRANCH  24  25
ATOM     25  C   UNL     1      -1.767   0.687  11.586  0.00  0.00    -0.040 C 
ATOM     26  C   UNL     1      -1.066   1.719  12.107  0.00  0.00    +0.002 A 
ATOM     27  C   UNL     1       0.114   2.457  11.642  0.00  0.00    +0.055 A 
ATOM     28  C   UNL     1       0.608   3.469  12.395  0.00  0.00    +0.121 A 
ATOM     29  C   UNL     1       0.028   3.846  13.619  0.00  0.00    +0.047 A 
ATOM     30  C   UNL     1      -1.058   3.227  14.130  0.00  0.00    +0.029 A 
ATOM     31  C   UNL     1      -1.675   2.117  13.397  0.00  0.00    +0.043 A 
ATOM     32  N   UNL     1      -2.712   1.361  13.662  0.00  0.00    -0.380 N 
ATOM     33  C   UNL     1      -2.882   0.401  12.566  0.00  0.00    +0.144 C 
ATOM     34  H   UNL     1      -3.274   1.428  14.449  0.00  0.00    +0.160 HD
BRANCH  28  35
ATOM     35  O   UNL     1       1.701   4.144  11.951  0.00  0.00    -0.495 OA
ATOM     36  C   UNL     1       2.188   5.204  12.777  0.00  0.00    +0.277 C 
ENDBRANCH  28  35
ENDBRANCH  24  25
ENDBRANCH  23  24
ENDBRANCH   4  23
TORSDOF 9
