REMARK  Name = ZINC32542302
REMARK  9 active torsions:
REMARK  status: ('A' for Active; 'I' for Inactive)
REMARK    1  A    between atoms: C_1  and  C_2
REMARK    2  A    between atoms: C_2  and  C_4
REMARK    3  A    between atoms: C_2  and  N_14
REMARK    4  A    between atoms: C_7  and  S_10
REMARK    5  A    between atoms: S_10  and  N_13
REMARK    6  A    between atoms: N_14  and  C_15
REMARK    7  A    between atoms: N_14  and  C_16
REMARK    8  A    between atoms: C_16  and  C_17
REMARK    9  A    between atoms: N_22  and  C_23
REMARK                            x       y       z     vdW  Elec       q    Type
REMARK                         _______ _______ _______ _____ _____    ______ ____
ROOT
ATOM      1  N   UNL     1      -0.700   1.560   1.217  0.00  0.00    +0.388 N 
ATOM      2  C   UNL     1      -0.013   1.086   0.008  0.00  0.00    -0.095 C 
ATOM      3  H   UNL     1      -1.715   1.136   1.216  0.00  0.00    -0.081 HD
ENDROOT
BRANCH   1   5
ATOM      4  C   UNL     1      -0.814   1.520   3.663  0.00  0.00    -0.008 C 
ATOM      5  C   UNL     1      -0.016   1.091   2.429  0.00  0.00    -0.041 C 
BRANCH   5   6
ATOM      6  C   UNL     1       0.090  -0.412   2.397  0.00  0.00    -0.061 A 
ATOM      7  C   UNL     1      -0.971  -1.170   1.939  0.00  0.00    +0.004 A 
ATOM      8  C   UNL     1      -0.871  -2.549   1.905  0.00  0.00    +0.029 A 
ATOM      9  C   UNL     1       0.285  -3.169   2.339  0.00  0.00    +0.105 A 
ATOM     10  C   UNL     1       1.344  -2.411   2.803  0.00  0.00    +0.029 A 
ATOM     11  C   UNL     1       1.246  -1.032   2.832  0.00  0.00    +0.004 A 
BRANCH   9  12
ATOM     12  S   UNL     1       0.409  -4.926   2.303  0.00  0.00    +0.056 S 
ATOM     13  O   UNL     1      -0.509  -5.378   1.317  0.00  0.00    -0.153 OA
ATOM     14  O   UNL     1       1.795  -5.235   2.251  0.00  0.00    -0.153 OA
BRANCH  12  15
ATOM     15  N   UNL     1      -0.147  -5.487   3.759  0.00  0.00    -0.204 NA
ATOM     16  H   UNL     1      -0.086  -6.585   3.776  0.00  0.00    +0.144 HD
ATOM     17  H   UNL     1      -1.193  -5.175   3.896  0.00  0.00    +0.144 HD
ENDBRANCH  12  15
ENDBRANCH   9  12
ENDBRANCH   5   6
ENDBRANCH   1   5
BRANCH   1  18
ATOM     18  C   UNL     1      -0.822   3.023   1.213  0.00  0.00    +0.019 C 
BRANCH  18  19
ATOM     19  C   UNL     1      -1.735   3.449   0.092  0.00  0.00    +0.204 C 
ATOM     20  O   UNL     1      -2.234   2.615  -0.633  0.00  0.00    -0.277 OA
ATOM     21  N   UNL     1      -1.996   4.756  -0.105  0.00  0.00    -0.242 N 
ATOM     22  C   UNL     1      -2.811   5.137  -1.109  0.00  0.00    +0.306 C 
ATOM     23  O   UNL     1      -3.312   4.301  -1.835  0.00  0.00    -0.252 OA
ATOM     24  N   UNL     1      -3.072   6.444  -1.306  0.00  0.00    -0.296 N 
ATOM     25  H   UNL     1      -1.542   5.513   0.552  0.00  0.00    +0.159 HD
ATOM     26  H   UNL     1      -2.619   7.201  -0.648  0.00  0.00    +0.151 HD
BRANCH  24  27
ATOM     27  C   UNL     1      -3.959   6.858  -2.396  0.00  0.00    +0.074 C 
ATOM     28  C   UNL     1      -3.154   6.974  -3.692  0.00  0.00    +0.022 C 
ATOM     29  C   UNL     1      -4.081   7.406  -4.831  0.00  0.00    +0.002 C 
ATOM     30  C   UNL     1      -4.704   8.762  -4.495  0.00  0.00    +0.000 C 
ATOM     31  C   UNL     1      -5.509   8.646  -3.199  0.00  0.00    +0.002 C 
ATOM     32  C   UNL     1      -4.582   8.214  -2.060  0.00  0.00    +0.022 C 
ENDBRANCH  24  27
ENDBRANCH  18  19
ENDBRANCH   1  18
TORSDOF 7
