REMARK  Name = ZINC18206628
REMARK  8 active torsions:
REMARK  status: ('A' for Active; 'I' for Inactive)
REMARK    1  A    between atoms: C_1  and  C_2
REMARK    2  A    between atoms: C_2  and  C_3
REMARK    3  A    between atoms: C_3  and  C_30
REMARK    4  A    between atoms: N_6  and  N_10
REMARK    5  A    between atoms: C_11  and  C_13
REMARK    6  A    between atoms: C_16  and  S_19
REMARK    7  A    between atoms: S_19  and  N_22
REMARK    8  A    between atoms: N_22  and  C_23
REMARK                            x       y       z     vdW  Elec       q    Type
REMARK                         _______ _______ _______ _____ _____    ______ ____
ROOT
ATOM      1  N   UNL     1       2.100   5.476  -0.374  0.00  0.00    -0.220 N 
ATOM      2  C   UNL     1       2.176   4.130  -0.371  0.00  0.00    +0.261 C 
ATOM      3  O   UNL     1       3.258   3.582  -0.445  0.00  0.00    -0.269 OA
ATOM      4  H   UNL     1       1.236   5.913  -0.316  0.00  0.00    +0.174 HD
ENDROOT
BRANCH   1   8
ATOM      5  C   UNL     1       4.967   7.579  -1.205  0.00  0.00    +0.139 C 
ATOM      6  C   UNL     1       3.667   6.892  -1.574  0.00  0.00    +0.268 C 
ATOM      7  O   UNL     1       3.102   6.921  -2.647  0.00  0.00    -0.271 OA
ATOM      8  N   UNL     1       3.269   6.243  -0.462  0.00  0.00    -0.137 N 
ATOM      9  C   UNL     1       4.126   6.426   0.549  0.00  0.00    +0.327 C 
ATOM     10  O   UNL     1       3.979   5.944   1.655  0.00  0.00    -0.251 OA
ATOM     11  N   UNL     1       5.170   7.201   0.204  0.00  0.00    -0.280 N 
ATOM     12  H   UNL     1       5.910   7.463   0.774  0.00  0.00    +0.152 HD
BRANCH   5  13
ATOM     13  C   UNL     1       4.835   9.074  -1.343  0.00  0.00    -0.015 A 
ATOM     14  C   UNL     1       5.155   9.688  -2.539  0.00  0.00    +0.006 A 
ATOM     15  C   UNL     1       5.030  11.059  -2.668  0.00  0.00    +0.000 A 
ATOM     16  C   UNL     1       4.593  11.816  -1.597  0.00  0.00    +0.000 A 
ATOM     17  C   UNL     1       4.278  11.202  -0.399  0.00  0.00    +0.000 A 
ATOM     18  C   UNL     1       4.398   9.831  -0.272  0.00  0.00    +0.006 A 
ENDBRANCH   5  13
BRANCH   5  20
ATOM     19  C   UNL     1       6.261   5.549  -1.873  0.00  0.00    +0.007 C 
ATOM     20  C   UNL     1       6.115   7.059  -2.072  0.00  0.00    +0.037 C 
ENDBRANCH   5  20
ENDBRANCH   1   8
BRANCH   2  21
ATOM     21  C   UNL     1       0.942   3.321  -0.278  0.00  0.00    +0.038 A 
ATOM     22  C   UNL     1       1.017   1.927  -0.275  0.00  0.00    +0.015 A 
ATOM     23  C   UNL     1      -0.138   1.178  -0.187  0.00  0.00    +0.029 A 
ATOM     24  C   UNL     1      -1.369   1.805  -0.109  0.00  0.00    +0.109 A 
ATOM     25  C   UNL     1      -1.450   3.186  -0.106  0.00  0.00    +0.029 A 
ATOM     26  C   UNL     1      -0.303   3.947  -0.193  0.00  0.00    +0.015 A 
BRANCH  24  27
ATOM     27  S   UNL     1      -2.840   0.840  -0.005  0.00  0.00    +0.072 S 
ATOM     28  O   UNL     1      -3.896   1.656  -0.492  0.00  0.00    -0.150 OA
ATOM     29  O   UNL     1      -2.535  -0.428  -0.570  0.00  0.00    -0.150 OA
BRANCH  27  30
ATOM     30  N   UNL     1      -3.143   0.582   1.602  0.00  0.00    -0.213 N 
ATOM     31  H   UNL     1      -3.170  -0.323   1.951  0.00  0.00    +0.174 HD
BRANCH  30  32
ATOM     32  C   UNL     1      -3.361   1.667   2.456  0.00  0.00    +0.083 A 
ATOM     33  C   UNL     1      -4.035   2.791   1.996  0.00  0.00    +0.027 A 
ATOM     34  C   UNL     1      -4.251   3.860   2.843  0.00  0.00    +0.002 A 
ATOM     35  C   UNL     1      -3.790   3.818   4.146  0.00  0.00    +0.003 A 
ATOM     36  C   UNL     1      -3.115   2.703   4.608  0.00  0.00    +0.040 A 
ATOM     37  C   UNL     1      -2.898   1.627   3.767  0.00  0.00    +0.146 A 
ATOM     38  F   UNL     1      -2.237   0.538   4.218  0.00  0.00    -0.204 F 
ENDBRANCH  30  32
ENDBRANCH  27  30
ENDBRANCH  24  27
ENDBRANCH   2  21
TORSDOF 7
