REMARK  Name = ZINC19821911
REMARK  7 active torsions:
REMARK  status: ('A' for Active; 'I' for Inactive)
REMARK    1  A    between atoms: C_1  and  C_2
REMARK    2  A    between atoms: N_8  and  C_9
REMARK    3  A    between atoms: C_9  and  C_11
REMARK    4  A    between atoms: C_9  and  C_15
REMARK    5  A    between atoms: C_11  and  C_12
REMARK    6  A    between atoms: C_12  and  C_13
REMARK    7  A    between atoms: C_12  and  C_14
REMARK                            x       y       z     vdW  Elec       q    Type
REMARK                         _______ _______ _______ _____ _____    ______ ____
ROOT
ATOM      1  C   UNL     1       1.358  -1.623  -0.518  0.00  0.00    +0.064 C 
ATOM      2  C   UNL     1       1.145  -0.171  -0.177  0.00  0.00    +0.023 A 
ATOM      3  C   UNL     1       2.211   0.613   0.091  0.00  0.00    +0.072 A 
ATOM      4  C   UNL     1       2.018   1.972   0.411  0.00  0.00    +0.186 A 
ATOM      5  C   UNL     1       0.731   2.476   0.444  0.00  0.00    +0.121 A 
ATOM      6  C   UNL     1      -0.342   1.624   0.159  0.00  0.00    +0.256 A 
ATOM      7  O   UNL     1      -1.484   2.055   0.179  0.00  0.00    -0.268 OA
ATOM      8  N   UNL     1      -0.117   0.331  -0.142  0.00  0.00    -0.298 N 
ATOM      9  O   UNL     1       3.077   2.772   0.683  0.00  0.00    -0.288 OA
ENDROOT
BRANCH   8  10
ATOM     10  C   UNL     1      -1.251  -0.548  -0.438  0.00  0.00    +0.203 C 
BRANCH  10  11
ATOM     11  C   UNL     1      -1.912  -0.102  -1.717  0.00  0.00    +0.378 C 
ATOM     12  O   UNL     1      -1.480   0.852  -2.320  0.00  0.00    -0.244 OA
ATOM     13  O   UNL     1      -2.980  -0.764  -2.187  0.00  0.00    -0.244 OA
ENDBRANCH  10  11
BRANCH  10  14
ATOM     14  C   UNL     1      -2.261  -0.480   0.708  0.00  0.00    +0.039 C 
BRANCH  14  15
ATOM     15  C   UNL     1      -1.610  -0.996   1.993  0.00  0.00    -0.015 C 
ATOM     16  C   UNL     1      -2.556  -0.763   3.173  0.00  0.00    +0.007 C 
ATOM     17  C   UNL     1      -1.325  -2.492   1.855  0.00  0.00    +0.007 C 
ENDBRANCH  14  15
ENDBRANCH  10  14
ENDBRANCH   8  10
TORSDOF 4
