REMARK  Name = ZINC12098605
REMARK  10 active torsions:
REMARK  status: ('A' for Active; 'I' for Inactive)
REMARK    1  A    between atoms: C_1  and  C_2
REMARK    2  A    between atoms: C_3  and  C_4
REMARK    3  A    between atoms: C_4  and  N_5
REMARK    4  A    between atoms: C_8  and  C_12
REMARK    5  A    between atoms: C_8  and  C_21
REMARK    6  A    between atoms: C_12  and  C_13
REMARK    7  A    between atoms: C_13  and  C_14
REMARK    8  A    between atoms: C_14  and  C_15
REMARK    9  A    between atoms: C_26  and  C_27
REMARK   10  A    between atoms: C_26  and  N_71
REMARK                            x       y       z     vdW  Elec       q    Type
REMARK                         _______ _______ _______ _____ _____    ______ ____
ROOT
ATOM      1  N   UNL     1       1.357   1.975  -0.000  0.00  0.00    -0.212 N 
ATOM      2  C   UNL     1       2.056   2.243  -1.121  0.00  0.00    +0.248 C 
ATOM      3  O   UNL     1       1.681   2.115  -2.266  0.00  0.00    -0.273 OA
ATOM      4  C   UNL     1       3.409   2.739  -0.650  0.00  0.00    +0.115 C 
ATOM      5  N   UNL     1       3.305   2.688   0.819  0.00  0.00    -0.285 N 
ATOM      6  C   UNL     1       2.070   2.235   1.101  0.00  0.00    +0.310 C 
ATOM      7  O   UNL     1       1.651   2.075   2.231  0.00  0.00    -0.252 OA
ATOM      8  H   UNL     1       3.991   2.937   1.457  0.00  0.00    +0.151 HD
ENDROOT
BRANCH   4   9
ATOM      9  C   UNL     1       3.651   4.174  -1.123  0.00  0.00    +0.018 C 
ATOM     10  C   UNL     1       5.013   4.656  -0.617  0.00  0.00    -0.013 C 
ATOM     11  C   UNL     1       5.222   6.112  -1.040  0.00  0.00    -0.078 C 
ATOM     12  C   UNL     1       2.835   6.530  -0.993  0.00  0.00    -0.078 C 
ATOM     13  C   UNL     1       2.555   5.087  -0.568  0.00  0.00    -0.013 C 
ATOM     14  N   UNL     1       4.148   6.942  -0.454  0.00  0.00    +0.382 N 
ATOM     15  H   UNL     1       4.146   6.812   0.565  0.00  0.00    -0.081 HD
BRANCH  14  16
ATOM     16  C   UNL     1       4.392   8.368  -0.754  0.00  0.00    -0.041 C 
BRANCH  16  17
ATOM     17  C   UNL     1       5.624   8.817  -0.011  0.00  0.00    -0.038 A 
ATOM     18  C   UNL     1       5.504   9.500   1.160  0.00  0.00    +0.004 A 
ATOM     19  C   UNL     1       6.630   9.919   1.867  0.00  0.00    +0.001 A 
ATOM     20  C   UNL     1       7.883   9.667   1.397  0.00  0.00    +0.010 A 
ATOM     21  C   UNL     1       8.044   8.971   0.189  0.00  0.00    +0.001 A 
ATOM     22  C   UNL     1       6.901   8.538  -0.528  0.00  0.00    +0.072 A 
ATOM     23  N   UNL     1       7.049   7.874  -1.679  0.00  0.00    -0.255 NA
ATOM     24  C   UNL     1       8.238   7.611  -2.165  0.00  0.00    +0.111 A 
ATOM     25  C   UNL     1       9.402   8.008  -1.511  0.00  0.00    +0.020 A 
ATOM     26  C   UNL     1       9.322   8.690  -0.330  0.00  0.00    +0.011 A 
ENDBRANCH  16  17
ENDBRANCH  14  16
ENDBRANCH   4   9
BRANCH   1  27
ATOM     27  C   UNL     1      -0.018   1.468   0.010  0.00  0.00    +0.206 C 
BRANCH  27  30
ATOM     28  C   UNL     1       0.038  -2.650  -0.013  0.00  0.00    +0.106 C 
ATOM     29  C   UNL     1       0.018  -1.178  -0.004  0.00  0.00    -0.104 C 
ATOM     30  C   UNL     1       0.002  -0.004   0.002  0.00  0.00    -0.083 C 
ENDBRANCH  27  30
ENDBRANCH   1  27
BRANCH   4  31
ATOM     31  C   UNL     1       4.523   1.813  -1.143  0.00  0.00    +0.036 C 
BRANCH  31  32
ATOM     32  C   UNL     1       4.284   0.399  -0.610  0.00  0.00    +0.007 C 
BRANCH  32  33
ATOM     33  C   UNL     1       5.398  -0.527  -1.103  0.00  0.00    +0.035 C 
BRANCH  33  34
ATOM     34  C   UNL     1       5.163  -1.919  -0.578  0.00  0.00    -0.047 A 
ATOM     35  C   UNL     1       5.706  -2.302   0.635  0.00  0.00    +0.003 A 
ATOM     36  C   UNL     1       5.487  -3.578   1.119  0.00  0.00    +0.000 A 
ATOM     37  C   UNL     1       4.733  -4.475   0.386  0.00  0.00    +0.000 A 
ATOM     38  C   UNL     1       4.194  -4.095  -0.829  0.00  0.00    +0.000 A 
ATOM     39  C   UNL     1       4.410  -2.817  -1.311  0.00  0.00    +0.003 A 
ENDBRANCH  33  34
ENDBRANCH  32  33
ENDBRANCH  31  32
ENDBRANCH   4  31
TORSDOF 9
