REMARK  Name = ZINC27531168
REMARK  12 active torsions:
REMARK  status: ('A' for Active; 'I' for Inactive)
REMARK    1  A    between atoms: C_1  and  C_2
REMARK    2  A    between atoms: C_2  and  C_3
REMARK    3  A    between atoms: C_9  and  C_10
REMARK    4  A    between atoms: C_13  and  O_19
REMARK    5  A    between atoms: C_14  and  O_16
REMARK    6  A    between atoms: O_16  and  C_17
REMARK    7  A    between atoms: C_17  and  C_18
REMARK    8  A    between atoms: O_19  and  C_20
REMARK    9  A    between atoms: C_20  and  C_21
REMARK   10  A    between atoms: C_21  and  S_22
REMARK   11  A    between atoms: S_22  and  C_23
REMARK   12  A    between atoms: C_26  and  C_29
REMARK                            x       y       z     vdW  Elec       q    Type
REMARK                         _______ _______ _______ _____ _____    ______ ____
ROOT
ATOM      1  C   UNL     1       5.547  -0.804   6.460  0.00  0.00    -0.021 A 
ATOM      2  C   UNL     1       5.469  -2.204   6.480  0.00  0.00    +0.012 A 
ATOM      3  C   UNL     1       6.389  -2.934   7.198  0.00  0.00    +0.050 A 
ATOM      4  C   UNL     1       7.397  -2.287   7.903  0.00  0.00    +0.162 A 
ATOM      5  C   UNL     1       7.482  -0.895   7.888  0.00  0.00    +0.162 A 
ATOM      6  C   UNL     1       6.568  -0.154   7.167  0.00  0.00    +0.057 A 
ENDROOT
BRANCH   1  13
ATOM      7  C   UNL     1      -0.398  -1.337   2.768  0.00  0.00    +0.100 C 
ATOM      8  N   UNL     1       0.545  -0.500   3.094  0.00  0.00    -0.169 NA
ATOM      9  N   UNL     1       1.291  -0.675   4.240  0.00  0.00    -0.152 N 
ATOM     10  C   UNL     1       2.271   0.216   4.730  0.00  0.00    +0.152 C 
ATOM     11  N   UNL     1       2.309   1.484   4.417  0.00  0.00    -0.283 NA
ATOM     12  C   UNL     1       3.256  -0.433   5.641  0.00  0.00    +0.081 C 
ATOM     13  C   UNL     1       4.570  -0.025   5.697  0.00  0.00    +0.024 C 
ATOM     14  C   UNL     1       2.746  -1.543   6.483  0.00  0.00    +0.273 C 
ATOM     15  O   UNL     1       3.288  -1.830   7.538  0.00  0.00    -0.268 OA
ATOM     16  N   UNL     1       1.667  -2.223   6.050  0.00  0.00    -0.152 NA
ATOM     17  C   UNL     1       1.034  -1.808   4.981  0.00  0.00    +0.181 C 
ATOM     18  S   UNL     1      -0.333  -2.522   4.105  0.00  0.00    -0.038 S 
ATOM     19  H   UNL     1       1.642   1.856   3.819  0.00  0.00    +0.188 HD
BRANCH   7  21
ATOM     20  C   UNL     1      -0.986  -0.094   0.705  0.00  0.00    +0.011 C 
ATOM     21  C   UNL     1      -1.315  -1.310   1.572  0.00  0.00    +0.061 C 
ENDBRANCH   7  21
ENDBRANCH   1  13
BRANCH   5  22
ATOM     22  O   UNL     1       8.470  -0.267   8.581  0.00  0.00    -0.489 OA
BRANCH  22  23
ATOM     23  C   UNL     1       8.498   1.160   8.521  0.00  0.00    +0.226 C 
ATOM     24  C   UNL     1       9.670   1.683   9.355  0.00  0.00    +0.048 C 
ENDBRANCH  22  23
ENDBRANCH   5  22
BRANCH   4  25
ATOM     25  O   UNL     1       8.301  -3.013   8.610  0.00  0.00    -0.487 OA
BRANCH  25  26
ATOM     26  C   UNL     1       8.155  -4.434   8.582  0.00  0.00    +0.240 C 
BRANCH  26  27
ATOM     27  C   UNL     1       9.256  -5.076   9.429  0.00  0.00    +0.115 C 
BRANCH  27  28
ATOM     28  S   UNL     1       9.071  -6.880   9.395  0.00  0.00    -0.122 S 
BRANCH  28  29
ATOM     29  C   UNL     1      10.394  -7.464  10.402  0.00  0.00    +0.008 A 
ATOM     30  C   UNL     1      11.265  -6.561  10.999  0.00  0.00    +0.015 A 
ATOM     31  C   UNL     1      12.301  -7.022  11.788  0.00  0.00    +0.004 A 
ATOM     32  C   UNL     1      12.472  -8.380  11.983  0.00  0.00    -0.050 A 
ATOM     33  C   UNL     1      11.607  -9.282  11.390  0.00  0.00    +0.004 A 
ATOM     34  C   UNL     1      10.565  -8.828  10.605  0.00  0.00    +0.015 A 
ATOM     35  C   UNL     1      13.603  -8.879  12.844  0.00  0.00    +0.044 C 
ENDBRANCH  28  29
ENDBRANCH  27  28
ENDBRANCH  26  27
ENDBRANCH  25  26
ENDBRANCH   4  25
TORSDOF 9
