REMARK  Name = ZINC01064546
REMARK  8 active torsions:
REMARK  status: ('A' for Active; 'I' for Inactive)
REMARK    1  A    between atoms: C_1  and  O_2
REMARK    2  A    between atoms: O_2  and  C_3
REMARK    3  A    between atoms: C_6  and  C_9
REMARK    4  A    between atoms: C_9  and  N_10
REMARK    5  A    between atoms: C_11  and  C_23
REMARK    6  A    between atoms: N_15  and  C_16
REMARK    7  A    between atoms: C_26  and  S_29
REMARK    8  A    between atoms: S_29  and  N_32
REMARK                            x       y       z     vdW  Elec       q    Type
REMARK                         _______ _______ _______ _____ _____    ______ ____
ROOT
ATOM      1  N   UNL     1       1.690  -2.997  -5.834  0.00  0.00    -0.315 N 
ATOM      2  C   UNL     1       1.347  -2.165  -6.865  0.00  0.00    +0.058 A 
ATOM      3  C   UNL     1       0.292  -2.473  -7.647  0.00  0.00    +0.075 A 
ATOM      4  S   UNL     1      -0.274  -4.006  -6.927  0.00  0.00    -0.057 S 
ATOM      5  C   UNL     1       0.946  -4.135  -5.629  0.00  0.00    +0.174 A 
ATOM      6  N   UNL     1       1.093  -5.073  -4.713  0.00  0.00    -0.224 NA
ENDROOT
BRANCH   6   7
ATOM      7  C   UNL     1       2.238  -5.128  -3.967  0.00  0.00    +0.067 A 
ATOM      8  C   UNL     1       3.423  -5.601  -4.535  0.00  0.00    +0.029 A 
ATOM      9  C   UNL     1       4.575  -5.649  -3.779  0.00  0.00    +0.022 A 
ATOM     10  C   UNL     1       4.557  -5.239  -2.456  0.00  0.00    +0.041 A 
ATOM     11  C   UNL     1       3.384  -4.773  -1.886  0.00  0.00    +0.022 A 
ATOM     12  C   UNL     1       2.226  -4.716  -2.632  0.00  0.00    +0.029 A 
ATOM     13 CL   UNL     1       6.010  -5.308  -1.509  0.00  0.00    -0.084 Cl
ENDBRANCH   6   7
BRANCH   2  14
ATOM     14  C   UNL     1       2.128  -0.936  -7.121  0.00  0.00    -0.001 A 
ATOM     15  C   UNL     1       1.483   0.298  -7.215  0.00  0.00    +0.012 A 
ATOM     16  C   UNL     1       2.219   1.442  -7.448  0.00  0.00    +0.029 A 
ATOM     17  C   UNL     1       3.592   1.366  -7.599  0.00  0.00    +0.106 A 
ATOM     18  C   UNL     1       4.237   0.145  -7.512  0.00  0.00    +0.029 A 
ATOM     19  C   UNL     1       3.514  -1.006  -7.274  0.00  0.00    +0.012 A 
BRANCH  17  20
ATOM     20  S   UNL     1       4.523   2.830  -7.902  0.00  0.00    +0.061 S 
ATOM     21  O   UNL     1       3.754   3.913  -7.397  0.00  0.00    -0.153 OA
ATOM     22  O   UNL     1       5.849   2.567  -7.463  0.00  0.00    -0.153 OA
BRANCH  20  23
ATOM     23  N   UNL     1       4.600   3.030  -9.545  0.00  0.00    -0.172 NA
ATOM     24  C   UNL     1       5.700   2.445 -10.328  0.00  0.00    +0.137 C 
ATOM     25  C   UNL     1       5.089   1.664 -11.502  0.00  0.00    +0.177 C 
ATOM     26  O   UNL     1       4.186   2.515 -12.213  0.00  0.00    -0.377 OA
ATOM     27  C   UNL     1       3.070   2.960 -11.440  0.00  0.00    +0.177 C 
ATOM     28  C   UNL     1       3.574   3.803 -10.263  0.00  0.00    +0.137 C 
ENDBRANCH  20  23
ENDBRANCH  17  20
ENDBRANCH   2  14
BRANCH   1  29
ATOM     29  C   UNL     1       2.832  -2.685  -4.971  0.00  0.00    +0.159 C 
BRANCH  29  33
ATOM     30  C   UNL     1       1.651   0.181  -2.029  0.00  0.00    +0.120 A 
ATOM     31  C   UNL     1       2.628   0.503  -2.960  0.00  0.00    +0.046 A 
ATOM     32  C   UNL     1       3.012  -0.428  -3.906  0.00  0.00    +0.009 A 
ATOM     33  C   UNL     1       2.416  -1.675  -3.933  0.00  0.00    -0.027 A 
ATOM     34  C   UNL     1       1.438  -1.996  -3.010  0.00  0.00    +0.009 A 
ATOM     35  C   UNL     1       1.054  -1.071  -2.058  0.00  0.00    +0.046 A 
BRANCH  30  37
ATOM     36  C   UNL     1       1.933   2.361  -1.123  0.00  0.00    +0.277 C 
ATOM     37  O   UNL     1       1.276   1.092  -1.093  0.00  0.00    -0.495 OA
ENDBRANCH  30  37
ENDBRANCH  29  33
ENDBRANCH   1  29
TORSDOF 7
