REMARK  Name = ZINC09817014
REMARK  10 active torsions:
REMARK  status: ('A' for Active; 'I' for Inactive)
REMARK    1  A    between atoms: C_1  and  O_2
REMARK    2  A    between atoms: O_2  and  C_3
REMARK    3  A    between atoms: C_5  and  C_12
REMARK    4  A    between atoms: C_8  and  O_9
REMARK    5  A    between atoms: O_9  and  C_10
REMARK    6  A    between atoms: C_12  and  O_14
REMARK    7  A    between atoms: O_14  and  C_15
REMARK    8  A    between atoms: C_15  and  C_16
REMARK    9  A    between atoms: N_18  and  C_19
REMARK   10  A    between atoms: C_20  and  C_29
REMARK                            x       y       z     vdW  Elec       q    Type
REMARK                         _______ _______ _______ _____ _____    ______ ____
ROOT
ATOM      1  C   UNL     1       1.141   2.074   0.002  0.00  0.00    +0.255 C 
ATOM      2  O   UNL     1       2.200   1.481  -0.011  0.00  0.00    -0.272 OA
ATOM      3  N   UNL     1      -0.017   1.384   0.010  0.00  0.00    -0.276 N 
ATOM      4  H   UNL     1      -0.863   1.857   0.016  0.00  0.00    +0.155 HD
ENDROOT
BRANCH   3   5
ATOM      5  C   UNL     1       0.002  -0.004   0.002  0.00  0.00    +0.090 A 
ATOM      6  C   UNL     1      -1.071  -0.880   0.013  0.00  0.00    +0.084 A 
ATOM      7  C   UNL     1      -0.782  -2.307  -0.005  0.00  0.00    -0.018 A 
ATOM      8  C   UNL     1       0.531  -2.622  -0.015  0.00  0.00    -0.004 A 
ATOM      9  S   UNL     1       1.373  -1.062  -0.016  0.00  0.00    -0.077 S 
ATOM     10  C   UNL     1       1.145  -3.986  -0.010  0.00  0.00    +0.043 C 
ATOM     11  C   UNL     1       0.472  -4.849  -1.086  0.00  0.00    +0.005 C 
ATOM     12  C   UNL     1      -0.731  -5.548  -0.461  0.00  0.00    +0.001 C 
ATOM     13  C   UNL     1      -1.360  -4.657   0.608  0.00  0.00    +0.005 C 
ATOM     14  C   UNL     1      -1.879  -3.365  -0.014  0.00  0.00    +0.037 C 
BRANCH   6  15
ATOM     15  C   UNL     1      -2.419  -0.398   0.038  0.00  0.00    +0.102 C 
ATOM     16  N   UNL     1      -3.489  -0.015   0.059  0.00  0.00    -0.191 NA
ENDBRANCH   6  15
ENDBRANCH   3   5
BRANCH   1  17
ATOM     17  C   UNL     1       1.121   3.580   0.011  0.00  0.00    +0.328 C 
BRANCH  17  18
ATOM     18  O   UNL     1       2.483   4.083   0.000  0.00  0.00    -0.452 OA
BRANCH  18  19
ATOM     19  C   UNL     1       2.641   5.421   0.006  0.00  0.00    +0.340 C 
ATOM     20  O   UNL     1       1.668   6.148   0.019  0.00  0.00    -0.245 OA
BRANCH  19  23
ATOM     21  C   UNL     1       5.434   7.932  -0.007  0.00  0.00    +0.164 A 
ATOM     22  C   UNL     1       4.162   7.391  -0.004  0.00  0.00    +0.064 A 
ATOM     23  C   UNL     1       3.996   6.003  -0.004  0.00  0.00    +0.064 A 
ATOM     24  C   UNL     1       5.117   5.168  -0.019  0.00  0.00    +0.039 A 
ATOM     25  C   UNL     1       6.383   5.715  -0.028  0.00  0.00    +0.087 A 
ATOM     26  C   UNL     1       6.547   7.094  -0.022  0.00  0.00    +0.180 A 
ATOM     27 CL   UNL     1       7.774   4.676  -0.048  0.00  0.00    -0.080 Cl
BRANCH  21  29
ATOM     28  C   UNL     1       4.413  10.080   0.014  0.00  0.00    +0.277 C 
ATOM     29  O   UNL     1       5.598   9.282  -0.001  0.00  0.00    -0.491 OA
ENDBRANCH  21  29
BRANCH  26  30
ATOM     30  O   UNL     1       7.796   7.628  -0.031  0.00  0.00    -0.490 OA
ATOM     31  C   UNL     1       8.381   7.889  -1.308  0.00  0.00    +0.277 C 
ENDBRANCH  26  30
ENDBRANCH  19  23
ENDBRANCH  18  19
ENDBRANCH  17  18
ENDBRANCH   1  17
TORSDOF 8
