REMARK  Name = ZINC22748090
REMARK  4 active torsions:
REMARK  status: ('A' for Active; 'I' for Inactive)
REMARK    1  A    between atoms: C_6  and  O_7
REMARK    2  A    between atoms: N_11  and  C_12
REMARK    3  A    between atoms: C_12  and  N_14
REMARK    4  A    between atoms: C_15  and  C_17
REMARK                            x       y       z     vdW  Elec       q    Type
REMARK                         _______ _______ _______ _____ _____    ______ ____
ROOT
ATOM      1  C   UNL     1      -0.021   1.708   0.011  0.00  0.00    +0.163 C 
ATOM      2  S   UNL     1       0.002  -0.004   0.002  0.00  0.00    -0.016 S 
ENDROOT
BRANCH   1  12
ATOM      3  C   UNL     1      -5.444  -1.980   0.019  0.00  0.00    +0.047 A 
ATOM      4  C   UNL     1      -4.135  -1.575   0.014  0.00  0.00    +0.030 A 
ATOM      5  C   UNL     1      -3.802  -0.202   0.019  0.00  0.00    +0.055 A 
ATOM      6  C   UNL     1      -4.886   0.705   0.029  0.00  0.00    +0.042 A 
ATOM      7  C   UNL     1      -6.196   0.296   0.033  0.00  0.00    +0.062 A 
ATOM      8  C   UNL     1      -6.488  -1.061   0.028  0.00  0.00    +0.118 A 
ATOM      9  S   UNL     1      -4.062   2.280   0.041  0.00  0.00    -0.052 S 
ATOM     10  C   UNL     1      -2.387   1.657   0.022  0.00  0.00    +0.163 A 
ATOM     11  N   UNL     1      -2.571   0.358   0.017  0.00  0.00    -0.335 N 
ATOM     12  N   UNL     1      -1.197   2.366   0.021  0.00  0.00    -0.169 NA
ATOM     13  H   UNL     1      -1.676  -0.282   0.009  0.00  0.00    +0.168 HD
BRANCH   8  14
ATOM     14  O   UNL     1      -7.780  -1.486   0.032  0.00  0.00    -0.507 OA
ATOM     15  H   UNL     1      -8.600  -0.753   0.040  0.00  0.00    +0.292 HD
ENDBRANCH   8  14
ENDBRANCH   1  12
BRANCH   1  16
ATOM     16  N   UNL     1       1.137   2.397   0.004  0.00  0.00    -0.262 N 
ATOM     17  C   UNL     1       2.313   1.740  -0.011  0.00  0.00    +0.251 C 
ATOM     18  O   UNL     1       2.329   0.524  -0.017  0.00  0.00    -0.270 OA
ATOM     19  H   UNL     1       1.122   3.497   0.010  0.00  0.00    +0.157 HD
BRANCH  17  20
ATOM     20  C   UNL     1       3.582   2.495  -0.019  0.00  0.00    +0.056 A 
ATOM     21  C   UNL     1       3.567   3.892  -0.017  0.00  0.00    +0.029 A 
ATOM     22  C   UNL     1       4.755   4.591  -0.020  0.00  0.00    +0.014 A 
ATOM     23  C   UNL     1       5.963   3.913  -0.035  0.00  0.00    +0.016 A 
ATOM     24  C   UNL     1       5.986   2.530  -0.042  0.00  0.00    +0.022 A 
ATOM     25  C   UNL     1       4.803   1.817  -0.034  0.00  0.00    +0.053 A 
ATOM     26 CL   UNL     1       4.834   0.081  -0.043  0.00  0.00    -0.083 Cl
ATOM     27  I   UNL     1       4.735   6.686  -0.009  0.00  0.00    -0.044 I 
ENDBRANCH  17  20
ENDBRANCH   1  16
TORSDOF 4
