REMARK  Name = ZINC46254700
REMARK  10 active torsions:
REMARK  status: ('A' for Active; 'I' for Inactive)
REMARK    1  A    between atoms: C_1  and  C_2
REMARK    2  A    between atoms: N_5  and  C_8
REMARK    3  A    between atoms: C_8  and  C_10
REMARK    4  A    between atoms: C_8  and  C_24
REMARK    5  A    between atoms: C_10  and  N_11
REMARK    6  A    between atoms: N_14  and  N_15
REMARK    7  A    between atoms: N_15  and  C_16
REMARK    8  A    between atoms: C_16  and  C_23
REMARK    9  A    between atoms: C_24  and  C_25
REMARK   10  A    between atoms: C_24  and  C_26
REMARK                            x       y       z     vdW  Elec       q    Type
REMARK                         _______ _______ _______ _____ _____    ______ ____
ROOT
ATOM      1  N   UNL     1       1.688  -3.626  -2.382  0.00  0.00    -0.300 N 
ATOM      2  C   UNL     1       2.214  -3.723  -3.619  0.00  0.00    +0.313 C 
ATOM      3  O   UNL     1       3.264  -4.312  -3.788  0.00  0.00    -0.252 OA
ATOM      4  N   UNL     1       1.577  -3.167  -4.668  0.00  0.00    -0.234 N 
ATOM      5  H   UNL     1       0.850  -3.156  -2.247  0.00  0.00    +0.150 HD
ATOM      6  H   UNL     1       1.956  -3.237  -5.558  0.00  0.00    +0.171 HD
ENDROOT
BRANCH   4   7
ATOM      7  N   UNL     1       0.397  -2.506  -4.478  0.00  0.00    -0.232 NA
ATOM      8  H   UNL     1      -0.283  -3.100  -4.027  0.00  0.00    +0.145 HD
BRANCH   7   9
ATOM      9  C   UNL     1      -0.123  -1.981  -5.748  0.00  0.00    +0.054 C 
ATOM     10  C   UNL     1      -0.260  -3.139  -6.736  0.00  0.00    +0.047 C 
ATOM     11  C   UNL     1      -1.674  -3.776  -6.627  0.00  0.00    +0.168 C 
ATOM     12  S   UNL     1      -2.684  -2.246  -6.406  0.00  0.00    -0.029 S 
ATOM     13  O   UNL     1      -2.908  -1.646  -7.675  0.00  0.00    -0.174 OA
ATOM     14  O   UNL     1      -3.790  -2.534  -5.561  0.00  0.00    -0.174 OA
ATOM     15  C   UNL     1      -1.450  -1.248  -5.473  0.00  0.00    +0.189 C 
ATOM     16  C   UNL     1       0.885  -0.977  -6.311  0.00  0.00    +0.031 C 
ENDBRANCH   7   9
ENDBRANCH   4   7
BRANCH   1  17
ATOM     17  C   UNL     1       2.380  -4.230  -1.241  0.00  0.00    +0.091 C 
BRANCH  17  18
ATOM     18  C   UNL     1       1.688  -3.809   0.057  0.00  0.00    -0.048 C 
BRANCH  18  23
ATOM     19  C   UNL     1       3.334   1.651   0.064  0.00  0.00    +0.007 C 
ATOM     20  C   UNL     1       3.119   0.186  -0.323  0.00  0.00    -0.018 C 
ATOM     21  C   UNL     1       3.701  -0.722   0.764  0.00  0.00    -0.016 C 
ATOM     22  C   UNL     1       3.413  -2.182   0.410  0.00  0.00    -0.078 C 
ATOM     23  N   UNL     1       1.962  -2.390   0.321  0.00  0.00    +0.383 N 
ATOM     24  C   UNL     1       1.408  -1.576  -0.768  0.00  0.00    -0.078 C 
ATOM     25  C   UNL     1       1.620  -0.092  -0.459  0.00  0.00    -0.016 C 
ATOM     26  H   UNL     1       1.531  -2.123   1.192  0.00  0.00    -0.081 HD
ENDBRANCH  18  23
BRANCH  18  27
ATOM     27  C   UNL     1       2.220  -4.655   1.216  0.00  0.00    -0.029 C 
ATOM     28  C   UNL     1       1.522  -4.241   2.512  0.00  0.00    +0.005 C 
ATOM     29  C   UNL     1       1.943  -6.134   0.937  0.00  0.00    +0.005 C 
ENDBRANCH  18  27
ENDBRANCH  17  18
ENDBRANCH   1  17
TORSDOF 6
