REMARK  Name = ZINC09970027
REMARK  9 active torsions:
REMARK  status: ('A' for Active; 'I' for Inactive)
REMARK    1  A    between atoms: C_1  and  C_2
REMARK    2  A    between atoms: C_2  and  C_3
REMARK    3  A    between atoms: C_3  and  C_5
REMARK    4  A    between atoms: C_3  and  N_6
REMARK    5  A    between atoms: C_7  and  C_9
REMARK    6  A    between atoms: N_12  and  S_15
REMARK    7  A    between atoms: S_15  and  C_18
REMARK    8  A    between atoms: C_24  and  C_34
REMARK    9  A    between atoms: C_30  and  C_33
REMARK                            x       y       z     vdW  Elec       q    Type
REMARK                         _______ _______ _______ _____ _____    ______ ____
ROOT
ATOM      1  C   UNL     1      -6.909   0.440   2.473  0.00  0.00    +0.106 A 
ATOM      2  C   UNL     1      -6.216   0.779   3.634  0.00  0.00    +0.030 A 
ATOM      3  C   UNL     1      -4.886   1.060   3.601  0.00  0.00    +0.030 A 
ATOM      4  C   UNL     1      -4.191   1.010   2.378  0.00  0.00    +0.072 A 
ATOM      5  C   UNL     1      -4.900   0.666   1.200  0.00  0.00    +0.017 A 
ATOM      6  C   UNL     1      -6.269   0.382   1.271  0.00  0.00    +0.039 A 
ATOM      7  C   UNL     1      -4.193   0.617  -0.025  0.00  0.00    +0.077 A 
ATOM      8  C   UNL     1      -2.830   0.912  -0.014  0.00  0.00    -0.011 A 
ATOM      9  C   UNL     1      -2.209   1.245   1.183  0.00  0.00    +0.046 A 
ATOM     10  N   UNL     1      -2.889   1.281   2.313  0.00  0.00    -0.251 NA
ATOM     11  C   UNL     1      -0.736   1.582   1.258  0.00  0.00    +0.056 C 
ATOM     12  C   UNL     1      -0.013   1.086   0.008  0.00  0.00    +0.010 C 
ATOM     13  C   UNL     1      -0.762   1.598  -1.227  0.00  0.00    -0.009 C 
ATOM     14  C   UNL     1      -2.092   0.853  -1.325  0.00  0.00    +0.041 C 
ATOM     15  C   UNL     1       0.071   1.333  -2.483  0.00  0.00    +0.008 C 
ENDROOT
BRANCH   1  16
ATOM     16  S   UNL     1      -8.632   0.084   2.560  0.00  0.00    +0.061 S 
ATOM     17  O   UNL     1      -8.934  -0.735   1.438  0.00  0.00    -0.153 OA
ATOM     18  O   UNL     1      -8.895  -0.326   3.895  0.00  0.00    -0.153 OA
BRANCH  16  22
ATOM     19  C   UNL     1     -11.652   3.256   2.080  0.00  0.00    +0.077 C 
ATOM     20  C   UNL     1     -11.327   2.247   0.975  0.00  0.00    +0.030 C 
ATOM     21  C   UNL     1      -9.825   1.950   0.986  0.00  0.00    +0.110 C 
ATOM     22  N   UNL     1      -9.440   1.512   2.335  0.00  0.00    -0.177 NA
ATOM     23  C   UNL     1      -9.790   2.362   3.481  0.00  0.00    +0.110 C 
ATOM     24  C   UNL     1     -11.288   2.658   3.441  0.00  0.00    +0.030 C 
BRANCH  19  26
ATOM     25  N   UNL     1     -13.642   4.448   2.938  0.00  0.00    -0.313 N 
ATOM     26  C   UNL     1     -13.124   3.577   2.050  0.00  0.00    +0.216 C 
ATOM     27  O   UNL     1     -13.842   3.051   1.226  0.00  0.00    -0.276 OA
ATOM     28  H   UNL     1     -13.067   4.868   3.597  0.00  0.00    +0.149 HD
BRANCH  25  29
ATOM     29  C   UNL     1     -15.073   4.760   2.909  0.00  0.00    +0.070 C 
ATOM     30  C   UNL     1     -15.332   5.871   1.890  0.00  0.00    +0.028 C 
BRANCH  29  32
ATOM     31  C   UNL     1     -15.379   4.072   5.291  0.00  0.00    +0.005 C 
ATOM     32  C   UNL     1     -15.522   5.225   4.296  0.00  0.00    +0.018 C 
ENDBRANCH  29  32
ENDBRANCH  25  29
ENDBRANCH  19  26
ENDBRANCH  16  22
ENDBRANCH   1  16
BRANCH   7  33
ATOM     33  C   UNL     1      -4.881   0.262  -1.284  0.00  0.00    +0.387 C 
ATOM     34  O   UNL     1      -4.946  -0.899  -1.634  0.00  0.00    -0.241 OA
ATOM     35  O   UNL     1      -5.438   1.227  -2.042  0.00  0.00    -0.241 OA
ENDBRANCH   7  33
TORSDOF 6
