REMARK  Name = ZINC21722067
REMARK  4 active torsions:
REMARK  status: ('A' for Active; 'I' for Inactive)
REMARK    1  A    between atoms: C_1  and  N_2
REMARK    2  A    between atoms: C_3  and  C_5
REMARK    3  A    between atoms: C_5  and  N_6
REMARK    4  A    between atoms: C_16  and  C_18
REMARK                            x       y       z     vdW  Elec       q    Type
REMARK                         _______ _______ _______ _____ _____    ______ ____
ROOT
ATOM      1  N   UNL     1       1.871   4.277   0.903  0.00  0.00    -0.308 N 
ATOM      2  C   UNL     1       2.852   5.227   1.159  0.00  0.00    +0.052 A 
ATOM      3  C   UNL     1       3.555   5.216   2.357  0.00  0.00    +0.025 A 
ATOM      4  C   UNL     1       4.538   6.164   2.579  0.00  0.00    +0.002 A 
ATOM      5  C   UNL     1       4.822   7.116   1.617  0.00  0.00    +0.002 A 
ATOM      6  C   UNL     1       4.119   7.133   0.425  0.00  0.00    +0.025 A 
ATOM      7  C   UNL     1       3.129   6.188   0.209  0.00  0.00    +0.052 A 
ATOM      8  N   UNL     1       2.362   6.184  -0.953  0.00  0.00    -0.316 N 
ATOM      9  C   UNL     1       2.380   5.167  -1.853  0.00  0.00    +0.017 C 
ATOM     10  C   UNL     1       2.342   3.867  -1.512  0.00  0.00    +0.037 C 
ATOM     11  C   UNL     1       2.224   3.311  -0.112  0.00  0.00    +0.146 C 
ATOM     12  C   UNL     1       2.414   2.871  -2.516  0.00  0.00    +0.163 C 
ATOM     13  O   UNL     1       2.405   1.702  -2.186  0.00  0.00    -0.292 OA
ATOM     14  C   UNL     1       2.502   3.213  -3.974  0.00  0.00    +0.080 C 
ATOM     15  C   UNL     1       1.794   4.555  -4.201  0.00  0.00    +0.014 C 
ATOM     16  C   UNL     1       2.470   5.593  -3.306  0.00  0.00    +0.051 C 
ATOM     17  H   UNL     1       1.700   7.033  -1.177  0.00  0.00    +0.152 HD
ENDROOT
BRANCH  11  18
ATOM     18  C   UNL     1       1.178   2.226  -0.119  0.00  0.00    +0.015 A 
ATOM     19  C   UNL     1       1.338   0.888  -0.263  0.00  0.00    +0.013 A 
ATOM     20  C   UNL     1       0.222   0.073  -0.238  0.00  0.00    +0.008 A 
ATOM     21  C   UNL     1      -1.000   0.636  -0.070  0.00  0.00    +0.045 A 
ATOM     22  S   UNL     1      -0.592   2.370   0.059  0.00  0.00    -0.099 S 
ENDBRANCH  11  18
BRANCH   1  23
ATOM     23  C   UNL     1       1.449   3.609   2.141  0.00  0.00    +0.201 C 
BRANCH  23  26
ATOM     24  C   UNL     1       0.470   5.276   5.445  0.00  0.00    +0.128 C 
ATOM     25  N   UNL     1       0.813   4.268   4.439  0.00  0.00    -0.317 N 
ATOM     26  C   UNL     1       1.096   4.646   3.176  0.00  0.00    +0.230 C 
ATOM     27  O   UNL     1       1.066   5.819   2.873  0.00  0.00    -0.274 OA
ATOM     28  H   UNL     1       0.840   3.203   4.714  0.00  0.00    +0.148 HD
ENDBRANCH  23  26
ENDBRANCH   1  23
TORSDOF 3
