REMARK  Name = ZINC09300304
REMARK  7 active torsions:
REMARK  status: ('A' for Active; 'I' for Inactive)
REMARK    1  A    between atoms: C_1  and  C_2
REMARK    2  A    between atoms: N_8  and  S_9
REMARK    3  A    between atoms: S_9  and  C_12
REMARK    4  A    between atoms: C_15  and  C_18
REMARK    5  A    between atoms: C_18  and  N_20
REMARK    6  A    between atoms: N_22  and  C_34
REMARK    7  A    between atoms: C_34  and  C_35
REMARK                            x       y       z     vdW  Elec       q    Type
REMARK                         _______ _______ _______ _____ _____    ______ ____
ROOT
ATOM      1  C   UNL     1      -2.881   8.060  -5.146  0.00  0.00    +0.269 C 
ATOM      2  O   UNL     1      -2.580   8.152  -3.969  0.00  0.00    -0.268 OA
ENDROOT
BRANCH   1   3
ATOM      3  N   UNL     1      -2.774   6.884  -5.774  0.00  0.00    -0.152 NA
ATOM      4  C   UNL     1      -2.339   5.816  -5.113  0.00  0.00    +0.167 A 
ATOM      5  N   UNL     1      -2.167   4.550  -5.578  0.00  0.00    -0.317 N 
ATOM      6  C   UNL     1      -1.701   3.557  -4.733  0.00  0.00    +0.062 A 
ATOM      7  C   UNL     1      -1.464   2.206  -5.027  0.00  0.00    +0.076 A 
ATOM      8  C   UNL     1      -0.994   1.339  -4.060  0.00  0.00    +0.164 A 
ATOM      9  C   UNL     1      -0.744   1.788  -2.766  0.00  0.00    +0.163 A 
ATOM     10  C   UNL     1      -0.972   3.119  -2.452  0.00  0.00    +0.066 A 
ATOM     11  C   UNL     1      -1.440   3.976  -3.421  0.00  0.00    +0.043 A 
ATOM     12  S   UNL     1      -1.857   5.701  -3.452  0.00  0.00    -0.052 S 
ATOM     13  O   UNL     1      -0.276   0.944  -1.807  0.00  0.00    -0.485 OA
ATOM     14  C   UNL     1      -0.408  -0.458  -2.064  0.00  0.00    +0.270 C 
ATOM     15  C   UNL     1       0.049  -0.727  -3.504  0.00  0.00    +0.270 C 
ATOM     16  O   UNL     1      -0.780   0.033  -4.389  0.00  0.00    -0.485 OA
BRANCH   5  17
ATOM     17  C   UNL     1      -2.476   4.235  -6.975  0.00  0.00    +0.151 C 
BRANCH  17  18
ATOM     18  C   UNL     1      -3.579   5.139  -7.462  0.00  0.00    -0.013 C 
ATOM     19  C   UNL     1      -3.402   5.867  -8.537  0.00  0.00    +0.005 C 
ENDBRANCH  17  18
ENDBRANCH   5  17
ENDBRANCH   1   3
BRANCH   1  23
ATOM     20  C   UNL     1      -4.270  11.477  -7.258  0.00  0.00    +0.106 A 
ATOM     21  C   UNL     1      -3.929  11.584  -5.921  0.00  0.00    +0.029 A 
ATOM     22  C   UNL     1      -3.478  10.479  -5.230  0.00  0.00    +0.015 A 
ATOM     23  C   UNL     1      -3.365   9.251  -5.882  0.00  0.00    +0.039 A 
ATOM     24  C   UNL     1      -3.704   9.150  -7.231  0.00  0.00    +0.015 A 
ATOM     25  C   UNL     1      -4.161  10.261  -7.910  0.00  0.00    +0.029 A 
BRANCH  20  26
ATOM     26  S   UNL     1      -4.846  12.893  -8.133  0.00  0.00    +0.061 S 
ATOM     27  O   UNL     1      -5.473  12.413  -9.314  0.00  0.00    -0.153 OA
ATOM     28  O   UNL     1      -5.525  13.707  -7.186  0.00  0.00    -0.153 OA
BRANCH  26  35
ATOM     29  C   UNL     1      -3.485  12.192 -10.514  0.00  0.00    +0.026 C 
ATOM     30  C   UNL     1      -2.752  13.333  -9.806  0.00  0.00    +0.077 C 
ATOM     31  C   UNL     1      -2.633  14.537 -10.753  0.00  0.00    +0.020 C 
ATOM     32  C   UNL     1      -2.021  15.717  -9.994  0.00  0.00    +0.003 C 
ATOM     33  C   UNL     1      -2.936  16.107  -8.831  0.00  0.00    +0.017 C 
ATOM     34  C   UNL     1      -3.061  14.924  -7.865  0.00  0.00    +0.110 C 
ATOM     35  N   UNL     1      -3.511  13.745  -8.618  0.00  0.00    -0.174 NA
ENDBRANCH  26  35
ENDBRANCH  20  26
ENDBRANCH   1  23
TORSDOF 6
