REMARK  Name = ZINC26777955
REMARK  6 active torsions:
REMARK  status: ('A' for Active; 'I' for Inactive)
REMARK    1  A    between atoms: C_1  and  C_2
REMARK    2  A    between atoms: C_2  and  C_22
REMARK    3  A    between atoms: N_5  and  C_9
REMARK    4  A    between atoms: C_9  and  C_10
REMARK    5  A    between atoms: C_13  and  C_15
REMARK    6  A    between atoms: C_22  and  C_23
REMARK                            x       y       z     vdW  Elec       q    Type
REMARK                         _______ _______ _______ _____ _____    ______ ____
ROOT
ATOM      1  C   UNL     1       4.284   1.137  -2.225  0.00  0.00    +0.042 C 
ATOM      2  C   UNL     1       4.101   2.453  -1.467  0.00  0.00    +0.114 C 
ATOM      3  C   UNL     1       5.376   3.272  -1.505  0.00  0.00    +0.247 C 
ATOM      4  O   UNL     1       6.460   2.961  -1.059  0.00  0.00    -0.273 OA
ATOM      5  N   UNL     1       5.049   4.420  -2.138  0.00  0.00    -0.218 N 
ATOM      6  C   UNL     1       3.762   4.435  -2.502  0.00  0.00    +0.310 C 
ATOM      7  O   UNL     1       3.236   5.361  -3.087  0.00  0.00    -0.252 OA
ATOM      8  N   UNL     1       3.114   3.310  -2.147  0.00  0.00    -0.285 N 
ATOM      9  H   UNL     1       2.077   2.965  -2.270  0.00  0.00    +0.151 HD
ENDROOT
BRANCH   5  10
ATOM     10  C   UNL     1       5.990   5.513  -2.397  0.00  0.00    +0.176 C 
BRANCH  10  11
ATOM     11  C   UNL     1       5.969   6.479  -1.241  0.00  0.00    +0.098 A 
ATOM     12  C   UNL     1       6.807   6.474  -0.188  0.00  0.00    +0.222 A 
ATOM     13  O   UNL     1       6.451   7.499   0.611  0.00  0.00    -0.443 OA
ATOM     14  C   UNL     1       5.397   8.112   0.045  0.00  0.00    +0.227 A 
ATOM     15  N   UNL     1       5.107   7.494  -1.075  0.00  0.00    -0.212 NA
BRANCH  14  16
ATOM     16  C   UNL     1       4.685   9.286   0.593  0.00  0.00    +0.038 A 
ATOM     17  C   UNL     1       3.604   9.835  -0.099  0.00  0.00    +0.013 A 
ATOM     18  C   UNL     1       2.941  10.928   0.419  0.00  0.00    +0.002 A 
ATOM     19  C   UNL     1       3.351  11.487   1.617  0.00  0.00    +0.020 A 
ATOM     20  C   UNL     1       4.426  10.951   2.305  0.00  0.00    +0.042 A 
ATOM     21  C   UNL     1       5.095   9.854   1.800  0.00  0.00    +0.033 A 
ATOM     22 CL   UNL     1       4.934  11.660   3.806  0.00  0.00    -0.084 Cl
ENDBRANCH  14  16
ENDBRANCH  10  11
ENDBRANCH   5  10
BRANCH   2  23
ATOM     23  C   UNL     1       3.676   2.186  -0.022  0.00  0.00    +0.070 C 
BRANCH  23  24
ATOM     24  C   UNL     1       2.380   1.416  -0.014  0.00  0.00    -0.041 A 
ATOM     25  C   UNL     1       2.399   0.034  -0.021  0.00  0.00    +0.007 A 
ATOM     26  C   UNL     1       1.213  -0.677  -0.013  0.00  0.00    +0.050 A 
ATOM     27  C   UNL     1       0.002  -0.004   0.002  0.00  0.00    +0.166 A 
ATOM     28  C   UNL     1      -0.017   1.389   0.010  0.00  0.00    +0.166 A 
ATOM     29  C   UNL     1       1.176   2.094   0.002  0.00  0.00    +0.053 A 
ATOM     30  O   UNL     1      -1.316   1.807   0.019  0.00  0.00    -0.453 OA
ATOM     31  C   UNL     1      -2.092   0.666  -0.387  0.00  0.00    +0.466 C 
ATOM     32  O   UNL     1      -1.285  -0.458   0.012  0.00  0.00    -0.453 OA
ENDBRANCH  23  24
ENDBRANCH   2  23
TORSDOF 5
