REMARK  Name = ZINC06301623
REMARK  10 active torsions:
REMARK  status: ('A' for Active; 'I' for Inactive)
REMARK    1  A    between atoms: C_1  and  C_2
REMARK    2  A    between atoms: C_4  and  C_40
REMARK    3  A    between atoms: C_7  and  C_14
REMARK    4  A    between atoms: C_14  and  C_16
REMARK    5  A    between atoms: C_14  and  N_73
REMARK    6  A    between atoms: N_20  and  C_21
REMARK    7  A    between atoms: C_27  and  C_28
REMARK    8  A    between atoms: C_27  and  N_73
REMARK    9  A    between atoms: C_34  and  C_35
REMARK   10  A    between atoms: C_34  and  N_73
REMARK                            x       y       z     vdW  Elec       q    Type
REMARK                         _______ _______ _______ _____ _____    ______ ____
ROOT
ATOM      1  C   UNL     1       4.111   4.254   0.094  0.00  0.00    +0.040 C 
ENDROOT
BRANCH   1   8
ATOM      2  C   UNL     1      -0.756  -1.668  -2.110  0.00  0.00    +0.044 C 
ATOM      3  C   UNL     1       0.333  -0.709  -1.705  0.00  0.00    -0.048 A 
ATOM      4  C   UNL     1       1.642  -1.160  -1.601  0.00  0.00    +0.007 A 
ATOM      5  C   UNL     1       2.644  -0.307  -1.236  0.00  0.00    -0.041 A 
ATOM      6  C   UNL     1       2.349   1.032  -0.962  0.00  0.00    +0.002 A 
ATOM      7  C   UNL     1       3.400   1.973  -0.568  0.00  0.00    +0.018 A 
ATOM      8  C   UNL     1       3.054   3.260  -0.315  0.00  0.00    +0.011 A 
ATOM      9  C   UNL     1       1.710   3.672  -0.433  0.00  0.00    +0.251 A 
ATOM     10  O   UNL     1       1.421   4.833  -0.202  0.00  0.00    -0.268 OA
ATOM     11  N   UNL     1       0.739   2.815  -0.795  0.00  0.00    -0.322 N 
ATOM     12  H   UNL     1      -0.176   3.131  -0.867  0.00  0.00    +0.169 HD
ATOM     13  C   UNL     1       1.024   1.493  -1.065  0.00  0.00    +0.050 A 
ATOM     14  C   UNL     1       0.019   0.606  -1.440  0.00  0.00    +0.029 A 
ATOM     15  C   UNL     1       4.062  -0.808  -1.127  0.00  0.00    +0.044 C 
ENDBRANCH   1   8
BRANCH   1  16
ATOM     16  C   UNL     1       4.244   5.311  -0.972  0.00  0.00    +0.143 A 
ATOM     17  N   UNL     1       3.532   6.406  -1.082  0.00  0.00    -0.115 NA
ATOM     18  N   UNL     1       3.949   7.049  -2.118  0.00  0.00    -0.023 NA
ATOM     19  N   UNL     1       4.903   6.389  -2.676  0.00  0.00    -0.044 NA
ATOM     20  N   UNL     1       5.114   5.311  -1.999  0.00  0.00    -0.227 N 
BRANCH  20  21
ATOM     21  C   UNL     1       6.114   4.282  -2.292  0.00  0.00    +0.111 C 
ATOM     22  C   UNL     1       7.495   4.930  -2.407  0.00  0.00    +0.027 C 
ATOM     23  C   UNL     1       8.540   3.855  -2.714  0.00  0.00    +0.002 C 
ATOM     24  C   UNL     1       8.189   3.164  -4.034  0.00  0.00    +0.000 C 
ATOM     25  C   UNL     1       6.808   2.516  -3.918  0.00  0.00    +0.002 C 
ATOM     26  C   UNL     1       5.763   3.591  -3.612  0.00  0.00    +0.027 C 
ENDBRANCH  20  21
ENDBRANCH   1  16
BRANCH   1  27
ATOM     27  N   UNL     1       3.701   4.900   1.359  0.00  0.00    +0.397 N 
ATOM     28  H   UNL     1       2.834   5.427   1.199  0.00  0.00    -0.079 HD
BRANCH  27  29
ATOM     29  C   UNL     1       4.753   5.832   1.814  0.00  0.00    -0.041 C 
BRANCH  29  30
ATOM     30  C   UNL     1       6.065   5.110   1.976  0.00  0.00    -0.064 A 
ATOM     31  C   UNL     1       6.350   4.452   3.158  0.00  0.00    +0.002 A 
ATOM     32  C   UNL     1       7.552   3.784   3.305  0.00  0.00    +0.000 A 
ATOM     33  C   UNL     1       8.473   3.785   2.274  0.00  0.00    +0.000 A 
ATOM     34  C   UNL     1       8.191   4.448   1.095  0.00  0.00    +0.000 A 
ATOM     35  C   UNL     1       6.987   5.111   0.946  0.00  0.00    +0.002 A 
ENDBRANCH  29  30
ENDBRANCH  27  29
BRANCH  27  36
ATOM     36  C   UNL     1       3.454   3.873   2.393  0.00  0.00    -0.001 C 
BRANCH  36  37
ATOM     37  C   UNL     1       2.745   4.517   3.556  0.00  0.00    +0.089 A 
ATOM     38  C   UNL     1       1.413   4.566   3.737  0.00  0.00    +0.042 A 
ATOM     39  C   UNL     1       1.189   5.259   4.949  0.00  0.00    +0.041 A 
ATOM     40  C   UNL     1       2.398   5.591   5.437  0.00  0.00    +0.195 A 
ATOM     41  O   UNL     1       3.337   5.135   4.592  0.00  0.00    -0.470 OA
ENDBRANCH  36  37
ENDBRANCH  27  36
ENDBRANCH   1  27
TORSDOF 8
