REMARK  Name = ZINC35023228
REMARK  6 active torsions:
REMARK  status: ('A' for Active; 'I' for Inactive)
REMARK    1  A    between atoms: C_1  and  C_2
REMARK    2  A    between atoms: N_4  and  C_5
REMARK    3  A    between atoms: C_8  and  C_11
REMARK    4  A    between atoms: C_13  and  C_25
REMARK    5  A    between atoms: C_15  and  C_20
REMARK    6  A    between atoms: C_15  and  O_24
REMARK                            x       y       z     vdW  Elec       q    Type
REMARK                         _______ _______ _______ _____ _____    ______ ____
ROOT
ATOM      1  C   UNL     1       0.501  -6.322  -1.140  0.00  0.00    +0.117 C 
ATOM      2  C   UNL     1      -0.827  -6.957  -1.568  0.00  0.00    +0.110 C 
ATOM      3  C   UNL     1      -1.111  -6.559  -3.021  0.00  0.00    +0.241 C 
ATOM      4  N   UNL     1       0.026  -6.949  -3.856  0.00  0.00    -0.264 N 
ATOM      5  C   UNL     1       1.270  -7.006  -3.359  0.00  0.00    +0.302 C 
ATOM      6  O   UNL     1       2.181  -7.325  -4.099  0.00  0.00    -0.253 OA
ATOM      7  N   UNL     1       1.551  -6.725  -2.076  0.00  0.00    -0.292 N 
ATOM      8  H   UNL     1      -0.124  -7.171  -4.789  0.00  0.00    +0.153 HD
ATOM      9  H   UNL     1       2.467  -6.790  -1.764  0.00  0.00    +0.151 HD
ENDROOT
BRANCH   1  13
ATOM     10  C   UNL     1       0.124  -2.065  -1.162  0.00  0.00    +0.033 A 
ATOM     11  C   UNL     1       0.691  -2.719  -2.248  0.00  0.00    +0.023 A 
ATOM     12  C   UNL     1       0.811  -4.095  -2.237  0.00  0.00    +0.007 A 
ATOM     13  C   UNL     1       0.368  -4.821  -1.147  0.00  0.00    -0.026 A 
ATOM     14  C   UNL     1      -0.198  -4.173  -0.065  0.00  0.00    +0.007 A 
ATOM     15  C   UNL     1      -0.316  -2.797  -0.066  0.00  0.00    +0.023 A 
BRANCH  10  19
ATOM     16  C   UNL     1       0.131   1.532  -0.052  0.00  0.00    +0.109 C 
ATOM     17  C   UNL     1       0.160   0.025  -0.026  0.00  0.00    +0.214 C 
ATOM     18  O   UNL     1       0.328  -0.560   1.023  0.00  0.00    -0.276 OA
ATOM     19  N   UNL     1       0.000  -0.672  -1.169  0.00  0.00    -0.286 N 
ATOM     20  H   UNL     1      -0.201  -0.207  -1.996  0.00  0.00    +0.155 HD
ENDBRANCH  10  19
ENDBRANCH   1  13
BRANCH   2  21
ATOM     21  C   UNL     1      -0.730  -8.457  -1.459  0.00  0.00    -0.000 A 
ATOM     22  C   UNL     1      -1.473  -9.308  -0.711  0.00  0.00    +0.012 A 
ATOM     23  C   UNL     1      -1.203 -10.662  -0.770  0.00  0.00    +0.008 A 
ATOM     24  C   UNL     1      -0.204 -11.099  -1.575  0.00  0.00    +0.045 A 
ATOM     25  S   UNL     1       0.389  -9.574  -2.288  0.00  0.00    -0.101 S 
ENDBRANCH   2  21
BRANCH   3  26
ATOM     26  C   UNL     1      -2.373  -7.274  -3.509  0.00  0.00    +0.436 C 
ATOM     27  F   UNL     1      -3.457  -6.906  -2.704  0.00  0.00    -0.166 F 
ATOM     28  F   UNL     1      -2.631  -6.910  -4.835  0.00  0.00    -0.166 F 
ATOM     29  F   UNL     1      -2.184  -8.658  -3.432  0.00  0.00    -0.166 F 
ENDBRANCH   3  26
BRANCH   3  30
ATOM     30  O   UNL     1      -1.300  -5.145  -3.101  0.00  0.00    -0.364 OA
ATOM     31  H   UNL     1      -1.484  -4.823  -3.994  0.00  0.00    +0.212 HD
ENDBRANCH   3  30
TORSDOF 5
