REMARK  Name = ZINC36513962
REMARK  15 active torsions:
REMARK  status: ('A' for Active; 'I' for Inactive)
REMARK    1  A    between atoms: C_1  and  C_2
REMARK    2  A    between atoms: C_2  and  C_3
REMARK    3  A    between atoms: C_3  and  C_4
REMARK    4  A    between atoms: C_4  and  C_5
REMARK    5  A    between atoms: C_5  and  C_6
REMARK    6  A    between atoms: C_6  and  N_7
REMARK    7  A    between atoms: N_7  and  C_8
REMARK    8  A    between atoms: C_8  and  C_10
REMARK    9  A    between atoms: C_8  and  C_16
REMARK   10  A    between atoms: N_18  and  C_19
REMARK   11  A    between atoms: C_19  and  S_20
REMARK   12  A    between atoms: S_20  and  C_23
REMARK   13  A    between atoms: C_26  and  C_29
REMARK   14  A    between atoms: C_30  and  C_32
REMARK   15  A    between atoms: C_33  and  C_34
REMARK                            x       y       z     vdW  Elec       q    Type
REMARK                         _______ _______ _______ _____ _____    ______ ____
ROOT
ATOM      1  C   UNL     1      -4.892  -4.900  -1.251  0.00  0.00    +0.166 C 
ENDROOT
BRANCH   1   2
ATOM      2  C   UNL     1      -4.740  -3.462  -1.750  0.00  0.00    +0.019 C 
ATOM      3  C   UNL     1      -5.622  -2.535  -0.911  0.00  0.00    +0.006 C 
ATOM      4  C   UNL     1      -5.470  -1.096  -1.411  0.00  0.00    +0.000 C 
ATOM      5  C   UNL     1      -5.897  -1.018  -2.878  0.00  0.00    +0.000 C 
ATOM      6  C   UNL     1      -5.015  -1.945  -3.716  0.00  0.00    +0.000 C 
ATOM      7  C   UNL     1      -5.167  -3.383  -3.217  0.00  0.00    +0.006 C 
ENDBRANCH   1   2
BRANCH   1   8
ATOM      8  C   UNL     1      -4.049  -5.817  -2.099  0.00  0.00    +0.235 C 
ATOM      9  O   UNL     1      -3.052  -6.327  -1.633  0.00  0.00    -0.274 OA
ATOM     10  N   UNL     1      -4.404  -6.072  -3.374  0.00  0.00    -0.295 N 
ATOM     11  H   UNL     1      -5.161  -5.611  -3.768  0.00  0.00    +0.150 HD
BRANCH  10  12
ATOM     12  C   UNL     1      -3.645  -7.044  -4.165  0.00  0.00    +0.278 C 
BRANCH  12  13
ATOM     13  S   UNL     1      -4.456  -8.664  -4.072  0.00  0.00    +0.013 S 
ATOM     14  O   UNL     1      -3.767  -9.603  -4.886  0.00  0.00    -0.168 OA
ATOM     15  O   UNL     1      -4.779  -8.973  -2.724  0.00  0.00    -0.168 OA
BRANCH  13  16
ATOM     16  C   UNL     1      -6.012  -8.437  -4.866  0.00  0.00    +0.090 A 
ATOM     17  C   UNL     1      -7.112  -8.037  -4.130  0.00  0.00    +0.027 A 
ATOM     18  C   UNL     1      -8.333  -7.859  -4.753  0.00  0.00    +0.005 A 
ATOM     19  C   UNL     1      -8.455  -8.081  -6.112  0.00  0.00    -0.050 A 
ATOM     20  C   UNL     1      -7.355  -8.480  -6.848  0.00  0.00    +0.005 A 
ATOM     21  C   UNL     1      -6.133  -8.653  -6.226  0.00  0.00    +0.027 A 
ATOM     22  C   UNL     1      -9.786  -7.888  -6.791  0.00  0.00    +0.044 C 
ENDBRANCH  13  16
ENDBRANCH  12  13
ENDBRANCH  10  12
ENDBRANCH   1   8
BRANCH   1  23
ATOM     23  N   UNL     1      -4.451  -4.982   0.144  0.00  0.00    -0.279 N 
ATOM     24  C   UNL     1      -5.312  -5.383   1.100  0.00  0.00    +0.292 C 
ATOM     25  O   UNL     1      -6.455  -5.678   0.805  0.00  0.00    -0.260 OA
BRANCH  24  26
ATOM     26  C   UNL     1      -4.881  -5.463   2.463  0.00  0.00    -0.003 C 
ATOM     27  C   UNL     1      -4.528  -5.529   3.581  0.00  0.00    -0.057 C 
BRANCH  27  28
ATOM     28  C   UNL     1      -4.098  -5.609   4.944  0.00  0.00    +0.025 A 
ATOM     29  C   UNL     1      -2.786  -5.266   5.289  0.00  0.00    +0.017 A 
ATOM     30  C   UNL     1      -2.379  -5.345   6.604  0.00  0.00    +0.001 A 
ATOM     31  C   UNL     1      -3.265  -5.763   7.582  0.00  0.00    +0.000 A 
ATOM     32  C   UNL     1      -4.564  -6.105   7.249  0.00  0.00    +0.001 A 
ATOM     33  C   UNL     1      -4.988  -6.025   5.939  0.00  0.00    +0.017 A 
ENDBRANCH  27  28
ENDBRANCH  24  26
BRANCH  23  34
ATOM     34  C   UNL     1      -3.075  -4.627   0.499  0.00  0.00    +0.109 C 
BRANCH  34  35
ATOM     35  C   UNL     1      -3.002  -3.136   0.832  0.00  0.00    +0.019 C 
BRANCH  35  36
ATOM     36  C   UNL     1      -1.565  -2.765   1.203  0.00  0.00    +0.002 C 
BRANCH  36  37
ATOM     37  C   UNL     1      -1.492  -1.274   1.536  0.00  0.00    -0.000 C 
BRANCH  37  39
ATOM     38  C   UNL     1       0.019   0.588   2.239  0.00  0.00    +0.004 C 
ATOM     39  C   UNL     1      -0.054  -0.904   1.907  0.00  0.00    -0.003 C 
ENDBRANCH  37  39
ENDBRANCH  36  37
ENDBRANCH  35  36
ENDBRANCH  34  35
ENDBRANCH  23  34
ENDBRANCH   1  23
TORSDOF 13
