REMARK  Name = ZINC39630897
REMARK  13 active torsions:
REMARK  status: ('A' for Active; 'I' for Inactive)
REMARK    1  A    between atoms: C_1  and  C_2
REMARK    2  A    between atoms: C_2  and  C_3
REMARK    3  A    between atoms: C_2  and  C_4
REMARK    4  A    between atoms: C_2  and  C_30
REMARK    5  A    between atoms: C_4  and  N_5
REMARK    6  A    between atoms: C_6  and  C_8
REMARK    7  A    between atoms: C_19  and  C_21
REMARK    8  A    between atoms: C_21  and  C_22
REMARK    9  A    between atoms: C_22  and  C_23
REMARK   10  A    between atoms: C_23  and  C_24
REMARK   11  A    between atoms: C_30  and  N_31
REMARK   12  A    between atoms: N_31  and  C_32
REMARK   13  A    between atoms: N_31  and  C_33
REMARK                            x       y       z     vdW  Elec       q    Type
REMARK                         _______ _______ _______ _____ _____    ______ ____
ROOT
ATOM      1  C   UNL     1      -2.975   0.072   3.658  0.00  0.00    +0.100 C 
ATOM      2  C   UNL     1      -2.910   1.609   3.803  0.00  0.00    +0.121 C 
ATOM      3  N   UNL     1      -4.311   2.060   3.624  0.00  0.00    -0.300 N 
ATOM      4  C   UNL     1      -5.120   1.040   4.332  0.00  0.00    +0.115 C 
ATOM      5  C   UNL     1      -4.426  -0.298   4.010  0.00  0.00    -0.004 C 
ATOM      6  C   UNL     1      -4.456  -1.216   5.228  0.00  0.00    -0.010 C 
ATOM      7  C   UNL     1      -5.904  -1.617   5.523  0.00  0.00    -0.082 C 
ATOM      8  N   UNL     1      -6.473  -2.301   4.355  0.00  0.00    +0.379 N 
ATOM      9  C   UNL     1      -6.525  -1.381   3.213  0.00  0.00    -0.082 C 
ATOM     10  C   UNL     1      -5.103  -0.970   2.820  0.00  0.00    -0.010 C 
ATOM     11  C   UNL     1      -4.749   3.152   2.967  0.00  0.00    +0.216 C 
ATOM     12  O   UNL     1      -5.937   3.389   2.909  0.00  0.00    -0.276 OA
ATOM     13  H   UNL     1      -5.897  -3.095   4.120  0.00  0.00    -0.086 HD
ATOM     14  H   UNL     1      -7.405  -2.618   4.573  0.00  0.00    -0.086 HD
ENDROOT
BRANCH   1  16
ATOM     15  N   UNL     1      -2.091  -1.533   1.996  0.00  0.00    -0.315 N 
ATOM     16  C   UNL     1      -2.658  -0.336   2.242  0.00  0.00    +0.218 C 
ATOM     17  O   UNL     1      -2.914   0.414   1.324  0.00  0.00    -0.275 OA
ATOM     18  H   UNL     1      -1.886  -2.133   2.731  0.00  0.00    +0.149 HD
BRANCH  15  19
ATOM     19  C   UNL     1      -1.783  -1.929   0.620  0.00  0.00    +0.108 C 
BRANCH  19  21
ATOM     20  C   UNL     1       0.140  -3.296   1.442  0.00  0.00    +0.010 C 
ATOM     21  C   UNL     1      -1.150  -3.322   0.619  0.00  0.00    -0.034 C 
ATOM     22  C   UNL     1      -2.127  -4.327   1.232  0.00  0.00    +0.010 C 
BRANCH  21  23
ATOM     23  C   UNL     1      -0.828  -3.735  -0.819  0.00  0.00    -0.072 C 
BRANCH  23  24
ATOM     24  N   UNL     1      -0.238  -5.080  -0.821  0.00  0.00    +0.376 N 
ATOM     25  C   UNL     1      -1.309  -6.085  -0.847  0.00  0.00    -0.097 C 
ATOM     26  C   UNL     1       0.613  -5.239  -2.008  0.00  0.00    -0.097 C 
ATOM     27  H   UNL     1       0.320  -5.204   0.011  0.00  0.00    -0.083 HD
ENDBRANCH  23  24
ENDBRANCH  21  23
ENDBRANCH  19  21
ENDBRANCH  15  19
ENDBRANCH   1  16
BRANCH  11  28
ATOM     28  C   UNL     1      -3.763   4.079   2.305  0.00  0.00    +0.096 C 
BRANCH  28  29
ATOM     29  C   UNL     1      -4.516   5.230   1.634  0.00  0.00    +0.014 C 
BRANCH  29  30
ATOM     30  C   UNL     1      -3.514   6.172   0.962  0.00  0.00    +0.035 C 
BRANCH  30  31
ATOM     31  C   UNL     1      -4.256   7.305   0.301  0.00  0.00    -0.047 A 
ATOM     32  C   UNL     1      -4.679   7.184  -1.009  0.00  0.00    +0.003 A 
ATOM     33  C   UNL     1      -5.359   8.224  -1.615  0.00  0.00    +0.000 A 
ATOM     34  C   UNL     1      -5.617   9.385  -0.910  0.00  0.00    +0.000 A 
ATOM     35  C   UNL     1      -5.195   9.506   0.401  0.00  0.00    +0.000 A 
ATOM     36  C   UNL     1      -4.518   8.464   1.008  0.00  0.00    +0.003 A 
ENDBRANCH  30  31
ENDBRANCH  29  30
ENDBRANCH  28  29
ENDBRANCH  11  28
TORSDOF 9
