REMARK  Name = ZINC39324454
REMARK  6 active torsions:
REMARK  status: ('A' for Active; 'I' for Inactive)
REMARK    1  A    between atoms: C_1  and  C_2
REMARK    2  A    between atoms: C_2  and  C_3
REMARK    3  A    between atoms: C_7  and  C_8
REMARK    4  A    between atoms: C_17  and  C_25
REMARK    5  A    between atoms: C_19  and  C_23
REMARK    6  A    between atoms: C_20  and  N_22
REMARK                            x       y       z     vdW  Elec       q    Type
REMARK                         _______ _______ _______ _____ _____    ______ ____
ROOT
ATOM      1  C   UNL     1       0.652  -0.633  -1.425  0.00  0.00    -0.003 C 
ATOM      2  C   UNL     1       2.057  -0.023  -1.312  0.00  0.00    +0.042 C 
ATOM      3  C   UNL     1       2.867  -0.565  -2.470  0.00  0.00    -0.004 C 
ATOM      4  C   UNL     1       3.700   0.232  -3.162  0.00  0.00    +0.015 C 
ATOM      5  C   UNL     1       2.717  -1.992  -2.819  0.00  0.00    +0.133 C 
ATOM      6  C   UNL     1       1.743  -2.724  -2.280  0.00  0.00    -0.014 C 
ATOM      7  C   UNL     1       0.760  -2.149  -1.292  0.00  0.00    +0.039 C 
ATOM      8  C   UNL     1       1.591  -4.181  -2.652  0.00  0.00    +0.094 C 
ATOM      9  C   UNL     1       2.322  -4.477  -3.930  0.00  0.00    +0.098 C 
ATOM     10  C   UNL     1       3.285  -3.636  -4.385  0.00  0.00    +0.199 C 
ATOM     11  O   UNL     1       3.602  -2.523  -3.702  0.00  0.00    -0.441 OA
ENDROOT
BRANCH   4  12
ATOM     12  C   UNL     1       3.965   1.604  -2.696  0.00  0.00    -0.025 A 
ATOM     13  C   UNL     1       3.974   1.891  -1.328  0.00  0.00    +0.008 A 
ATOM     14  C   UNL     1       4.222   3.178  -0.899  0.00  0.00    +0.001 A 
ATOM     15  C   UNL     1       4.461   4.184  -1.819  0.00  0.00    +0.000 A 
ATOM     16  C   UNL     1       4.454   3.907  -3.175  0.00  0.00    +0.001 A 
ATOM     17  C   UNL     1       4.213   2.623  -3.619  0.00  0.00    +0.008 A 
ENDBRANCH   4  12
BRANCH   8  18
ATOM     18  C   UNL     1       2.154  -5.038  -1.547  0.00  0.00    -0.035 A 
ATOM     19  C   UNL     1       3.483  -4.914  -1.186  0.00  0.00    +0.004 A 
ATOM     20  C   UNL     1       3.999  -5.700  -0.173  0.00  0.00    +0.000 A 
ATOM     21  C   UNL     1       3.187  -6.609   0.479  0.00  0.00    +0.000 A 
ATOM     22  C   UNL     1       1.858  -6.732   0.119  0.00  0.00    +0.000 A 
ATOM     23  C   UNL     1       1.341  -5.943  -0.892  0.00  0.00    +0.004 A 
ENDBRANCH   8  18
BRANCH  10  24
ATOM     24  N   UNL     1       3.942  -3.926  -5.554  0.00  0.00    -0.328 N 
ATOM     25  H   UNL     1       3.718  -4.728  -6.051  0.00  0.00    +0.145 HD
ATOM     26  H   UNL     1       4.632  -3.328  -5.884  0.00  0.00    +0.145 HD
ENDBRANCH  10  24
BRANCH   1  28
ATOM     27  C   UNL     1      -0.440   1.421  -0.513  0.00  0.00    +0.004 C 
ATOM     28  C   UNL     1      -0.237  -0.082  -0.309  0.00  0.00    +0.001 C 
ENDBRANCH   1  28
BRANCH   9  29
ATOM     29  C   UNL     1       2.001  -5.657  -4.674  0.00  0.00    +0.101 C 
ATOM     30  N   UNL     1       1.746  -6.594  -5.265  0.00  0.00    -0.191 NA
ENDBRANCH   9  29
TORSDOF 5
