REMARK  Name = ZINC39162228
REMARK  3 active torsions:
REMARK  status: ('A' for Active; 'I' for Inactive)
REMARK    1  A    between atoms: C_1  and  C_2
REMARK    2  A    between atoms: C_5  and  S_12
REMARK    3  A    between atoms: S_12  and  N_15
REMARK                            x       y       z     vdW  Elec       q    Type
REMARK                         _______ _______ _______ _____ _____    ______ ____
ROOT
ATOM      1  S   UNL     1       0.099  -4.835  -0.183  0.00  0.00    +0.079 S 
ATOM      2  O   UNL     1      -0.030  -5.551  -1.404  0.00  0.00    -0.148 OA
ATOM      3  O   UNL     1       1.173  -5.059   0.721  0.00  0.00    -0.148 OA
ENDROOT
BRANCH   1   4
ATOM      4  N   UNL     1      -1.298  -5.093   0.667  0.00  0.00    -0.256 N 
ATOM      5  C   UNL     1      -2.501  -5.092   0.021  0.00  0.00    +0.059 C 
ATOM      6  C   UNL     1      -2.552  -4.725  -1.401  0.00  0.00    +0.029 C 
ATOM      7  C   UNL     1      -3.719  -4.713  -2.070  0.00  0.00    +0.032 C 
ATOM      8  C   UNL     1      -4.958  -5.074  -1.361  0.00  0.00    +0.095 C 
ATOM      9  N   UNL     1      -6.213  -5.161  -1.700  0.00  0.00    -0.190 NA
ATOM     10  C   UNL     1      -6.941  -5.554  -0.594  0.00  0.00    +0.369 C 
ATOM     11  O   UNL     1      -8.144  -5.728  -0.581  0.00  0.00    -0.243 OA
ATOM     12  N   UNL     1      -6.128  -5.719   0.466  0.00  0.00    -0.190 NA
ATOM     13  C   UNL     1      -4.882  -5.444   0.086  0.00  0.00    +0.097 C 
ATOM     14  C   UNL     1      -3.649  -5.444   0.721  0.00  0.00    +0.057 C 
ATOM     15  H   UNL     1      -1.262  -5.245   1.625  0.00  0.00    +0.188 HD
ENDBRANCH   1   4
BRANCH   1  20
ATOM     16  C   UNL     1       0.248   1.030  -1.714  0.00  0.00    +0.044 C 
ATOM     17  C   UNL     1       0.213  -0.421  -1.312  0.00  0.00    -0.043 A 
ATOM     18  C   UNL     1       0.142  -1.393  -2.263  0.00  0.00    +0.006 A 
ATOM     19  C   UNL     1       0.109  -2.741  -1.910  0.00  0.00    +0.030 A 
ATOM     20  C   UNL     1       0.144  -3.125  -0.605  0.00  0.00    +0.118 A 
ATOM     21  C   UNL     1       0.217  -2.150   0.405  0.00  0.00    +0.009 A 
ATOM     22  C   UNL     1       0.257  -0.780   0.046  0.00  0.00    -0.013 A 
ATOM     23  C   UNL     1       0.336   0.195   1.056  0.00  0.00    +0.009 A 
ATOM     24  C   UNL     1       0.377  -0.189   2.360  0.00  0.00    +0.001 A 
ATOM     25  C   UNL     1       0.344  -1.538   2.713  0.00  0.00    +0.001 A 
ATOM     26  C   UNL     1       0.255  -2.508   1.763  0.00  0.00    +0.010 A 
ENDBRANCH   1  20
TORSDOF 2
