REMARK  Name = ZINC09058957
REMARK  7 active torsions:
REMARK  status: ('A' for Active; 'I' for Inactive)
REMARK    1  A    between atoms: C_1  and  C_2
REMARK    2  A    between atoms: C_12  and  C_20
REMARK    3  A    between atoms: N_22  and  C_23
REMARK    4  A    between atoms: C_25  and  O_31
REMARK    5  A    between atoms: C_28  and  O_29
REMARK    6  A    between atoms: O_29  and  C_30
REMARK    7  A    between atoms: O_31  and  C_32
REMARK                            x       y       z     vdW  Elec       q    Type
REMARK                         _______ _______ _______ _____ _____    ______ ____
ROOT
ATOM      1  C   UNL     1      -5.864   2.426   3.395  0.00  0.00    +0.046 C 
ATOM      2  C   UNL     1      -4.738   3.041   2.604  0.00  0.00    -0.028 A 
ATOM      3  C   UNL     1      -4.637   4.413   2.503  0.00  0.00    +0.025 A 
ATOM      4  C   UNL     1      -3.607   4.987   1.779  0.00  0.00    +0.042 A 
ATOM      5  C   UNL     1      -2.672   4.179   1.153  0.00  0.00    +0.024 A 
ATOM      6  C   UNL     1      -2.770   2.809   1.252  0.00  0.00    -0.026 A 
ATOM      7  C   UNL     1      -3.802   2.222   1.977  0.00  0.00    +0.039 A 
ATOM      8  N   UNL     1      -3.692   0.830   1.932  0.00  0.00    -0.286 N 
ATOM      9  C   UNL     1      -2.630   0.428   1.209  0.00  0.00    +0.212 C 
ATOM     10  O   UNL     1      -2.291  -0.718   1.000  0.00  0.00    -0.277 OA
ATOM     11  C   UNL     1      -1.945   1.674   0.709  0.00  0.00    +0.052 C 
ATOM     12  C   UNL     1      -0.502   1.747   1.234  0.00  0.00    +0.076 C 
ATOM     13  C   UNL     1       0.332   1.253   0.020  0.00  0.00    -0.003 C 
ATOM     14  C   UNL     1      -0.475   1.823  -1.170  0.00  0.00    -0.066 C 
ATOM     15  C   UNL     1      -2.368   0.400  -1.299  0.00  0.00    -0.077 C 
ATOM     16  C   UNL     1      -1.663   0.298  -2.673  0.00  0.00    -0.020 C 
ATOM     17  C   UNL     1      -0.275   0.918  -2.397  0.00  0.00    -0.017 C 
ATOM     18 CL   UNL     1      -3.485   6.714   1.657  0.00  0.00    -0.084 Cl
ATOM     19  H   UNL     1      -4.309   0.224   2.370  0.00  0.00    +0.155 HD
ATOM     20  N   UNL     1      -1.870   1.681  -0.766  0.00  0.00    +0.394 N 
ATOM     21  H   UNL     1      -2.428   2.458  -1.139  0.00  0.00    -0.079 HD
ENDROOT
BRANCH  12  22
ATOM     22  C   UNL     1      -0.316   0.833   2.417  0.00  0.00    +0.220 C 
ATOM     23  O   UNL     1       0.070  -0.305   2.250  0.00  0.00    -0.275 OA
ATOM     24  N   UNL     1      -0.579   1.279   3.662  0.00  0.00    -0.282 N 
ATOM     25  H   UNL     1      -0.967   2.158   3.789  0.00  0.00    +0.155 HD
BRANCH  24  26
ATOM     26  C   UNL     1      -0.292   0.471   4.770  0.00  0.00    +0.079 A 
ATOM     27  C   UNL     1       0.605  -0.580   4.651  0.00  0.00    +0.072 A 
ATOM     28  C   UNL     1       0.892  -1.373   5.751  0.00  0.00    +0.122 A 
ATOM     29  C   UNL     1       0.273  -1.123   6.967  0.00  0.00    +0.049 A 
ATOM     30  C   UNL     1      -0.625  -0.079   7.088  0.00  0.00    +0.051 A 
ATOM     31  C   UNL     1      -0.911   0.720   5.993  0.00  0.00    +0.141 A 
BRANCH  31  32
ATOM     32  O   UNL     1      -1.794   1.747   6.112  0.00  0.00    -0.493 OA
ATOM     33  C   UNL     1      -2.391   1.944   7.396  0.00  0.00    +0.277 C 
ENDBRANCH  31  32
BRANCH  28  34
ATOM     34  O   UNL     1       1.775  -2.400   5.636  0.00  0.00    -0.495 OA
ATOM     35  C   UNL     1       2.018  -3.180   6.808  0.00  0.00    +0.277 C 
ENDBRANCH  28  34
ENDBRANCH  24  26
ENDBRANCH  12  22
TORSDOF 4
