REMARK  Name = ZINC41399602
REMARK  10 active torsions:
REMARK  status: ('A' for Active; 'I' for Inactive)
REMARK    1  A    between atoms: C_1  and  S_2
REMARK    2  A    between atoms: S_2  and  C_3
REMARK    3  A    between atoms: C_3  and  C_4
REMARK    4  A    between atoms: C_4  and  C_5
REMARK    5  A    between atoms: C_5  and  C_7
REMARK    6  A    between atoms: C_5  and  N_26
REMARK    7  A    between atoms: N_9  and  C_10
REMARK    8  A    between atoms: C_10  and  C_11
REMARK    9  A    between atoms: C_11  and  C_13
REMARK   10  A    between atoms: C_11  and  N_21
REMARK                            x       y       z     vdW  Elec       q    Type
REMARK                         _______ _______ _______ _____ _____    ______ ____
ROOT
ATOM      1  C   UNL     1       2.464  -6.139   4.623  0.00  0.00    +0.233 C 
ATOM      2  O   UNL     1       1.446  -5.529   4.372  0.00  0.00    -0.274 OA
ATOM      3  N   UNL     1       3.376  -6.355   3.655  0.00  0.00    -0.315 N 
ATOM      4  H   UNL     1       4.190  -6.843   3.855  0.00  0.00    +0.149 HD
ENDROOT
BRANCH   1   5
ATOM      5  C   UNL     1       2.708  -6.657   6.017  0.00  0.00    +0.161 C 
BRANCH   5   6
ATOM      6  N   UNL     1       1.436  -6.733   6.739  0.00  0.00    -0.288 N 
ATOM      7  C   UNL     1       0.702  -5.619   6.930  0.00  0.00    +0.298 C 
ATOM      8  O   UNL     1       1.095  -4.551   6.502  0.00  0.00    -0.253 OA
ATOM      9  N   UNL     1      -0.469  -5.689   7.595  0.00  0.00    -0.313 N 
ATOM     10  H   UNL     1       1.122  -7.585   7.081  0.00  0.00    +0.151 HD
ATOM     11  H   UNL     1      -0.782  -6.541   7.936  0.00  0.00    +0.146 HD
ATOM     12  H   UNL     1      -0.997  -4.887   7.732  0.00  0.00    +0.146 HD
ENDBRANCH   5   6
BRANCH   5  13
ATOM     13  C   UNL     1       3.658  -5.711   6.754  0.00  0.00    +0.042 C 
BRANCH  13  14
ATOM     14  C   UNL     1       4.004  -6.300   8.123  0.00  0.00    +0.071 C 
BRANCH  14  16
ATOM     15  C   UNL     1       5.439  -6.009  10.579  0.00  0.00    +0.084 C 
ATOM     16  S   UNL     1       5.130  -5.177   8.996  0.00  0.00    -0.164 S 
ENDBRANCH  14  16
ENDBRANCH  13  14
ENDBRANCH   5  13
ENDBRANCH   1   5
BRANCH   3  17
ATOM     17  C   UNL     1       3.139  -5.851   2.300  0.00  0.00    +0.093 C 
BRANCH  17  18
ATOM     18  C   UNL     1       4.371  -6.120   1.433  0.00  0.00    -0.016 C 
BRANCH  18  19
ATOM     19  C   UNL     1       4.554  -7.607   1.267  0.00  0.00    -0.006 A 
ATOM     20  C   UNL     1       3.727  -8.316   0.412  0.00  0.00    +0.126 A 
ATOM     21  C   UNL     1       3.897  -9.682   0.262  0.00  0.00    +0.038 A 
ATOM     22  C   UNL     1       4.891 -10.336   0.965  0.00  0.00    +0.004 A 
ATOM     23  C   UNL     1       5.716  -9.629   1.818  0.00  0.00    +0.020 A 
ATOM     24  C   UNL     1       5.552  -8.262   1.965  0.00  0.00    +0.045 A 
ATOM     25 CL   UNL     1       6.593  -7.373   3.032  0.00  0.00    -0.083 Cl
ATOM     26  F   UNL     1       2.756  -7.676  -0.274  0.00  0.00    -0.205 F 
ENDBRANCH  18  19
BRANCH  18  27
ATOM     27  N   UNL     1       4.186  -5.500   0.114  0.00  0.00    +0.385 N 
ATOM     28  C   UNL     1       4.218  -4.020   0.235  0.00  0.00    -0.078 C 
ATOM     29  C   UNL     1       4.580  -3.555  -1.199  0.00  0.00    -0.020 C 
ATOM     30  C   UNL     1       5.589  -4.629  -1.666  0.00  0.00    -0.020 C 
ATOM     31  C   UNL     1       5.310  -5.856  -0.779  0.00  0.00    -0.078 C 
ATOM     32  H   UNL     1       3.311  -5.798  -0.292  0.00  0.00    -0.081 HD
ENDBRANCH  18  27
ENDBRANCH  17  18
ENDBRANCH   3  17
TORSDOF 9
