REMARK  Name = ZINC00383354
REMARK  7 active torsions:
REMARK  status: ('A' for Active; 'I' for Inactive)
REMARK    1  A    between atoms: C_1  and  C_2
REMARK    2  A    between atoms: C_3  and  C_21
REMARK    3  A    between atoms: C_4  and  C_15
REMARK    4  A    between atoms: C_7  and  N_14
REMARK    5  A    between atoms: C_8  and  C_12
REMARK    6  A    between atoms: C_21  and  O_23
REMARK    7  A    between atoms: O_23  and  C_24
REMARK                            x       y       z     vdW  Elec       q    Type
REMARK                         _______ _______ _______ _____ _____    ______ ____
ROOT
ATOM      1  C   UNL     1       4.438   4.514   0.055  0.00  0.00    +0.066 C 
ATOM      2  C   UNL     1       3.728   3.186   0.018  0.00  0.00    +0.053 C 
ATOM      3  C   UNL     1       4.442   2.034  -0.244  0.00  0.00    +0.083 C 
ATOM      4  C   UNL     1       3.687   0.724  -0.272  0.00  0.00    +0.151 C 
ATOM      5  N   UNL     1       2.223   0.780  -0.013  0.00  0.00    -0.255 N 
ATOM      6  C   UNL     1       1.354  -0.271   0.011  0.00  0.00    +0.115 C 
ATOM      7  C   UNL     1       0.033  -0.031   0.268  0.00  0.00    +0.127 C 
ATOM      8  S   UNL     1       0.021   1.740   0.483  0.00  0.00    -0.040 S 
ATOM      9  C   UNL     1       1.708   2.029   0.226  0.00  0.00    +0.168 C 
ATOM     10  N   UNL     1       2.422   3.131   0.236  0.00  0.00    -0.230 NA
ENDROOT
BRANCH   4  11
ATOM     11  C   UNL     1       4.305  -0.190   0.755  0.00  0.00    -0.022 A 
ATOM     12  C   UNL     1       3.872  -0.148   2.067  0.00  0.00    +0.006 A 
ATOM     13  C   UNL     1       4.436  -0.989   3.008  0.00  0.00    +0.000 A 
ATOM     14  C   UNL     1       5.439  -1.865   2.639  0.00  0.00    +0.000 A 
ATOM     15  C   UNL     1       5.876  -1.903   1.328  0.00  0.00    +0.000 A 
ATOM     16  C   UNL     1       5.309  -1.065   0.386  0.00  0.00    +0.006 A 
ENDBRANCH   4  11
BRANCH   6  17
ATOM     17  N   UNL     1       1.802  -1.555  -0.222  0.00  0.00    -0.345 N 
ATOM     18  H   UNL     1       1.177  -2.297  -0.203  0.00  0.00    +0.144 HD
ATOM     19  H   UNL     1       2.741  -1.716  -0.404  0.00  0.00    +0.144 HD
ENDBRANCH   6  17
BRANCH   7  20
ATOM     20  C   UNL     1      -1.056  -0.958   0.344  0.00  0.00    +0.110 C 
ATOM     21  N   UNL     1      -1.919  -1.694   0.404  0.00  0.00    -0.190 NA
ENDBRANCH   7  20
BRANCH   3  22
ATOM     22  C   UNL     1       5.823   2.077  -0.477  0.00  0.00    +0.339 C 
ATOM     23  O   UNL     1       6.394   3.150  -0.559  0.00  0.00    -0.245 OA
BRANCH  22  24
ATOM     24  O   UNL     1       6.522   0.928  -0.612  0.00  0.00    -0.465 OA
ATOM     25  C   UNL     1       7.926   1.047  -0.848  0.00  0.00    +0.280 C 
ENDBRANCH  22  24
ENDBRANCH   3  22
TORSDOF 5
