REMARK  Name = ZINC20679609
REMARK  4 active torsions:
REMARK  status: ('A' for Active; 'I' for Inactive)
REMARK    1  A    between atoms: C_3  and  O_32
REMARK    2  A    between atoms: C_6  and  C_7
REMARK    3  A    between atoms: C_18  and  S_23
REMARK    4  A    between atoms: S_23  and  N_26
REMARK                            x       y       z     vdW  Elec       q    Type
REMARK                         _______ _______ _______ _____ _____    ______ ____
ROOT
ATOM      1  C   UNL     1       2.490   1.045  -0.016  0.00  0.00    +0.105 C 
ATOM      2  C   UNL     1       3.184   1.181   1.327  0.00  0.00    +0.029 C 
ATOM      3  C   UNL     1       2.362   0.791   2.558  0.00  0.00    +0.033 C 
ATOM      4  C   UNL     1       3.000   1.681   3.627  0.00  0.00    -0.030 C 
ATOM      5  C   UNL     1       3.523   2.763   3.064  0.00  0.00    -0.023 C 
ATOM      6  C   UNL     1       3.258   2.713   1.603  0.00  0.00    +0.049 C 
ATOM      7  C   UNL     1       4.186   3.309   0.618  0.00  0.00    -0.018 A 
ATOM      8  C   UNL     1       4.999   4.379   0.920  0.00  0.00    +0.034 A 
ATOM      9  C   UNL     1       5.823   4.925  -0.046  0.00  0.00    +0.106 A 
ATOM     10  C   UNL     1       5.834   4.396  -1.324  0.00  0.00    +0.030 A 
ATOM     11  C   UNL     1       5.029   3.319  -1.635  0.00  0.00    +0.025 A 
ATOM     12  C   UNL     1       4.202   2.759  -0.669  0.00  0.00    +0.031 A 
ATOM     13  N   UNL     1       3.406   1.656  -1.003  0.00  0.00    -0.336 N 
ATOM     14  H   UNL     1       3.472   1.245  -2.021  0.00  0.00    +0.147 HD
ENDROOT
BRANCH   1  20
ATOM     15  C   UNL     1       0.023   1.131   0.397  0.00  0.00    +0.009 A 
ATOM     16  C   UNL     1      -1.184   1.803   0.408  0.00  0.00    +0.046 A 
ATOM     17  C   UNL     1      -1.237   3.137   0.031  0.00  0.00    +0.117 A 
ATOM     18  C   UNL     1      -0.079   3.789  -0.367  0.00  0.00    +0.046 A 
ATOM     19  C   UNL     1       1.125   3.111  -0.381  0.00  0.00    +0.009 A 
ATOM     20  C   UNL     1       1.176   1.783   0.000  0.00  0.00    -0.027 A 
BRANCH  17  21
ATOM     21  O   UNL     1      -2.422   3.802   0.045  0.00  0.00    -0.507 OA
ATOM     22  H   UNL     1      -2.463   4.859  -0.254  0.00  0.00    +0.292 HD
ENDBRANCH  17  21
ENDBRANCH   1  20
BRANCH   9  23
ATOM     23  S   UNL     1       6.858   6.295   0.348  0.00  0.00    +0.061 S 
ATOM     24  O   UNL     1       7.065   6.256   1.754  0.00  0.00    -0.153 OA
ATOM     25  O   UNL     1       7.933   6.274  -0.581  0.00  0.00    -0.153 OA
BRANCH  23  26
ATOM     26  N   UNL     1       5.990   7.671   0.036  0.00  0.00    -0.177 NA
ATOM     27  C   UNL     1       6.043   8.305  -1.288  0.00  0.00    +0.109 C 
ATOM     28  C   UNL     1       4.606   8.475  -1.806  0.00  0.00    +0.017 C 
ATOM     29  C   UNL     1       3.786   9.249  -0.771  0.00  0.00    +0.003 C 
ATOM     30  C   UNL     1       3.735   8.457   0.537  0.00  0.00    +0.017 C 
ATOM     31  C   UNL     1       5.157   8.284   1.080  0.00  0.00    +0.109 C 
ENDBRANCH  23  26
ENDBRANCH   9  23
TORSDOF 4
