REMARK  Name = ZINC36571179
REMARK  10 active torsions:
REMARK  status: ('A' for Active; 'I' for Inactive)
REMARK    1  A    between atoms: C_1  and  C_2
REMARK    2  A    between atoms: C_2  and  C_3
REMARK    3  A    between atoms: C_3  and  N_4
REMARK    4  A    between atoms: N_4  and  C_5
REMARK    5  A    between atoms: C_5  and  C_7
REMARK    6  A    between atoms: C_5  and  C_16
REMARK    7  A    between atoms: N_18  and  C_19
REMARK    8  A    between atoms: C_25  and  C_27
REMARK    9  A    between atoms: C_28  and  O_34
REMARK   10  A    between atoms: C_32  and  O_33
REMARK                            x       y       z     vdW  Elec       q    Type
REMARK                         _______ _______ _______ _____ _____    ______ ____
ROOT
ATOM      1  C   UNL     1      -1.582  -2.717   1.153  0.00  0.00    +0.193 C 
ENDROOT
BRANCH   1   2
ATOM      2  C   UNL     1      -2.925  -2.495   1.800  0.00  0.00    -0.015 A 
ATOM      3  C   UNL     1      -3.439  -1.216   1.902  0.00  0.00    +0.010 A 
ATOM      4  C   UNL     1      -4.671  -1.008   2.494  0.00  0.00    +0.050 A 
ATOM      5  C   UNL     1      -5.393  -2.082   2.988  0.00  0.00    +0.166 A 
ATOM      6  C   UNL     1      -4.875  -3.371   2.886  0.00  0.00    +0.167 A 
ATOM      7  C   UNL     1      -3.642  -3.572   2.286  0.00  0.00    +0.055 A 
ATOM      8  O   UNL     1      -5.765  -4.245   3.440  0.00  0.00    -0.453 OA
ATOM      9  C   UNL     1      -6.644  -3.438   4.246  0.00  0.00    +0.466 C 
ATOM     10  O   UNL     1      -6.608  -2.148   3.606  0.00  0.00    -0.453 OA
ENDBRANCH   1   2
BRANCH   1  11
ATOM     11  C   UNL     1      -0.493  -2.250   2.085  0.00  0.00    +0.238 C 
ATOM     12  O   UNL     1       0.239  -1.340   1.755  0.00  0.00    -0.273 OA
ATOM     13  N   UNL     1      -0.331  -2.844   3.284  0.00  0.00    -0.311 N 
ATOM     14  H   UNL     1      -0.916  -3.571   3.547  0.00  0.00    +0.149 HD
BRANCH  13  15
ATOM     15  C   UNL     1       0.728  -2.390   4.189  0.00  0.00    +0.073 C 
ATOM     16  C   UNL     1       2.040  -3.090   3.830  0.00  0.00    +0.022 C 
ATOM     17  C   UNL     1       3.146  -2.616   4.776  0.00  0.00    +0.002 C 
ATOM     18  C   UNL     1       2.764  -2.957   6.218  0.00  0.00    +0.000 C 
ATOM     19  C   UNL     1       1.452  -2.257   6.577  0.00  0.00    +0.002 C 
ATOM     20  C   UNL     1       0.346  -2.731   5.631  0.00  0.00    +0.022 C 
ENDBRANCH  13  15
ENDBRANCH   1  11
BRANCH   1  21
ATOM     21  N   UNL     1      -1.512  -1.959  -0.098  0.00  0.00    -0.282 N 
ATOM     22  C   UNL     1      -2.056  -2.464  -1.223  0.00  0.00    +0.255 C 
ATOM     23  O   UNL     1      -2.604  -3.549  -1.199  0.00  0.00    -0.270 OA
BRANCH  22  24
ATOM     24  C   UNL     1      -1.985  -1.702  -2.481  0.00  0.00    +0.119 A 
ATOM     25  C   UNL     1      -0.902  -1.879  -3.354  0.00  0.00    +0.133 A 
ATOM     26  C   UNL     1      -0.847  -1.157  -4.536  0.00  0.00    +0.046 A 
ATOM     27  C   UNL     1      -1.853  -0.266  -4.855  0.00  0.00    +0.007 A 
ATOM     28  C   UNL     1      -2.925  -0.083  -4.002  0.00  0.00    +0.046 A 
ATOM     29  C   UNL     1      -3.004  -0.799  -2.818  0.00  0.00    +0.133 A 
BRANCH  29  30
ATOM     30  O   UNL     1      -4.060  -0.622  -1.984  0.00  0.00    -0.506 OA
ATOM     31  H   UNL     1      -3.930   0.075  -1.327  0.00  0.00    +0.292 HD
ENDBRANCH  29  30
BRANCH  25  32
ATOM     32  O   UNL     1       0.087  -2.753  -3.043  0.00  0.00    -0.506 OA
ATOM     33  H   UNL     1      -0.065  -3.651  -3.367  0.00  0.00    +0.292 HD
ENDBRANCH  25  32
ENDBRANCH  22  24
BRANCH  21  34
ATOM     34  C   UNL     1      -0.851  -0.651  -0.127  0.00  0.00    +0.109 C 
BRANCH  34  36
ATOM     35  C   UNL     1       1.343   0.502  -0.440  0.00  0.00    +0.005 C 
ATOM     36  C   UNL     1       0.592  -0.820  -0.608  0.00  0.00    +0.016 C 
ENDBRANCH  34  36
ENDBRANCH  21  34
ENDBRANCH   1  21
TORSDOF 9
