REMARK  Name = ZINC41545516
REMARK  6 active torsions:
REMARK  status: ('A' for Active; 'I' for Inactive)
REMARK    1  A    between atoms: C_1  and  C_2
REMARK    2  A    between atoms: C_2  and  C_3
REMARK    3  A    between atoms: C_5  and  C_23
REMARK    4  A    between atoms: C_6  and  N_8
REMARK    5  A    between atoms: C_9  and  C_11
REMARK    6  A    between atoms: C_11  and  C_22
REMARK                            x       y       z     vdW  Elec       q    Type
REMARK                         _______ _______ _______ _____ _____    ______ ____
ROOT
ATOM      1  N   UNL     1      -5.015  -1.860   1.204  0.00  0.00    -0.276 N 
ATOM      2  C   UNL     1      -5.139  -1.911   2.545  0.00  0.00    +0.270 C 
ATOM      3  O   UNL     1      -4.215  -1.572   3.253  0.00  0.00    -0.271 OA
ATOM      4  H   UNL     1      -5.754  -2.131   0.638  0.00  0.00    +0.155 HD
ENDROOT
BRANCH   2   5
ATOM      5  C   UNL     1      -6.427  -2.389   3.165  0.00  0.00    +0.258 C 
ATOM      6  C   UNL     1      -6.150  -2.927   4.546  0.00  0.00    +0.270 C 
ATOM      7  O   UNL     1      -5.203  -2.515   5.182  0.00  0.00    -0.271 OA
ATOM      8  N   UNL     1      -6.960  -3.870   5.072  0.00  0.00    -0.279 N 
ATOM      9  C   UNL     1      -7.971  -4.424   4.275  0.00  0.00    +0.076 A 
ATOM     10  C   UNL     1      -8.957  -5.218   4.839  0.00  0.00    +0.027 A 
ATOM     11  C   UNL     1      -9.955  -5.747   4.042  0.00  0.00    +0.002 A 
ATOM     12  C   UNL     1      -9.973  -5.484   2.684  0.00  0.00    +0.004 A 
ATOM     13  C   UNL     1      -8.989  -4.697   2.114  0.00  0.00    +0.047 A 
ATOM     14  C   UNL     1      -7.983  -4.169   2.906  0.00  0.00    +0.144 A 
ATOM     15  O   UNL     1      -6.993  -3.419   2.352  0.00  0.00    -0.465 OA
ATOM     16  C   UNL     1      -7.409  -1.220   3.263  0.00  0.00    +0.076 C 
ATOM     17  H   UNL     1      -6.844  -4.161   5.990  0.00  0.00    +0.155 HD
ENDBRANCH   2   5
BRANCH   1  21
ATOM     18  C   UNL     1      -1.412  -0.526   0.013  0.00  0.00    -0.008 A 
ATOM     19  C   UNL     1      -2.203  -0.814  -1.037  0.00  0.00    +0.026 A 
ATOM     20  C   UNL     1      -3.524  -1.303  -0.714  0.00  0.00    +0.065 A 
ATOM     21  C   UNL     1      -3.830  -1.421   0.634  0.00  0.00    +0.084 A 
ATOM     22  S   UNL     1      -2.434  -0.916   1.416  0.00  0.00    -0.078 S 
BRANCH  20  23
ATOM     23  C   UNL     1      -4.492  -1.656  -1.758  0.00  0.00    +0.244 C 
ATOM     24  O   UNL     1      -5.596  -2.065  -1.450  0.00  0.00    -0.270 OA
ATOM     25  N   UNL     1      -4.158  -1.528  -3.057  0.00  0.00    -0.325 N 
ATOM     26  H   UNL     1      -3.278  -1.203  -3.302  0.00  0.00    +0.145 HD
ATOM     27  H   UNL     1      -4.798  -1.762  -3.747  0.00  0.00    +0.145 HD
ENDBRANCH  20  23
BRANCH  18  29
ATOM     28  C   UNL     1      -0.019   1.526   0.010  0.00  0.00    +0.009 C 
ATOM     29  C   UNL     1       0.002  -0.004   0.002  0.00  0.00    +0.039 C 
ENDBRANCH  18  29
ENDBRANCH   1  21
TORSDOF 4
