REMARK  Name = ZINC40688784
REMARK  9 active torsions:
REMARK  status: ('A' for Active; 'I' for Inactive)
REMARK    1  A    between atoms: C_1  and  C_2
REMARK    2  A    between atoms: C_4  and  C_26
REMARK    3  A    between atoms: C_7  and  N_8
REMARK    4  A    between atoms: C_10  and  N_24
REMARK    5  A    between atoms: C_11  and  N_15
REMARK    6  A    between atoms: N_15  and  C_16
REMARK    7  A    between atoms: C_16  and  C_17
REMARK    8  A    between atoms: C_26  and  C_28
REMARK    9  A    between atoms: C_26  and  C_30
REMARK                            x       y       z     vdW  Elec       q    Type
REMARK                         _______ _______ _______ _____ _____    ______ ____
ROOT
ATOM      1  N   UNL     1       0.282  -1.248   3.112  0.00  0.00    -0.298 N 
ATOM      2  C   UNL     1       0.679  -2.088   4.146  0.00  0.00    +0.149 A 
ATOM      3  C   UNL     1       0.631  -1.652   5.472  0.00  0.00    +0.105 A 
ATOM      4  C   UNL     1       1.041  -2.535   6.472  0.00  0.00    +0.145 A 
ATOM      5  N   UNL     1       1.459  -3.751   6.126  0.00  0.00    -0.219 NA
ATOM      6  C   UNL     1       1.488  -4.123   4.863  0.00  0.00    +0.225 A 
ATOM      7  N   UNL     1       1.106  -3.322   3.889  0.00  0.00    -0.219 NA
ATOM      8  H   UNL     1      -0.113  -0.385   3.312  0.00  0.00    +0.154 HD
ENDROOT
BRANCH   1  15
ATOM      9  C   UNL     1      -1.515  -0.220   1.161  0.00  0.00    +0.045 C 
ATOM     10  C   UNL     1      -0.402  -1.169   0.798  0.00  0.00    -0.029 A 
ATOM     11  C   UNL     1      -0.228  -1.561  -0.515  0.00  0.00    +0.011 A 
ATOM     12  C   UNL     1       0.792  -2.432  -0.849  0.00  0.00    -0.008 A 
ATOM     13  C   UNL     1       1.642  -2.915   0.131  0.00  0.00    +0.047 A 
ATOM     14  C   UNL     1       1.474  -2.527   1.446  0.00  0.00    +0.043 A 
ATOM     15  C   UNL     1       0.453  -1.647   1.783  0.00  0.00    +0.037 A 
ATOM     16 CL   UNL     1       2.921  -4.009  -0.293  0.00  0.00    -0.083 Cl
BRANCH  12  17
ATOM     17  C   UNL     1       0.979  -2.857  -2.283  0.00  0.00    +0.153 C 
BRANCH  17  18
ATOM     18  C   UNL     1      -0.212  -3.668  -2.725  0.00  0.00    -0.026 A 
ATOM     19  C   UNL     1      -1.438  -3.055  -2.903  0.00  0.00    +0.006 A 
ATOM     20  C   UNL     1      -2.530  -3.799  -3.308  0.00  0.00    +0.020 A 
ATOM     21  C   UNL     1      -2.396  -5.157  -3.537  0.00  0.00    +0.041 A 
ATOM     22  C   UNL     1      -1.169  -5.769  -3.359  0.00  0.00    +0.020 A 
ATOM     23  C   UNL     1      -0.076  -5.024  -2.959  0.00  0.00    +0.006 A 
ATOM     24 CL   UNL     1      -3.768  -6.091  -4.046  0.00  0.00    -0.084 Cl
ENDBRANCH  17  18
BRANCH  17  25
ATOM     25  C   UNL     1       1.104  -1.664  -3.136  0.00  0.00    +0.075 C 
ATOM     26  N   UNL     1       1.200  -0.743  -3.794  0.00  0.00    -0.196 NA
ENDBRANCH  17  25
ENDBRANCH  12  17
ENDBRANCH   1  15
BRANCH   3  27
ATOM     27  N   UNL     1       0.184  -0.359   5.790  0.00  0.00    -0.353 N 
ATOM     28  H   UNL     1      -0.097   0.244   5.085  0.00  0.00    +0.143 HD
ATOM     29  H   UNL     1       0.156  -0.070   6.715  0.00  0.00    +0.143 HD
ENDBRANCH   3  27
BRANCH   4  30
ATOM     30  N   UNL     1       1.014  -2.152   7.807  0.00  0.00    -0.323 N 
ATOM     31  H   UNL     1       0.708  -1.264   8.050  0.00  0.00    +0.148 HD
BRANCH  30  32
ATOM     32  C   UNL     1       1.446  -3.088   8.848  0.00  0.00    +0.138 C 
BRANCH  32  33
ATOM     33  C   UNL     1       1.320  -2.432  10.198  0.00  0.00    -0.030 A 
ATOM     34  C   UNL     1       2.381  -1.714  10.719  0.00  0.00    +0.008 A 
ATOM     35  C   UNL     1       2.266  -1.112  11.958  0.00  0.00    +0.038 A 
ATOM     36  C   UNL     1       1.088  -1.226  12.676  0.00  0.00    +0.123 A 
ATOM     37  C   UNL     1       0.027  -1.945  12.153  0.00  0.00    +0.038 A 
ATOM     38  C   UNL     1       0.142  -2.542  10.913  0.00  0.00    +0.008 A 
ATOM     39  F   UNL     1       0.975  -0.638  13.887  0.00  0.00    -0.205 F 
ENDBRANCH  32  33
ENDBRANCH  30  32
ENDBRANCH   4  30
TORSDOF 8
