REMARK  Name = ZINC14034140
REMARK  11 active torsions:
REMARK  status: ('A' for Active; 'I' for Inactive)
REMARK    1  A    between atoms: C_1  and  C_2
REMARK    2  A    between atoms: C_2  and  C_3
REMARK    3  A    between atoms: C_2  and  C_4
REMARK    4  A    between atoms: C_4  and  C_5
REMARK    5  A    between atoms: C_5  and  O_6
REMARK    6  A    between atoms: O_6  and  C_7
REMARK    7  A    between atoms: C_12  and  C_13
REMARK    8  A    between atoms: N_15  and  C_16
REMARK    9  A    between atoms: C_16  and  N_18
REMARK   10  A    between atoms: N_18  and  C_19
REMARK   11  A    between atoms: C_20  and  C_28
REMARK                            x       y       z     vdW  Elec       q    Type
REMARK                         _______ _______ _______ _____ _____    ______ ____
ROOT
ATOM      1  C   UNL     1      -2.064   1.842   5.838  0.00  0.00    +0.141 C 
ATOM      2  S   UNL     1      -3.043   3.142   5.308  0.00  0.00    -0.018 S 
ENDROOT
BRANCH   1   5
ATOM      3  C   UNL     1      -2.845   2.142   8.017  0.00  0.00    +0.253 C 
ATOM      4  O   UNL     1      -3.541   3.065   7.641  0.00  0.00    -0.270 OA
ATOM      5  N   UNL     1      -2.069   1.480   7.136  0.00  0.00    -0.263 N 
ATOM      6  H   UNL     1      -1.515   0.743   7.436  0.00  0.00    +0.157 HD
BRANCH   3  12
ATOM      7  C   UNL     1      -3.657   2.431  10.357  0.00  0.00    +0.133 A 
ATOM      8  C   UNL     1      -3.654   2.050  11.691  0.00  0.00    +0.046 A 
ATOM      9  C   UNL     1      -2.862   1.000  12.109  0.00  0.00    +0.004 A 
ATOM     10  C   UNL     1      -2.064   0.319  11.203  0.00  0.00    +0.001 A 
ATOM     11  C   UNL     1      -2.058   0.681   9.873  0.00  0.00    +0.017 A 
ATOM     12  C   UNL     1      -2.851   1.745   9.437  0.00  0.00    +0.079 A 
BRANCH   7  13
ATOM     13  O   UNL     1      -4.436   3.462   9.945  0.00  0.00    -0.491 OA
BRANCH  13  14
ATOM     14  C   UNL     1      -5.230   4.113  10.939  0.00  0.00    +0.229 C 
BRANCH  14  15
ATOM     15  C   UNL     1      -6.035   5.241  10.290  0.00  0.00    +0.044 C 
BRANCH  15  17
ATOM     16  C   UNL     1      -5.969   6.626  12.369  0.00  0.00    +0.007 C 
ATOM     17  C   UNL     1      -6.885   5.939  11.354  0.00  0.00    -0.014 C 
ATOM     18  C   UNL     1      -7.781   6.983  10.687  0.00  0.00    +0.007 C 
ENDBRANCH  15  17
ENDBRANCH  14  15
ENDBRANCH  13  14
ENDBRANCH   7  13
ENDBRANCH   3  12
ENDBRANCH   1   5
BRANCH   1  19
ATOM     19  N   UNL     1      -1.288   1.180   4.957  0.00  0.00    -0.291 N 
ATOM     20  H   UNL     1      -0.733   0.443   5.257  0.00  0.00    +0.154 HD
BRANCH  19  21
ATOM     21  C   UNL     1      -1.282   1.552   3.622  0.00  0.00    +0.084 A 
ATOM     22  C   UNL     1      -0.558   0.999   2.575  0.00  0.00    +0.068 A 
ATOM     23  C   UNL     1      -0.732   1.580   1.257  0.00  0.00    -0.023 A 
ATOM     24  C   UNL     1      -1.601   2.615   1.194  0.00  0.00    -0.004 A 
ATOM     25  S   UNL     1      -2.178   2.821   2.855  0.00  0.00    -0.077 S 
ATOM     26  C   UNL     1      -1.979   3.405  -0.021  0.00  0.00    +0.043 C 
ATOM     27  C   UNL     1      -0.956   3.111  -1.127  0.00  0.00    +0.005 C 
ATOM     28  C   UNL     1      -0.758   1.595  -1.227  0.00  0.00    +0.005 C 
ATOM     29  C   UNL     1      -0.013   1.086   0.008  0.00  0.00    +0.037 C 
BRANCH  22  30
ATOM     30  C   UNL     1       0.351  -0.130   2.793  0.00  0.00    +0.244 C 
ATOM     31  O   UNL     1      -0.060  -1.272   2.694  0.00  0.00    -0.270 OA
ATOM     32  N   UNL     1       1.643   0.095   3.104  0.00  0.00    -0.325 N 
ATOM     33  H   UNL     1       1.971   1.005   3.184  0.00  0.00    +0.145 HD
ATOM     34  H   UNL     1       2.245  -0.652   3.248  0.00  0.00    +0.145 HD
ENDBRANCH  22  30
ENDBRANCH  19  21
ENDBRANCH   1  19
TORSDOF 9
