REMARK  Name = ZINC02663179
REMARK  9 active torsions:
REMARK  status: ('A' for Active; 'I' for Inactive)
REMARK    1  A    between atoms: C_1  and  N_2
REMARK    2  A    between atoms: N_2  and  C_3
REMARK    3  A    between atoms: N_2  and  C_12
REMARK    4  A    between atoms: C_3  and  C_4
REMARK    5  A    between atoms: C_7  and  S_10
REMARK    6  A    between atoms: S_10  and  C_11
REMARK    7  A    between atoms: C_12  and  C_13
REMARK    8  A    between atoms: C_16  and  C_31
REMARK    9  A    between atoms: C_19  and  C_21
REMARK                            x       y       z     vdW  Elec       q    Type
REMARK                         _______ _______ _______ _____ _____    ______ ____
ROOT
ATOM      1  C   UNL     1       2.137  -0.060  -1.158  0.00  0.00    +0.216 C 
ATOM      2  O   UNL     1       2.554   0.571  -0.210  0.00  0.00    -0.276 OA
ATOM      3  N   UNL     1       2.967  -0.387  -2.168  0.00  0.00    -0.213 N 
ATOM      4  C   UNL     1       4.399  -0.065  -2.276  0.00  0.00    +0.151 C 
ATOM      5  C   UNL     1       4.830  -0.666  -3.595  0.00  0.00    +0.027 C 
ATOM      6  C   UNL     1       3.761  -1.243  -4.137  0.00  0.00    +0.050 C 
ATOM      7  N   UNL     1       2.643  -1.107  -3.326  0.00  0.00    -0.261 N 
ATOM      8  H   UNL     1       1.763  -1.458  -3.532  0.00  0.00    +0.170 HD
ENDROOT
BRANCH   6   9
ATOM      9  C   UNL     1       3.765  -1.948  -5.440  0.00  0.00    -0.002 A 
ATOM     10  C   UNL     1       4.956  -2.038  -6.179  0.00  0.00    +0.010 A 
ATOM     11  C   UNL     1       4.986  -2.679  -7.376  0.00  0.00    +0.009 A 
ATOM     12  C   UNL     1       3.814  -3.263  -7.890  0.00  0.00    -0.018 A 
ATOM     13  C   UNL     1       3.819  -3.932  -9.126  0.00  0.00    +0.008 A 
ATOM     14  C   UNL     1       2.669  -4.488  -9.597  0.00  0.00    +0.001 A 
ATOM     15  C   UNL     1       1.482  -4.404  -8.872  0.00  0.00    +0.001 A 
ATOM     16  C   UNL     1       1.438  -3.764  -7.672  0.00  0.00    +0.008 A 
ATOM     17  C   UNL     1       2.606  -3.178  -7.153  0.00  0.00    -0.017 A 
ATOM     18  C   UNL     1       2.597  -2.515  -5.916  0.00  0.00    +0.018 A 
ENDBRANCH   6   9
BRANCH   4  19
ATOM     19  C   UNL     1       4.603   1.428  -2.285  0.00  0.00    -0.021 A 
ATOM     20  C   UNL     1       3.728   2.241  -2.982  0.00  0.00    +0.006 A 
ATOM     21  C   UNL     1       3.915   3.610  -2.990  0.00  0.00    +0.000 A 
ATOM     22  C   UNL     1       4.976   4.168  -2.301  0.00  0.00    +0.000 A 
ATOM     23  C   UNL     1       5.850   3.355  -1.603  0.00  0.00    +0.000 A 
ATOM     24  C   UNL     1       5.661   1.986  -1.591  0.00  0.00    +0.006 A 
ENDBRANCH   4  19
BRANCH   1  25
ATOM     25  C   UNL     1       0.690  -0.478  -1.207  0.00  0.00    +0.020 C 
BRANCH  25  27
ATOM     26  C   UNL     1      -0.018   1.465   0.010  0.00  0.00    -0.095 C 
ATOM     27  N   UNL     1       0.002  -0.004   0.002  0.00  0.00    +0.386 N 
ATOM     28  H   UNL     1       0.490  -0.338   0.820  0.00  0.00    -0.081 HD
BRANCH  27  29
ATOM     29  C   UNL     1      -1.376  -0.512   0.012  0.00  0.00    -0.043 C 
BRANCH  29  30
ATOM     30  C   UNL     1      -2.043  -0.130   1.309  0.00  0.00    -0.064 A 
ATOM     31  C   UNL     1      -1.962  -0.974   2.401  0.00  0.00    +0.003 A 
ATOM     32  C   UNL     1      -2.572  -0.627   3.590  0.00  0.00    +0.015 A 
ATOM     33  C   UNL     1      -3.268   0.572   3.689  0.00  0.00    +0.008 A 
ATOM     34  C   UNL     1      -3.346   1.418   2.589  0.00  0.00    +0.015 A 
ATOM     35  C   UNL     1      -2.729   1.067   1.405  0.00  0.00    +0.003 A 
BRANCH  33  36
ATOM     36  S   UNL     1      -4.048   1.019   5.204  0.00  0.00    -0.129 S 
ATOM     37  C   UNL     1      -4.808   2.627   4.848  0.00  0.00    +0.090 C 
ENDBRANCH  33  36
ENDBRANCH  29  30
ENDBRANCH  27  29
ENDBRANCH  25  27
ENDBRANCH   1  25
TORSDOF 7
