REMARK  Name = ZINC01504449
REMARK  3 active torsions:
REMARK  status: ('A' for Active; 'I' for Inactive)
REMARK    1  A    between atoms: C_1  and  C_2
REMARK    2  A    between atoms: C_7  and  C_10
REMARK    3  A    between atoms: C_23  and  C_24
REMARK                            x       y       z     vdW  Elec       q    Type
REMARK                         _______ _______ _______ _____ _____    ______ ____
ROOT
ATOM      1  C   UNL     1      -0.018   1.503   0.010  0.00  0.00    +0.044 C 
ATOM      2  C   UNL     1       0.002  -0.004   0.002  0.00  0.00    -0.047 C 
ATOM      3  C   UNL     1       0.006  -0.680  -1.197  0.00  0.00    +0.019 C 
ATOM      4  C   UNL     1       0.025  -2.078  -1.212  0.00  0.00    +0.067 C 
ATOM      5  C   UNL     1       0.029  -2.805  -2.489  0.00  0.00    +0.169 C 
ATOM      6  C   UNL     1       0.021  -2.232  -3.751  0.00  0.00    +0.078 C 
ATOM      7  C   UNL     1       0.029  -3.255  -4.688  0.00  0.00    +0.083 C 
ATOM      8  N   UNL     1       0.041  -4.428  -4.021  0.00  0.00    -0.221 N 
ATOM      9  O   UNL     1       0.047  -4.138  -2.635  0.00  0.00    -0.379 OA
ATOM     10  C   UNL     1       0.040  -2.785   0.011  0.00  0.00    +0.190 C 
ATOM     11  O   UNL     1       0.059  -4.119   0.017  0.00  0.00    -0.287 OA
ATOM     12  C   UNL     1       0.036  -2.075   1.217  0.00  0.00    +0.055 C 
ATOM     13  C   UNL     1       0.023  -0.699   1.204  0.00  0.00    -0.044 C 
ATOM     14  C   UNL     1       0.025   0.061   2.506  0.00  0.00    +0.044 C 
ATOM     15  H   UNL     1       0.048  -5.312  -4.420  0.00  0.00    +0.207 HD
ENDROOT
BRANCH   7  16
ATOM     16  C   UNL     1       0.025  -3.089  -6.155  0.00  0.00    +0.005 A 
ATOM     17  C   UNL     1       0.017  -1.810  -6.716  0.00  0.00    +0.014 A 
ATOM     18  C   UNL     1       0.012  -1.658  -8.085  0.00  0.00    +0.050 A 
ATOM     19  C   UNL     1       0.014  -2.774  -8.914  0.00  0.00    +0.162 A 
ATOM     20  C   UNL     1       0.023  -4.053  -8.361  0.00  0.00    +0.163 A 
ATOM     21  C   UNL     1       0.033  -4.211  -6.987  0.00  0.00    +0.059 A 
ATOM     22  O   UNL     1       0.033  -5.156  -9.159  0.00  0.00    -0.485 OA
ATOM     23  C   UNL     1      -0.347  -4.965 -10.526  0.00  0.00    +0.270 C 
ATOM     24  C   UNL     1       0.387  -3.727 -11.059  0.00  0.00    +0.270 C 
ATOM     25  O   UNL     1       0.004  -2.601 -10.262  0.00  0.00    -0.485 OA
ENDBRANCH   7  16
TORSDOF 1
