REMARK  Name = ZINC33057919
REMARK  8 active torsions:
REMARK  status: ('A' for Active; 'I' for Inactive)
REMARK    1  A    between atoms: C_1  and  C_2
REMARK    2  A    between atoms: C_7  and  N_8
REMARK    3  A    between atoms: C_9  and  C_11
REMARK    4  A    between atoms: C_11  and  C_13
REMARK    5  A    between atoms: C_11  and  N_14
REMARK    6  A    between atoms: C_19  and  C_21
REMARK    7  A    between atoms: N_23  and  C_30
REMARK    8  A    between atoms: C_24  and  N_25
REMARK                            x       y       z     vdW  Elec       q    Type
REMARK                         _______ _______ _______ _____ _____    ______ ____
ROOT
ATOM      1  N   UNL     1       3.599   1.727   0.091  0.00  0.00    -0.217 N 
ATOM      2  C   UNL     1       4.433   1.745   1.151  0.00  0.00    +0.281 A 
ATOM      3  O   UNL     1       4.239   1.014   2.106  0.00  0.00    -0.265 OA
ATOM      4  C   UNL     1       5.577   2.655   1.131  0.00  0.00    +0.112 A 
ATOM      5  C   UNL     1       5.747   3.515  -0.054  0.00  0.00    +0.123 A 
ATOM      6  C   UNL     1       4.759   3.394  -1.131  0.00  0.00    +0.086 A 
ATOM      7  N   UNL     1       3.780   2.550  -1.018  0.00  0.00    -0.171 NA
ATOM      8  C   UNL     1       4.881   4.248  -2.367  0.00  0.00    +0.070 C 
ATOM      9  N   UNL     1       6.821   4.239   0.150  0.00  0.00    -0.162 NA
ATOM     10  N   UNL     1       7.370   3.909   1.395  0.00  0.00    -0.215 N 
ATOM     11  C   UNL     1       6.620   2.954   1.986  0.00  0.00    +0.154 A 
ENDROOT
BRANCH  10  12
ATOM     12  C   UNL     1       8.523   4.482   1.945  0.00  0.00    +0.068 A 
ATOM     13  C   UNL     1       8.610   4.693   3.315  0.00  0.00    +0.028 A 
ATOM     14  C   UNL     1       9.751   5.254   3.855  0.00  0.00    +0.002 A 
ATOM     15  C   UNL     1      10.801   5.617   3.031  0.00  0.00    +0.000 A 
ATOM     16  C   UNL     1      10.715   5.413   1.666  0.00  0.00    +0.002 A 
ATOM     17  C   UNL     1       9.579   4.847   1.121  0.00  0.00    +0.028 A 
ENDBRANCH  10  12
BRANCH  11  18
ATOM     18  N   UNL     1       6.854   2.378   3.230  0.00  0.00    -0.307 N 
ATOM     19  C   UNL     1       5.913   2.159   4.197  0.00  0.00    +0.092 A 
ATOM     20  C   UNL     1       6.522   1.582   5.253  0.00  0.00    +0.019 A 
ATOM     21  C   UNL     1       7.888   1.448   4.933  0.00  0.00    +0.019 A 
ATOM     22  C   UNL     1       8.065   1.942   3.692  0.00  0.00    +0.092 A 
ENDBRANCH  11  18
BRANCH   1  23
ATOM     23  C   UNL     1       2.455   0.811   0.110  0.00  0.00    +0.194 C 
ATOM     24  C   UNL     1       2.554  -0.152  -1.075  0.00  0.00    +0.043 C 
BRANCH  23  26
ATOM     25  N   UNL     1      -0.011   0.966   0.007  0.00  0.00    -0.284 N 
ATOM     26  C   UNL     1       1.177   1.603   0.009  0.00  0.00    +0.242 C 
ATOM     27  O   UNL     1       1.217   2.812  -0.070  0.00  0.00    -0.273 OA
ATOM     28  H   UNL     1      -0.046  -0.134  -0.010  0.00  0.00    +0.155 HD
BRANCH  25  35
ATOM     29  C   UNL     1      -2.364  -0.248  -1.036  0.00  0.00    +0.045 C 
ATOM     30  C   UNL     1      -2.371   1.149  -0.472  0.00  0.00    -0.029 A 
ATOM     31  C   UNL     1      -3.543   1.880  -0.450  0.00  0.00    +0.005 A 
ATOM     32  C   UNL     1      -3.551   3.161   0.068  0.00  0.00    +0.000 A 
ATOM     33  C   UNL     1      -2.386   3.716   0.567  0.00  0.00    +0.002 A 
ATOM     34  C   UNL     1      -1.213   2.989   0.553  0.00  0.00    +0.023 A 
ATOM     35  C   UNL     1      -1.200   1.703   0.028  0.00  0.00    +0.036 A 
ENDBRANCH  25  35
ENDBRANCH  23  26
ENDBRANCH   1  23
TORSDOF 5
