REMARK  Name = ZINC63708187
REMARK  9 active torsions:
REMARK  status: ('A' for Active; 'I' for Inactive)
REMARK    1  A    between atoms: C_1  and  C_2
REMARK    2  A    between atoms: C_5  and  C_8
REMARK    3  A    between atoms: C_8  and  S_9
REMARK    4  A    between atoms: S_9  and  C_10
REMARK    5  A    between atoms: C_22  and  C_24
REMARK    6  A    between atoms: C_24  and  C_25
REMARK    7  A    between atoms: C_25  and  C_26
REMARK    8  A    between atoms: C_27  and  C_33
REMARK    9  A    between atoms: C_30  and  C_32
REMARK                            x       y       z     vdW  Elec       q    Type
REMARK                         _______ _______ _______ _____ _____    ______ ____
ROOT
ATOM      1  C   UNL     1       1.628  -6.666  -0.043  0.00  0.00    +0.248 C 
ATOM      2  N   UNL     1       0.988  -7.049  -1.308  0.00  0.00    -0.356 N 
ATOM      3  C   UNL     1      -0.140  -7.746  -1.286  0.00  0.00    +0.048 A 
ATOM      4  C   UNL     1      -0.773  -8.126  -2.490  0.00  0.00    +0.026 A 
ATOM      5  C   UNL     1      -1.929  -8.840  -2.445  0.00  0.00    +0.002 A 
ATOM      6  C   UNL     1      -2.511  -9.211  -1.236  0.00  0.00    +0.001 A 
ATOM      7  C   UNL     1      -1.951  -8.876  -0.041  0.00  0.00    +0.013 A 
ATOM      8  C   UNL     1      -0.755  -8.138  -0.014  0.00  0.00    +0.038 A 
ATOM      9  C   UNL     1      -0.160  -7.782   1.213  0.00  0.00    +0.128 C 
ATOM     10  N   UNL     1       1.004  -7.061   1.219  0.00  0.00    -0.204 N 
ATOM     11  N   UNL     1       1.340  -6.866   2.564  0.00  0.00    -0.249 N 
ATOM     12  C   UNL     1       0.374  -7.468   3.293  0.00  0.00    +0.090 C 
ATOM     13  N   UNL     1      -0.504  -8.007   2.487  0.00  0.00    -0.332 N 
ATOM     14  H   UNL     1       2.114  -6.392   2.906  0.00  0.00    +0.171 HD
ATOM     15  H   UNL     1       1.388  -6.795  -2.154  0.00  0.00    +0.162 HD
ATOM     16  H   UNL     1      -1.292  -8.496   2.771  0.00  0.00    +0.168 HD
ENDROOT
BRANCH   1  17
ATOM     17  S   UNL     1       1.777  -4.858  -0.034  0.00  0.00    -0.111 S 
BRANCH  17  18
ATOM     18  C   UNL     1       0.059  -4.275  -0.021  0.00  0.00    +0.107 C 
BRANCH  18  23
ATOM     19  C   UNL     1      -0.018   1.503   0.010  0.00  0.00    +0.044 C 
ATOM     20  C   UNL     1       0.002  -0.004   0.002  0.00  0.00    -0.050 A 
ATOM     21  C   UNL     1       0.006  -0.689  -1.199  0.00  0.00    +0.003 A 
ATOM     22  C   UNL     1       0.025  -2.071  -1.206  0.00  0.00    +0.005 A 
ATOM     23  C   UNL     1       0.040  -2.768  -0.013  0.00  0.00    -0.037 A 
ATOM     24  C   UNL     1       0.037  -2.084   1.188  0.00  0.00    +0.005 A 
ATOM     25  C   UNL     1       0.023  -0.702   1.195  0.00  0.00    +0.003 A 
ENDBRANCH  18  23
ENDBRANCH  17  18
ENDBRANCH   1  17
BRANCH  12  26
ATOM     26  C   UNL     1       0.319  -7.516   4.798  0.00  0.00    +0.075 C 
BRANCH  26  27
ATOM     27  C   UNL     1      -0.457  -6.305   5.319  0.00  0.00    +0.042 C 
BRANCH  27  28
ATOM     28  C   UNL     1      -0.512  -6.352   6.824  0.00  0.00    -0.021 C 
ATOM     29  C   UNL     1       0.297  -5.746   7.696  0.00  0.00    +0.061 C 
ATOM     30  N   UNL     1      -0.069  -6.028   8.966  0.00  0.00    -0.159 NA
ATOM     31  N   UNL     1      -1.051  -6.768   9.064  0.00  0.00    -0.180 NA
ATOM     32  C   UNL     1      -1.504  -7.095   7.702  0.00  0.00    +0.153 C 
ATOM     33  C   UNL     1      -1.422  -8.603   7.454  0.00  0.00    +0.039 C 
ATOM     34  C   UNL     1       1.461  -4.868   7.316  0.00  0.00    +0.067 C 
ENDBRANCH  27  28
ENDBRANCH  26  27
ENDBRANCH  12  26
TORSDOF 6
