REMARK  Name = ZINC01436544
REMARK  10 active torsions:
REMARK  status: ('A' for Active; 'I' for Inactive)
REMARK    1  A    between atoms: C_1  and  C_2
REMARK    2  A    between atoms: C_5  and  N_9
REMARK    3  A    between atoms: C_6  and  C_8
REMARK    4  A    between atoms: C_10  and  C_12
REMARK    5  A    between atoms: C_12  and  C_14
REMARK    6  A    between atoms: C_12  and  N_25
REMARK    7  A    between atoms: C_14  and  C_15
REMARK    8  A    between atoms: C_26  and  O_28
REMARK    9  A    between atoms: O_28  and  C_29
REMARK   10  A    between atoms: C_29  and  C_30
REMARK                            x       y       z     vdW  Elec       q    Type
REMARK                         _______ _______ _______ _____ _____    ______ ____
ROOT
ATOM      1  C   UNL     1       2.425   1.191  -0.029  0.00  0.00    +0.167 C 
ENDROOT
BRANCH   1   3
ATOM      2  N   UNL     1       4.761   1.608   0.670  0.00  0.00    -0.284 N 
ATOM      3  C   UNL     1       3.495   2.062   0.577  0.00  0.00    +0.238 C 
ATOM      4  O   UNL     1       3.217   3.171   0.982  0.00  0.00    -0.273 OA
ATOM      5  H   UNL     1       4.968   0.694   0.421  0.00  0.00    +0.155 HD
BRANCH   2  10
ATOM      6  C   UNL     1       8.879   5.048   2.514  0.00  0.00    +0.044 C 
ATOM      7  C   UNL     1       7.785   4.134   2.024  0.00  0.00    -0.050 A 
ATOM      8  C   UNL     1       6.648   4.667   1.444  0.00  0.00    +0.005 A 
ATOM      9  C   UNL     1       5.644   3.833   0.995  0.00  0.00    +0.024 A 
ATOM     10  C   UNL     1       5.777   2.457   1.125  0.00  0.00    +0.036 A 
ATOM     11  C   UNL     1       6.917   1.924   1.712  0.00  0.00    -0.029 A 
ATOM     12  C   UNL     1       7.920   2.764   2.155  0.00  0.00    +0.008 A 
ATOM     13  C   UNL     1       7.062   0.432   1.861  0.00  0.00    +0.045 C 
ENDBRANCH   2  10
ENDBRANCH   1   3
BRANCH   1  14
ATOM     14  N   UNL     1       1.147   1.906  -0.014  0.00  0.00    -0.269 N 
ATOM     15  C   UNL     1      -0.011   1.217  -0.017  0.00  0.00    +0.401 C 
ATOM     16  O   UNL     1       0.005   0.002  -0.031  0.00  0.00    -0.226 OA
ATOM     17  H   UNL     1       1.134   2.876  -0.002  0.00  0.00    +0.153 HD
BRANCH  15  18
ATOM     18  O   UNL     1      -1.186   1.874  -0.009  0.00  0.00    -0.446 OA
BRANCH  18  19
ATOM     19  C   UNL     1      -2.393   1.067  -0.018  0.00  0.00    +0.269 C 
BRANCH  19  20
ATOM     20  C   UNL     1      -3.600   1.969  -0.008  0.00  0.00    -0.010 A 
ATOM     21  C   UNL     1      -4.158   2.364   1.194  0.00  0.00    +0.007 A 
ATOM     22  C   UNL     1      -5.262   3.195   1.204  0.00  0.00    +0.000 A 
ATOM     23  C   UNL     1      -5.816   3.624   0.012  0.00  0.00    +0.000 A 
ATOM     24  C   UNL     1      -5.262   3.224  -1.190  0.00  0.00    +0.000 A 
ATOM     25  C   UNL     1      -4.154   2.397  -1.200  0.00  0.00    +0.007 A 
ENDBRANCH  19  20
ENDBRANCH  18  19
ENDBRANCH  15  18
ENDBRANCH   1  14
BRANCH   1  26
ATOM     26  C   UNL     1       2.802   0.849  -1.472  0.00  0.00    +0.069 C 
BRANCH  26  27
ATOM     27  C   UNL     1       1.796  -0.120  -2.037  0.00  0.00    -0.020 A 
ATOM     28  C   UNL     1       1.906  -1.458  -2.068  0.00  0.00    +0.087 A 
ATOM     29  N   UNL     1       0.798  -2.003  -2.657  0.00  0.00    -0.360 N 
ATOM     30  H   UNL     1       0.649  -2.952  -2.793  0.00  0.00    +0.165 HD
ATOM     31  C   UNL     1      -0.074  -1.005  -3.030  0.00  0.00    +0.047 A 
ATOM     32  C   UNL     1       0.510   0.218  -2.653  0.00  0.00    +0.003 A 
ATOM     33  C   UNL     1      -0.160   1.417  -2.904  0.00  0.00    +0.010 A 
ATOM     34  C   UNL     1      -1.383   1.396  -3.513  0.00  0.00    +0.001 A 
ATOM     35  C   UNL     1      -1.965   0.192  -3.884  0.00  0.00    +0.002 A 
ATOM     36  C   UNL     1      -1.318  -1.002  -3.652  0.00  0.00    +0.026 A 
ENDBRANCH  26  27
ENDBRANCH   1  26
TORSDOF 8
