REMARK  Name = ZINC04280700
REMARK  6 active torsions:
REMARK  status: ('A' for Active; 'I' for Inactive)
REMARK    1  A    between atoms: C_1  and  C_2
REMARK    2  A    between atoms: C_2  and  C_4
REMARK    3  A    between atoms: C_4  and  O_30
REMARK    4  A    between atoms: C_10  and  C_28
REMARK    5  A    between atoms: C_20  and  C_27
REMARK    6  A    between atoms: C_23  and  O_26
REMARK                            x       y       z     vdW  Elec       q    Type
REMARK                         _______ _______ _______ _____ _____    ______ ____
ROOT
ATOM      1  C   UNL     1      -5.245  -2.852  -5.825  0.00  0.00    +0.141 C 
ATOM      2  C   UNL     1      -4.727  -4.312  -5.867  0.00  0.00    +0.096 C 
ATOM      3  C   UNL     1      -3.590  -4.403  -4.813  0.00  0.00    +0.022 C 
ATOM      4  C   UNL     1      -3.753  -3.109  -4.003  0.00  0.00    +0.003 C 
ATOM      5  C   UNL     1      -4.120  -2.087  -5.097  0.00  0.00    +0.008 C 
ATOM      6  C   UNL     1      -4.538  -0.771  -4.493  0.00  0.00    +0.010 C 
ATOM      7  C   UNL     1      -3.701  -0.436  -3.250  0.00  0.00    +0.005 C 
ATOM      8  C   UNL     1      -2.368  -1.166  -3.255  0.00  0.00    +0.003 C 
ATOM      9  C   UNL     1      -2.597  -2.681  -3.158  0.00  0.00    +0.000 C 
ATOM     10  C   UNL     1      -1.272  -3.363  -3.503  0.00  0.00    +0.031 C 
ATOM     11  C   UNL     1      -0.253  -2.876  -2.505  0.00  0.00    -0.027 C 
ATOM     12  C   UNL     1      -0.350  -1.738  -1.889  0.00  0.00    -0.065 C 
ATOM     13  C   UNL     1      -1.464  -0.742  -2.104  0.00  0.00    -0.008 C 
ATOM     14  C   UNL     1      -2.224  -0.569  -0.795  0.00  0.00    +0.014 C 
ATOM     15  C   UNL     1      -1.481  -1.266   0.344  0.00  0.00    +0.032 C 
ATOM     16  C   UNL     1      -0.007  -0.879   0.393  0.00  0.00    +0.119 C 
ATOM     17  C   UNL     1       0.714  -1.351  -0.876  0.00  0.00    +0.062 C 
ATOM     18  C   UNL     1      -0.838   0.606  -2.486  0.00  0.00    +0.016 C 
ATOM     19  C   UNL     1      -2.993  -1.888  -6.114  0.00  0.00    +0.015 C 
ATOM     20 BR   UNL     1      -6.182  -5.550  -5.399  0.00  0.00    -0.085 Br
ENDROOT
BRANCH   1  22
ATOM     21  C   UNL     1      -6.799  -2.250  -7.831  0.00  0.00    +0.089 C 
ATOM     22  C   UNL     1      -5.424  -2.309  -7.216  0.00  0.00    +0.163 C 
ATOM     23  O   UNL     1      -4.466  -1.921  -7.840  0.00  0.00    -0.295 OA
ENDBRANCH   1  22
BRANCH  16  24
ATOM     24  O   UNL     1       0.121   0.537   0.529  0.00  0.00    -0.391 OA
ATOM     25  H   UNL     1       1.036   0.845   0.594  0.00  0.00    +0.210 HD
ENDBRANCH  16  24
BRANCH   1  26
ATOM     26  O   UNL     1      -6.458  -2.776  -5.085  0.00  0.00    -0.379 OA
ATOM     27  H   UNL     1      -7.200  -3.240  -5.497  0.00  0.00    +0.211 HD
ENDBRANCH   1  26
TORSDOF 3
