REMARK  Name = ZINC63513568
REMARK  8 active torsions:
REMARK  status: ('A' for Active; 'I' for Inactive)
REMARK    1  A    between atoms: C_1  and  C_2
REMARK    2  A    between atoms: C_5  and  C_35
REMARK    3  A    between atoms: N_6  and  C_7
REMARK    4  A    between atoms: C_11  and  N_14
REMARK    5  A    between atoms: C_18  and  C_21
REMARK    6  A    between atoms: N_23  and  C_24
REMARK    7  A    between atoms: C_24  and  C_25
REMARK    8  A    between atoms: C_25  and  C_26
REMARK                            x       y       z     vdW  Elec       q    Type
REMARK                         _______ _______ _______ _____ _____    ______ ____
ROOT
ATOM      1  N   UNL     1      -3.953  -0.853   4.096  0.00  0.00    -0.270 NA
ATOM      2  C   UNL     1      -4.288  -1.316   2.744  0.00  0.00    +0.087 C 
ATOM      3  C   UNL     1      -5.704  -1.897   2.739  0.00  0.00    +0.016 C 
ATOM      4  C   UNL     1      -6.694  -0.819   3.190  0.00  0.00    +0.015 C 
ATOM      5  C   UNL     1      -6.294  -0.319   4.581  0.00  0.00    +0.089 C 
ATOM      6  C   UNL     1      -4.861   0.216   4.532  0.00  0.00    +0.100 C 
ENDROOT
BRANCH   1  10
ATOM      7  C   UNL     1      -0.418  -0.405   2.473  0.00  0.00    +0.289 C 
ATOM      8  N   UNL     1      -1.349   0.746   2.525  0.00  0.00    -0.153 NA
ATOM      9  N   UNL     1      -2.300   0.741   3.281  0.00  0.00    -0.159 NA
ATOM     10  C   UNL     1      -2.552  -0.416   4.171  0.00  0.00    +0.260 C 
ATOM     11  S   UNL     1      -1.416  -1.655   3.399  0.00  0.00    -0.067 S 
BRANCH   7  17
ATOM     12  C   UNL     1       0.173  -3.317   1.587  0.00  0.00    +0.063 C 
ATOM     13  C   UNL     1       0.086  -2.109   0.691  0.00  0.00    +0.019 A 
ATOM     14  C   UNL     1       0.248  -2.105  -0.648  0.00  0.00    +0.023 A 
ATOM     15  C   UNL     1       0.086  -0.776  -1.088  0.00  0.00    +0.023 A 
ATOM     16  C   UNL     1      -0.169  -0.019  -0.002  0.00  0.00    +0.019 A 
ATOM     17  N   UNL     1      -0.175  -0.832   1.093  0.00  0.00    -0.316 N 
ATOM     18  C   UNL     1      -0.410   1.468   0.002  0.00  0.00    +0.063 C 
ENDBRANCH   7  17
ENDBRANCH   1  10
BRANCH   5  19
ATOM     19  C   UNL     1      -7.229   0.783   5.007  0.00  0.00    +0.217 C 
ATOM     20  O   UNL     1      -6.793   1.888   5.252  0.00  0.00    -0.275 OA
ATOM     21  N   UNL     1      -8.550   0.541   5.117  0.00  0.00    -0.315 N 
ATOM     22  H   UNL     1      -8.899  -0.343   4.921  0.00  0.00    +0.149 HD
BRANCH  21  23
ATOM     23  C   UNL     1      -9.459   1.612   5.532  0.00  0.00    +0.108 C 
BRANCH  23  24
ATOM     24  C   UNL     1     -10.892   1.077   5.575  0.00  0.00    +0.052 C 
BRANCH  24  25
ATOM     25  C   UNL     1     -11.827   2.179   6.002  0.00  0.00    -0.040 C 
ATOM     26  C   UNL     1     -12.546   2.993   5.196  0.00  0.00    -0.001 A 
ATOM     27  C   UNL     1     -12.667   3.094   3.737  0.00  0.00    +0.010 A 
ATOM     28  C   UNL     1     -13.485   4.032   3.209  0.00  0.00    +0.001 A 
ATOM     29  C   UNL     1     -14.218   4.910   4.019  0.00  0.00    +0.002 A 
ATOM     30  C   UNL     1     -14.159   4.879   5.367  0.00  0.00    +0.026 A 
ATOM     31  C   UNL     1     -13.331   3.932   6.029  0.00  0.00    +0.043 A 
ATOM     32  N   UNL     1     -13.107   3.706   7.301  0.00  0.00    -0.380 N 
ATOM     33  C   UNL     1     -12.157   2.594   7.418  0.00  0.00    +0.144 C 
ATOM     34  H   UNL     1     -13.505   4.191   8.041  0.00  0.00    +0.160 HD
ENDBRANCH  24  25
ENDBRANCH  23  24
ENDBRANCH  21  23
ENDBRANCH   5  19
TORSDOF 6
