REMARK  Name = ZINC13955952
REMARK  12 active torsions:
REMARK  status: ('A' for Active; 'I' for Inactive)
REMARK    1  A    between atoms: C_1  and  C_2
REMARK    2  A    between atoms: C_2  and  N_3
REMARK    3  A    between atoms: C_4  and  C_25
REMARK    4  A    between atoms: C_7  and  S_8
REMARK    5  A    between atoms: S_8  and  C_9
REMARK    6  A    between atoms: C_9  and  C_10
REMARK    7  A    between atoms: C_15  and  C_18
REMARK    8  A    between atoms: C_21  and  C_24
REMARK    9  A    between atoms: C_25  and  C_26
REMARK   10  A    between atoms: N_28  and  C_29
REMARK   11  A    between atoms: C_32  and  C_36
REMARK   12  A    between atoms: C_33  and  C_35
REMARK                            x       y       z     vdW  Elec       q    Type
REMARK                         _______ _______ _______ _____ _____    ______ ____
ROOT
ATOM      1  N   UNL     1      -6.583   2.374  -1.388  0.00  0.00    -0.306 N 
ATOM      2  C   UNL     1      -6.055   2.895  -0.239  0.00  0.00    +0.143 A 
ATOM      3  N   UNL     1      -6.718   2.382   0.759  0.00  0.00    -0.133 NA
ATOM      4  N   UNL     1      -7.618   1.576   0.323  0.00  0.00    -0.122 NA
ATOM      5  C   UNL     1      -7.579   1.530  -0.988  0.00  0.00    +0.192 A 
ENDROOT
BRANCH   1   7
ATOM      6  C   UNL     1      -5.076   1.670  -3.181  0.00  0.00    +0.027 C 
ATOM      7  C   UNL     1      -6.165   2.660  -2.763  0.00  0.00    +0.122 C 
ENDBRANCH   1   7
BRANCH   5   8
ATOM      8  S   UNL     1      -8.618   0.565  -2.034  0.00  0.00    -0.077 S 
BRANCH   8   9
ATOM      9  C   UNL     1      -9.649  -0.249  -0.789  0.00  0.00    +0.173 C 
BRANCH   9  10
ATOM     10  C   UNL     1     -10.643  -1.152  -1.472  0.00  0.00    +0.229 C 
ATOM     11  O   UNL     1     -10.654  -1.237  -2.682  0.00  0.00    -0.275 OA
ATOM     12  N   UNL     1     -11.520  -1.866  -0.739  0.00  0.00    -0.264 N 
ATOM     13  C   UNL     1     -12.437  -2.698  -1.369  0.00  0.00    +0.165 A 
ATOM     14  N   UNL     1     -13.367  -3.470  -0.838  0.00  0.00    -0.225 NA
ATOM     15  C   UNL     1     -14.165  -4.207  -1.596  0.00  0.00    +0.080 A 
ATOM     16  C   UNL     1     -14.023  -4.167  -2.955  0.00  0.00    +0.076 A 
ATOM     17  S   UNL     1     -12.676  -3.002  -3.114  0.00  0.00    -0.060 S 
ATOM     18  H   UNL     1     -11.511  -1.798   0.229  0.00  0.00    +0.157 HD
BRANCH  15  19
ATOM     19  C   UNL     1     -15.203  -5.066  -0.976  0.00  0.00    +0.001 A 
ATOM     20  C   UNL     1     -16.045  -5.835  -1.778  0.00  0.00    +0.010 A 
ATOM     21  C   UNL     1     -17.005  -6.637  -1.196  0.00  0.00    +0.004 A 
ATOM     22  C   UNL     1     -17.140  -6.671   0.180  0.00  0.00    -0.050 A 
ATOM     23  C   UNL     1     -16.311  -5.905   0.981  0.00  0.00    +0.004 A 
ATOM     24  C   UNL     1     -15.344  -5.104   0.410  0.00  0.00    +0.010 A 
ATOM     25  C   UNL     1     -18.195  -7.544   0.810  0.00  0.00    +0.044 C 
ENDBRANCH  15  19
ENDBRANCH   9  10
ENDBRANCH   8   9
ENDBRANCH   5   8
BRANCH   2  26
ATOM     26  C   UNL     1      -4.921   3.883  -0.145  0.00  0.00    +0.172 C 
BRANCH  26  27
ATOM     27  C   UNL     1      -3.614   3.140  -0.048  0.00  0.00    +0.225 C 
ATOM     28  O   UNL     1      -3.604   1.927  -0.055  0.00  0.00    -0.275 OA
ATOM     29  N   UNL     1      -2.456   3.823   0.046  0.00  0.00    -0.285 N 
ATOM     30  H   UNL     1      -2.468   4.790   0.128  0.00  0.00    +0.155 HD
BRANCH  29  31
ATOM     31  C   UNL     1      -1.236   3.138   0.025  0.00  0.00    +0.034 A 
ATOM     32  C   UNL     1      -1.099   1.984  -0.735  0.00  0.00    +0.023 A 
ATOM     33  C   UNL     1       0.105   1.307  -0.749  0.00  0.00    +0.005 A 
ATOM     34  C   UNL     1       1.177   1.784  -0.017  0.00  0.00    -0.047 A 
ATOM     35  C   UNL     1       1.045   2.937   0.736  0.00  0.00    -0.046 A 
ATOM     36  C   UNL     1      -0.158   3.615   0.758  0.00  0.00    +0.027 A 
ATOM     37  C   UNL     1       2.216   3.453   1.532  0.00  0.00    +0.044 C 
ATOM     38  C   UNL     1       2.490   1.046  -0.039  0.00  0.00    +0.044 C 
ENDBRANCH  29  31
ENDBRANCH  26  27
ENDBRANCH   2  26
TORSDOF 8
