REMARK  Name = ZINC08743400
REMARK  4 active torsions:
REMARK  status: ('A' for Active; 'I' for Inactive)
REMARK    1  A    between atoms: C_8  and  C_26
REMARK    2  A    between atoms: C_10  and  C_17
REMARK    3  A    between atoms: C_21  and  N_23
REMARK    4  A    between atoms: C_26  and  C_28
REMARK                            x       y       z     vdW  Elec       q    Type
REMARK                         _______ _______ _______ _____ _____    ______ ____
ROOT
ATOM      1  C   UNL     1      -3.123   3.877   0.916  0.00  0.00    +0.000 A 
ATOM      2  C   UNL     1      -4.272   4.068   1.662  0.00  0.00    +0.002 A 
ATOM      3  C   UNL     1      -5.038   2.988   2.050  0.00  0.00    +0.023 A 
ATOM      4  C   UNL     1      -4.660   1.696   1.692  0.00  0.00    +0.036 A 
ATOM      5  C   UNL     1      -3.503   1.517   0.940  0.00  0.00    -0.027 A 
ATOM      6  C   UNL     1      -2.740   2.597   0.557  0.00  0.00    +0.004 A 
ATOM      7  C   UNL     1      -3.374   0.033   0.723  0.00  0.00    +0.051 C 
ATOM      8  C   UNL     1      -2.066  -0.501   1.314  0.00  0.00    +0.069 C 
ATOM      9  C   UNL     1      -1.142  -0.749   0.106  0.00  0.00    +0.016 C 
ATOM     10  C   UNL     1      -1.956  -0.343  -1.136  0.00  0.00    -0.059 C 
ATOM     11  C   UNL     1      -3.905  -1.668  -0.927  0.00  0.00    -0.076 C 
ATOM     12  C   UNL     1      -3.263  -2.078  -2.276  0.00  0.00    -0.020 C 
ATOM     13  C   UNL     1      -1.847  -1.466  -2.186  0.00  0.00    -0.016 C 
ATOM     14  C   UNL     1      -4.567  -0.563   1.427  0.00  0.00    +0.212 C 
ATOM     15  O   UNL     1      -4.849  -1.740   1.500  0.00  0.00    -0.277 OA
ATOM     16  N   UNL     1      -5.257   0.463   1.959  0.00  0.00    -0.286 N 
ATOM     17  H   UNL     1      -6.075   0.357   2.470  0.00  0.00    +0.155 HD
ATOM     18  N   UNL     1      -3.340  -0.320  -0.709  0.00  0.00    +0.395 N 
ATOM     19  H   UNL     1      -3.871   0.372  -1.250  0.00  0.00    -0.079 HD
ENDROOT
BRANCH   9  20
ATOM     20  C   UNL     1       0.097   0.101   0.217  0.00  0.00    -0.043 A 
ATOM     21  C   UNL     1       0.043   1.320   0.866  0.00  0.00    +0.004 A 
ATOM     22  C   UNL     1       1.180   2.100   0.967  0.00  0.00    +0.002 A 
ATOM     23  C   UNL     1       2.371   1.660   0.419  0.00  0.00    +0.033 A 
ATOM     24  C   UNL     1       2.425   0.441  -0.230  0.00  0.00    +0.126 A 
ATOM     25  C   UNL     1       1.288  -0.339  -0.331  0.00  0.00    +0.036 A 
BRANCH  24  26
ATOM     26  N   UNL     1       3.699  -0.029  -0.817  0.00  0.00    +0.056 N 
ATOM     27  O   UNL     1       3.747  -1.103  -1.389  0.00  0.00    -0.126 OA
ATOM     28  O   UNL     1       4.701   0.658  -0.728  0.00  0.00    -0.126 OA
ENDBRANCH  24  26
ENDBRANCH   9  20
BRANCH   8  29
ATOM     29  C   UNL     1      -2.316  -1.790   2.054  0.00  0.00    +0.166 C 
ATOM     30  O   UNL     1      -2.259  -2.848   1.464  0.00  0.00    -0.292 OA
BRANCH  29  31
ATOM     31  C   UNL     1      -2.628  -1.764   3.489  0.00  0.00    +0.021 A 
ATOM     32  C   UNL     1      -2.689  -0.544   4.173  0.00  0.00    +0.015 A 
ATOM     33  C   UNL     1      -2.987  -0.523   5.516  0.00  0.00    +0.050 A 
ATOM     34  C   UNL     1      -3.217  -1.710   6.201  0.00  0.00    +0.166 A 
ATOM     35  C   UNL     1      -3.153  -2.931   5.527  0.00  0.00    +0.167 A 
ATOM     36  C   UNL     1      -2.861  -2.960   4.178  0.00  0.00    +0.061 A 
ATOM     37  O   UNL     1      -3.416  -3.933   6.416  0.00  0.00    -0.453 OA
ATOM     38  C   UNL     1      -4.042  -3.292   7.543  0.00  0.00    +0.466 C 
ATOM     39  O   UNL     1      -3.518  -1.951   7.508  0.00  0.00    -0.453 OA
ENDBRANCH  29  31
ENDBRANCH   8  29
TORSDOF 4
