REMARK  Name = ZINC39843514
REMARK  4 active torsions:
REMARK  status: ('A' for Active; 'I' for Inactive)
REMARK    1  A    between atoms: N_14  and  N_15
REMARK    2  A    between atoms: C_20  and  C_23
REMARK    3  A    between atoms: C_23  and  C_24
REMARK    4  A    between atoms: N_26  and  C_27
REMARK                            x       y       z     vdW  Elec       q    Type
REMARK                         _______ _______ _______ _____ _____    ______ ____
ROOT
ATOM      1  N   UNL     1       5.700  -1.589  -0.051  0.00  0.00    -0.126 NA
ATOM      2  C   UNL     1       6.991  -1.289  -0.067  0.00  0.00    +0.183 C 
ATOM      3  N   UNL     1       7.572  -0.044  -0.068  0.00  0.00    -0.263 N 
ATOM      4  C   UNL     1       8.883   0.130  -0.085  0.00  0.00    +0.233 C 
ATOM      5  O   UNL     1       9.386   1.233  -0.085  0.00  0.00    -0.274 OA
ATOM      6  C   UNL     1       9.718  -1.140  -0.104  0.00  0.00    +0.149 C 
ATOM      7  S   UNL     1       8.383  -2.408  -0.085  0.00  0.00    -0.075 S 
ATOM      8  H   UNL     1       6.999   0.738  -0.056  0.00  0.00    +0.157 HD
ENDROOT
BRANCH   1  22
ATOM      9  C   UNL     1      -0.030   1.327   0.020  0.00  0.00    +0.001 A 
ATOM     10  C   UNL     1       1.150   2.054   0.006  0.00  0.00    +0.001 A 
ATOM     11  C   UNL     1       2.368   1.407  -0.009  0.00  0.00    +0.011 A 
ATOM     12  C   UNL     1       2.413   0.013  -0.010  0.00  0.00    +0.010 A 
ATOM     13  C   UNL     1       1.215  -0.727   0.004  0.00  0.00    -0.008 A 
ATOM     14  C   UNL     1      -0.005  -0.052   0.019  0.00  0.00    +0.009 A 
ATOM     15  C   UNL     1       1.550  -2.165  -0.001  0.00  0.00    -0.008 A 
ATOM     16  C   UNL     1       0.752  -3.309   0.008  0.00  0.00    +0.009 A 
ATOM     17  C   UNL     1       1.337  -4.558   0.001  0.00  0.00    +0.001 A 
ATOM     18  C   UNL     1       2.717  -4.689  -0.016  0.00  0.00    +0.001 A 
ATOM     19  C   UNL     1       3.525  -3.571  -0.025  0.00  0.00    +0.011 A 
ATOM     20  C   UNL     1       2.951  -2.300  -0.018  0.00  0.00    +0.010 A 
ATOM     21  C   UNL     1       3.535  -0.945  -0.024  0.00  0.00    +0.102 C 
ATOM     22  N   UNL     1       4.819  -0.647  -0.040  0.00  0.00    -0.146 NA
ENDBRANCH   1  22
BRANCH   6  23
ATOM     23  C   UNL     1      10.561  -1.232  -1.377  0.00  0.00    +0.120 C 
BRANCH  23  24
ATOM     24  C   UNL     1      11.460  -2.438  -1.299  0.00  0.00    +0.219 C 
ATOM     25  O   UNL     1      11.431  -3.154  -0.321  0.00  0.00    -0.275 OA
ATOM     26  N   UNL     1      12.298  -2.721  -2.316  0.00  0.00    -0.285 N 
ATOM     27  H   UNL     1      12.275  -2.188  -3.126  0.00  0.00    +0.155 HD
BRANCH  26  28
ATOM     28  C   UNL     1      13.203  -3.784  -2.203  0.00  0.00    +0.034 A 
ATOM     29  C   UNL     1      14.463  -3.688  -2.776  0.00  0.00    +0.026 A 
ATOM     30  C   UNL     1      15.354  -4.738  -2.664  0.00  0.00    +0.040 A 
ATOM     31  C   UNL     1      14.989  -5.886  -1.980  0.00  0.00    +0.124 A 
ATOM     32  C   UNL     1      13.732  -5.984  -1.408  0.00  0.00    +0.040 A 
ATOM     33  C   UNL     1      12.841  -4.934  -1.513  0.00  0.00    +0.026 A 
ATOM     34  F   UNL     1      15.861  -6.912  -1.872  0.00  0.00    -0.205 F 
ENDBRANCH  26  28
ENDBRANCH  23  24
ENDBRANCH   6  23
TORSDOF 4
