REMARK  Name = ZINC36359379
REMARK  4 active torsions:
REMARK  status: ('A' for Active; 'I' for Inactive)
REMARK    1  A    between atoms: C_1  and  N_2
REMARK    2  A    between atoms: C_13  and  O_30
REMARK    3  A    between atoms: C_18  and  C_27
REMARK    4  A    between atoms: C_19  and  C_20
REMARK                            x       y       z     vdW  Elec       q    Type
REMARK                         _______ _______ _______ _____ _____    ______ ____
ROOT
ATOM      1  C   UNL     1      -0.018   1.461   0.010  0.00  0.00    +0.138 C 
ATOM      2  N   UNL     1       0.002  -0.004   0.002  0.00  0.00    -0.273 N 
ATOM      3  C   UNL     1      -1.135  -0.794   0.003  0.00  0.00    +0.041 A 
ATOM      4  C   UNL     1      -2.478  -0.413   0.014  0.00  0.00    +0.026 A 
ATOM      5  C   UNL     1      -3.425  -1.426   0.013  0.00  0.00    +0.040 A 
ATOM      6  C   UNL     1      -3.068  -2.761   0.000  0.00  0.00    +0.124 A 
ATOM      7  C   UNL     1      -1.732  -3.153  -0.011  0.00  0.00    +0.045 A 
ATOM      8  C   UNL     1      -0.786  -2.150  -0.009  0.00  0.00    -0.003 A 
ATOM      9  C   UNL     1       0.708  -2.196  -0.016  0.00  0.00    +0.115 C 
ATOM     10  C   UNL     1       1.131  -0.744  -0.013  0.00  0.00    +0.236 C 
ATOM     11  O   UNL     1       2.269  -0.323  -0.021  0.00  0.00    -0.274 OA
ATOM     12  C   UNL     1       1.232  -2.889  -1.276  0.00  0.00    +0.121 C 
ATOM     13  C   UNL     1       1.225  -4.380  -1.108  0.00  0.00    +0.189 C 
ATOM     14  N   UNL     1       1.402  -4.992   0.015  0.00  0.00    -0.216 NA
ATOM     15  C   UNL     1       1.585  -4.260   1.185  0.00  0.00    +0.087 A 
ATOM     16  C   UNL     1       1.246  -2.913   1.180  0.00  0.00    +0.036 A 
ATOM     17  S   UNL     1       1.567  -2.354   2.713  0.00  0.00    -0.082 S 
ATOM     18  C   UNL     1       2.180  -3.860   3.446  0.00  0.00    +0.110 A 
ATOM     19  C   UNL     1       2.087  -4.768   2.386  0.00  0.00    +0.029 A 
ATOM     20  F   UNL     1      -4.035  -3.704  -0.001  0.00  0.00    -0.205 F 
ENDROOT
BRANCH  19  21
ATOM     21  C   UNL     1       2.496  -6.183   2.528  0.00  0.00    -0.014 A 
ATOM     22  C   UNL     1       1.548  -7.200   2.417  0.00  0.00    +0.010 A 
ATOM     23  C   UNL     1       1.935  -8.518   2.551  0.00  0.00    +0.020 A 
ATOM     24  C   UNL     1       3.262  -8.831   2.795  0.00  0.00    +0.041 A 
ATOM     25  C   UNL     1       4.207  -7.825   2.906  0.00  0.00    +0.020 A 
ATOM     26  C   UNL     1       3.833  -6.505   2.768  0.00  0.00    +0.010 A 
ATOM     27 CL   UNL     1       3.741 -10.491   2.963  0.00  0.00    -0.084 Cl
ENDBRANCH  19  21
BRANCH  18  28
ATOM     28  C   UNL     1       2.642  -4.080   4.764  0.00  0.00    +0.394 C 
ATOM     29  O   UNL     1       2.654  -3.157   5.571  0.00  0.00    -0.240 OA
ATOM     30  O   UNL     1       3.032  -5.192   5.099  0.00  0.00    -0.240 OA
ENDBRANCH  18  28
BRANCH  13  31
ATOM     31  O   UNL     1       1.021  -5.135  -2.209  0.00  0.00    -0.495 OA
ATOM     32  H   UNL     1       1.027  -6.087  -2.040  0.00  0.00    +0.293 HD
ENDBRANCH  13  31
TORSDOF 3
