REMARK  Name = ZINC08684151
REMARK  7 active torsions:
REMARK  status: ('A' for Active; 'I' for Inactive)
REMARK    1  A    between atoms: C_1  and  C_2
REMARK    2  A    between atoms: C_2  and  C_3
REMARK    3  A    between atoms: C_2  and  C_4
REMARK    4  A    between atoms: C_7  and  C_10
REMARK    5  A    between atoms: C_13  and  C_19
REMARK    6  A    between atoms: N_15  and  C_16
REMARK    7  A    between atoms: C_16  and  N_18
REMARK                            x       y       z     vdW  Elec       q    Type
REMARK                         _______ _______ _______ _____ _____    ______ ____
ROOT
ATOM      1  C   UNL     1      -5.419  -2.005   0.043  0.00  0.00    +0.136 C 
ATOM      2  C   UNL     1      -5.448  -3.482   0.484  0.00  0.00    +0.087 C 
ATOM      3  C   UNL     1      -6.025  -4.207  -0.711  0.00  0.00    +0.069 C 
ATOM      4  N   UNL     1      -6.281  -3.359  -1.646  0.00  0.00    -0.182 NA
ATOM      5  N   UNL     1      -5.970  -2.037  -1.321  0.00  0.00    -0.197 N 
ENDROOT
BRANCH   3   6
ATOM      6  C   UNL     1      -6.259  -5.661  -0.793  0.00  0.00    -0.002 A 
ATOM      7  C   UNL     1      -5.946  -6.484   0.292  0.00  0.00    +0.011 A 
ATOM      8  C   UNL     1      -6.167  -7.842   0.209  0.00  0.00    +0.016 A 
ATOM      9  C   UNL     1      -6.698  -8.391  -0.946  0.00  0.00    +0.018 A 
ATOM     10  C   UNL     1      -7.010  -7.581  -2.025  0.00  0.00    +0.016 A 
ATOM     11  C   UNL     1      -6.800  -6.220  -1.953  0.00  0.00    +0.011 A 
ATOM     12 BR   UNL     1      -6.997 -10.255  -1.051  0.00  0.00    -0.050 Br
ENDBRANCH   3   6
BRANCH   1  16
ATOM     13  C   UNL     1      -1.412  -0.526   0.013  0.00  0.00    -0.045 A 
ATOM     14  C   UNL     1      -2.259  -0.204   1.056  0.00  0.00    +0.004 A 
ATOM     15  C   UNL     1      -3.556  -0.683   1.066  0.00  0.00    +0.006 A 
ATOM     16  C   UNL     1      -4.006  -1.482   0.032  0.00  0.00    -0.025 A 
ATOM     17  C   UNL     1      -3.159  -1.803  -1.012  0.00  0.00    +0.006 A 
ATOM     18  C   UNL     1      -1.863  -1.321  -1.024  0.00  0.00    +0.004 A 
BRANCH  13  20
ATOM     19  C   UNL     1      -0.019   1.526   0.010  0.00  0.00    +0.012 C 
ATOM     20  C   UNL     1       0.002  -0.004   0.002  0.00  0.00    +0.013 C 
ATOM     21  C   UNL     1       0.742  -0.511   1.242  0.00  0.00    +0.012 C 
ENDBRANCH  13  20
ENDBRANCH   1  16
BRANCH   5  22
ATOM     22  C   UNL     1      -6.144  -0.967  -2.122  0.00  0.00    +0.151 C 
ATOM     23  S   UNL     1      -5.708   0.594  -1.571  0.00  0.00    -0.017 S 
BRANCH  22  24
ATOM     24  N   UNL     1      -6.660  -1.126  -3.356  0.00  0.00    -0.339 N 
ATOM     25  H   UNL     1      -6.907  -2.011  -3.668  0.00  0.00    +0.144 HD
ATOM     26  H   UNL     1      -6.785  -0.356  -3.933  0.00  0.00    +0.144 HD
ENDBRANCH  22  24
ENDBRANCH   5  22
TORSDOF 5
