REMARK  Name = ZINC12020298
REMARK  9 active torsions:
REMARK  status: ('A' for Active; 'I' for Inactive)
REMARK    1  A    between atoms: C_1  and  C_2
REMARK    2  A    between atoms: C_3  and  C_19
REMARK    3  A    between atoms: N_7  and  C_8
REMARK    4  A    between atoms: C_8  and  C_9
REMARK    5  A    between atoms: C_11  and  O_17
REMARK    6  A    between atoms: C_14  and  O_15
REMARK    7  A    between atoms: O_15  and  C_16
REMARK    8  A    between atoms: O_17  and  C_18
REMARK    9  A    between atoms: N_22  and  C_24
REMARK                            x       y       z     vdW  Elec       q    Type
REMARK                         _______ _______ _______ _____ _____    ______ ____
ROOT
ATOM      1  C   UNL     1      -0.013   1.086   0.008  0.00  0.00    +0.067 C 
ATOM      2  C   UNL     1      -0.718   1.572   1.248  0.00  0.00    +0.057 A 
ATOM      3  C   UNL     1      -0.025   1.809   2.404  0.00  0.00    +0.063 A 
ATOM      4  S   UNL     1      -1.349   2.344   3.479  0.00  0.00    -0.051 S 
ATOM      5  C   UNL     1      -2.644   2.205   2.331  0.00  0.00    +0.159 A 
ATOM      6  N   UNL     1      -2.017   1.785   1.248  0.00  0.00    -0.229 NA
ATOM      7  N   UNL     1      -3.991   2.473   2.506  0.00  0.00    -0.319 N 
ATOM      8  H   UNL     1      -4.316   2.784   3.365  0.00  0.00    +0.148 HD
ENDROOT
BRANCH   3   9
ATOM      9  C   UNL     1       1.419   1.664   2.685  0.00  0.00    +0.101 A 
ATOM     10  C   UNL     1       2.056   1.938   3.914  0.00  0.00    +0.050 A 
ATOM     11  C   UNL     1       3.373   1.678   3.765  0.00  0.00    +0.115 A 
ATOM     12  N   UNL     1       3.575   1.262   2.488  0.00  0.00    -0.239 N 
ATOM     13  N   UNL     1       2.338   1.261   1.830  0.00  0.00    -0.166 NA
BRANCH  12  14
ATOM     14  C   UNL     1       4.806   0.897   1.926  0.00  0.00    +0.069 A 
ATOM     15  C   UNL     1       5.944   0.845   2.721  0.00  0.00    +0.031 A 
ATOM     16  C   UNL     1       7.158   0.486   2.169  0.00  0.00    +0.051 A 
ATOM     17  C   UNL     1       7.245   0.176   0.821  0.00  0.00    +0.166 A 
ATOM     18  C   UNL     1       6.105   0.228   0.021  0.00  0.00    +0.168 A 
ATOM     19  C   UNL     1       4.888   0.583   0.576  0.00  0.00    +0.077 A 
ATOM     20  O   UNL     1       6.451  -0.117  -1.254  0.00  0.00    -0.453 OA
ATOM     21  C   UNL     1       7.727  -0.775  -1.142  0.00  0.00    +0.466 C 
ATOM     22  O   UNL     1       8.304  -0.201   0.046  0.00  0.00    -0.453 OA
ENDBRANCH  12  14
ENDBRANCH   3   9
BRANCH   7  23
ATOM     23  C   UNL     1      -4.925   2.287   1.393  0.00  0.00    +0.142 C 
BRANCH  23  24
ATOM     24  C   UNL     1      -6.319   2.644   1.841  0.00  0.00    +0.015 A 
ATOM     25  C   UNL     1      -7.208   1.647   2.193  0.00  0.00    +0.054 A 
ATOM     26  C   UNL     1      -8.490   1.976   2.607  0.00  0.00    +0.121 A 
ATOM     27  C   UNL     1      -8.880   3.307   2.666  0.00  0.00    +0.049 A 
ATOM     28  C   UNL     1      -7.991   4.303   2.314  0.00  0.00    +0.049 A 
ATOM     29  C   UNL     1      -6.707   3.974   1.906  0.00  0.00    +0.125 A 
BRANCH  29  30
ATOM     30  O   UNL     1      -5.830   4.956   1.565  0.00  0.00    -0.495 OA
ATOM     31  C   UNL     1      -6.296   6.303   1.655  0.00  0.00    +0.277 C 
ENDBRANCH  29  30
BRANCH  26  32
ATOM     32  O   UNL     1      -9.366   0.995   2.954  0.00  0.00    -0.495 OA
ATOM     33  C   UNL     1     -10.669   1.406   3.370  0.00  0.00    +0.277 C 
ENDBRANCH  26  32
ENDBRANCH  23  24
ENDBRANCH   7  23
TORSDOF 6
