REMARK  Name = ZINC16567773
REMARK  14 active torsions:
REMARK  status: ('A' for Active; 'I' for Inactive)
REMARK    1  A    between atoms: C_1  and  C_2
REMARK    2  A    between atoms: C_6  and  C_8
REMARK    3  A    between atoms: C_8  and  S_9
REMARK    4  A    between atoms: S_9  and  C_10
REMARK    5  A    between atoms: C_13  and  C_24
REMARK    6  A    between atoms: N_14  and  C_15
REMARK    7  A    between atoms: C_18  and  N_21
REMARK    8  A    between atoms: C_24  and  C_26
REMARK    9  A    between atoms: C_24  and  N_33
REMARK   10  A    between atoms: C_26  and  C_27
REMARK   11  A    between atoms: C_34  and  C_36
REMARK   12  A    between atoms: C_36  and  C_37
REMARK   13  A    between atoms: C_36  and  C_38
REMARK   14  A    between atoms: C_36  and  C_39
REMARK                            x       y       z     vdW  Elec       q    Type
REMARK                         _______ _______ _______ _____ _____    ______ ____
ROOT
ATOM      1  C   UNL     1      -0.116   7.695  -1.375  0.00  0.00    +0.196 A 
ATOM      2  N   UNL     1      -0.112   8.286  -0.203  0.00  0.00    -0.122 NA
ATOM      3  N   UNL     1      -0.131   9.562  -0.356  0.00  0.00    -0.131 NA
ATOM      4  C   UNL     1      -0.148   9.862  -1.624  0.00  0.00    +0.159 A 
ATOM      5  N   UNL     1      -0.133   8.683  -2.321  0.00  0.00    -0.273 N 
ENDROOT
BRANCH   5   6
ATOM      6  C   UNL     1      -0.137   8.522  -3.715  0.00  0.00    +0.050 A 
ATOM      7  C   UNL     1       0.940   8.966  -4.469  0.00  0.00    +0.028 A 
ATOM      8  C   UNL     1       0.936   8.802  -5.840  0.00  0.00    +0.035 A 
ATOM      9  C   UNL     1      -0.146   8.206  -6.463  0.00  0.00    +0.126 A 
ATOM     10  C   UNL     1      -1.223   7.769  -5.715  0.00  0.00    +0.035 A 
ATOM     11  C   UNL     1      -1.222   7.925  -4.342  0.00  0.00    +0.028 A 
BRANCH   9  12
ATOM     12  N   UNL     1      -0.151   8.037  -7.934  0.00  0.00    +0.056 N 
ATOM     13  O   UNL     1      -1.103   7.513  -8.483  0.00  0.00    -0.126 OA
ATOM     14  O   UNL     1       0.798   8.422  -8.594  0.00  0.00    -0.126 OA
ENDBRANCH   9  12
ENDBRANCH   5   6
BRANCH   1  15
ATOM     15  S   UNL     1      -0.095   5.958  -1.674  0.00  0.00    -0.081 S 
BRANCH  15  16
ATOM     16  C   UNL     1      -0.070   5.347   0.030  0.00  0.00    +0.112 C 
BRANCH  16  22
ATOM     17  C   UNL     1      -2.514   0.980   0.019  0.00  0.00    +0.044 C 
ATOM     18  C   UNL     1      -1.219   1.751   0.017  0.00  0.00    -0.050 A 
ATOM     19  C   UNL     1      -0.013   1.076   0.008  0.00  0.00    +0.003 A 
ATOM     20  C   UNL     1       1.175   1.783   0.000  0.00  0.00    +0.001 A 
ATOM     21  C   UNL     1       1.156   3.166   0.008  0.00  0.00    +0.004 A 
ATOM     22  C   UNL     1      -0.050   3.840   0.022  0.00  0.00    -0.037 A 
ATOM     23  C   UNL     1      -1.238   3.133   0.030  0.00  0.00    +0.007 A 
ENDBRANCH  16  22
ENDBRANCH  15  16
ENDBRANCH   1  15
BRANCH   4  24
ATOM     24  C   UNL     1      -0.172  11.248  -2.214  0.00  0.00    +0.146 C 
BRANCH  24  25
ATOM     25  N   UNL     1       0.800  12.093  -1.515  0.00  0.00    -0.305 N 
ATOM     26  C   UNL     1       0.682  12.301  -0.189  0.00  0.00    +0.219 C 
ATOM     27  O   UNL     1      -0.229  11.789   0.426  0.00  0.00    -0.275 OA
ATOM     28  H   UNL     1       1.529  12.502  -2.008  0.00  0.00    +0.149 HD
BRANCH  26  29
ATOM     29  C   UNL     1       1.683  13.170   0.529  0.00  0.00    +0.039 C 
ATOM     30  C   UNL     1       1.323  13.241   2.015  0.00  0.00    +0.020 C 
ATOM     31  C   UNL     1       3.083  12.573   0.372  0.00  0.00    +0.020 C 
ATOM     32  C   UNL     1       1.658  14.578  -0.070  0.00  0.00    +0.020 C 
ENDBRANCH  26  29
ENDBRANCH  24  25
BRANCH  24  33
ATOM     33  C   UNL     1      -1.572  11.845  -2.056  0.00  0.00    +0.065 C 
BRANCH  33  34
ATOM     34  C   UNL     1      -1.630  13.180  -2.753  0.00  0.00    -0.045 A 
ATOM     35  C   UNL     1      -1.318  14.335  -2.061  0.00  0.00    +0.004 A 
ATOM     36  C   UNL     1      -1.366  15.559  -2.702  0.00  0.00    +0.000 A 
ATOM     37  C   UNL     1      -1.738  15.629  -4.032  0.00  0.00    +0.000 A 
ATOM     38  C   UNL     1      -2.056  14.474  -4.722  0.00  0.00    +0.000 A 
ATOM     39  C   UNL     1      -2.002  13.250  -4.083  0.00  0.00    +0.004 A 
ENDBRANCH  33  34
ENDBRANCH  24  33
ENDBRANCH   4  24
TORSDOF 10
