REMARK  Name = ZINC23705578
REMARK  11 active torsions:
REMARK  status: ('A' for Active; 'I' for Inactive)
REMARK    1  A    between atoms: C_1  and  C_2
REMARK    2  A    between atoms: C_2  and  C_24
REMARK    3  A    between atoms: N_5  and  N_9
REMARK    4  A    between atoms: C_10  and  C_12
REMARK    5  A    between atoms: C_12  and  N_13
REMARK    6  A    between atoms: N_13  and  C_14
REMARK    7  A    between atoms: N_13  and  C_17
REMARK    8  A    between atoms: C_14  and  C_15
REMARK    9  A    between atoms: C_17  and  C_18
REMARK   10  A    between atoms: C_24  and  C_25
REMARK   11  A    between atoms: C_25  and  C_26
REMARK                            x       y       z     vdW  Elec       q    Type
REMARK                         _______ _______ _______ _____ _____    ______ ____
ROOT
ATOM      1  C   UNL     1      -1.063   0.029  -2.504  0.00  0.00    +0.041 C 
ATOM      2  C   UNL     1      -0.572   0.565  -1.158  0.00  0.00    +0.112 C 
ATOM      3  C   UNL     1       0.856   0.128  -0.895  0.00  0.00    +0.263 C 
ATOM      4  O   UNL     1       1.266  -1.008  -0.790  0.00  0.00    -0.271 OA
ATOM      5  N   UNL     1       1.574   1.264  -0.803  0.00  0.00    -0.137 N 
ATOM      6  C   UNL     1       0.806   2.348  -0.970  0.00  0.00    +0.326 C 
ATOM      7  O   UNL     1       1.228   3.487  -0.930  0.00  0.00    -0.251 OA
ATOM      8  N   UNL     1      -0.484   2.035  -1.186  0.00  0.00    -0.284 N 
ATOM      9  H   UNL     1      -1.388   2.637  -1.362  0.00  0.00    +0.151 HD
ENDROOT
BRANCH   5  10
ATOM     10  N   UNL     1       2.953   1.307  -0.564  0.00  0.00    -0.225 N 
ATOM     11  C   UNL     1       3.803   1.596  -1.569  0.00  0.00    +0.213 C 
ATOM     12  O   UNL     1       3.374   1.820  -2.681  0.00  0.00    -0.276 OA
ATOM     13  H   UNL     1       3.343   1.104   0.445  0.00  0.00    +0.173 HD
BRANCH  11  14
ATOM     14  C   UNL     1       5.287   1.641  -1.311  0.00  0.00    +0.021 C 
BRANCH  14  15
ATOM     15  N   UNL     1       5.991   1.975  -2.557  0.00  0.00    +0.391 N 
ATOM     16  H   UNL     1       5.532   2.885  -2.971  0.00  0.00    -0.080 HD
BRANCH  15  17
ATOM     17  C   UNL     1       5.841   0.903  -3.550  0.00  0.00    -0.051 C 
BRANCH  17  18
ATOM     18  C   UNL     1       6.219   1.423  -4.912  0.00  0.00    -0.053 C 
ATOM     19  C   UNL     1       7.133   0.806  -5.619  0.00  0.00    +0.002 C 
ENDBRANCH  17  18
ENDBRANCH  15  17
BRANCH  15  20
ATOM     20  C   UNL     1       7.409   2.261  -2.300  0.00  0.00    -0.034 C 
BRANCH  20  21
ATOM     21  C   UNL     1       7.544   3.640  -1.708  0.00  0.00    -0.025 A 
ATOM     22  C   UNL     1       7.641   4.004  -0.406  0.00  0.00    +0.011 A 
ATOM     23  C   UNL     1       7.763   5.345  -0.092  0.00  0.00    +0.028 A 
ATOM     24  C   UNL     1       7.771   6.257  -1.096  0.00  0.00    +0.078 A 
ATOM     25  S   UNL     1       7.610   5.219  -2.539  0.00  0.00    -0.084 S 
ATOM     26 CL   UNL     1       7.903   7.986  -1.002  0.00  0.00    -0.076 Cl
ENDBRANCH  20  21
ENDBRANCH  15  20
ENDBRANCH  14  15
ENDBRANCH  11  14
ENDBRANCH   5  10
BRANCH   2  27
ATOM     27  C   UNL     1      -1.493   0.102  -0.027  0.00  0.00    +0.040 C 
BRANCH  27  28
ATOM     28  C   UNL     1      -2.903   0.649  -0.262  0.00  0.00    +0.038 C 
BRANCH  28  29
ATOM     29  C   UNL     1      -3.810   0.193   0.852  0.00  0.00    -0.047 A 
ATOM     30  C   UNL     1      -4.507  -0.995   0.733  0.00  0.00    +0.003 A 
ATOM     31  C   UNL     1      -5.336  -1.415   1.757  0.00  0.00    +0.000 A 
ATOM     32  C   UNL     1      -5.476  -0.642   2.894  0.00  0.00    +0.000 A 
ATOM     33  C   UNL     1      -4.782   0.548   3.010  0.00  0.00    +0.000 A 
ATOM     34  C   UNL     1      -3.950   0.966   1.989  0.00  0.00    +0.003 A 
ENDBRANCH  28  29
ENDBRANCH  27  28
ENDBRANCH   2  27
TORSDOF 10
