REMARK  Name = ZINC53899090
REMARK  4 active torsions:
REMARK  status: ('A' for Active; 'I' for Inactive)
REMARK    1  A    between atoms: C_1  and  C_2
REMARK    2  A    between atoms: C_6  and  C_8
REMARK    3  A    between atoms: C_14  and  S_21
REMARK    4  A    between atoms: S_21  and  N_24
REMARK                            x       y       z     vdW  Elec       q    Type
REMARK                         _______ _______ _______ _____ _____    ______ ____
ROOT
ATOM      1  C   UNL     1       0.054  -2.845   2.489  0.00  0.00    +0.191 C 
ATOM      2  N   UNL     1      -0.646  -2.075   3.515  0.00  0.00    -0.322 N 
ATOM      3  C   UNL     1      -2.023  -1.869   3.511  0.00  0.00    +0.057 A 
ATOM      4  C   UNL     1      -2.542  -0.788   4.221  0.00  0.00    +0.047 A 
ATOM      5  C   UNL     1      -3.904  -0.567   4.251  0.00  0.00    +0.069 A 
ATOM      6  C   UNL     1      -4.764  -1.417   3.577  0.00  0.00    +0.125 A 
ATOM      7  C   UNL     1      -4.255  -2.488   2.865  0.00  0.00    +0.060 A 
ATOM      8  C   UNL     1      -2.893  -2.707   2.827  0.00  0.00    +0.128 A 
ATOM      9  S   UNL     1      -2.245  -4.054   1.884  0.00  0.00    +0.062 S 
ATOM     10  O   UNL     1      -2.867  -5.237   2.367  0.00  0.00    -0.153 OA
ATOM     11  O   UNL     1      -2.291  -3.664   0.518  0.00  0.00    -0.153 OA
ATOM     12  N   UNL     1      -0.633  -4.140   2.313  0.00  0.00    -0.166 NA
ATOM     13 CL   UNL     1      -4.541   0.784   5.136  0.00  0.00    -0.081 Cl
ATOM     14  H   UNL     1      -0.124  -1.689   4.236  0.00  0.00    +0.148 HD
ATOM     15  H   UNL     1      -0.176  -4.987   2.442  0.00  0.00    +0.150 HD
ENDROOT
BRANCH   1  21
ATOM     16  C   UNL     1      -0.018   1.503   0.010  0.00  0.00    +0.044 C 
ATOM     17  C   UNL     1       0.002  -0.004   0.002  0.00  0.00    -0.050 A 
ATOM     18  C   UNL     1       0.006  -0.689  -1.199  0.00  0.00    +0.003 A 
ATOM     19  C   UNL     1       0.025  -2.071  -1.207  0.00  0.00    +0.001 A 
ATOM     20  C   UNL     1       0.040  -2.768  -0.013  0.00  0.00    +0.007 A 
ATOM     21  C   UNL     1       0.037  -2.084   1.188  0.00  0.00    -0.011 A 
ATOM     22  C   UNL     1       0.023  -0.702   1.195  0.00  0.00    +0.010 A 
ENDBRANCH   1  21
BRANCH   6  23
ATOM     23  S   UNL     1      -6.503  -1.136   3.626  0.00  0.00    +0.057 S 
ATOM     24  O   UNL     1      -6.701   0.238   3.320  0.00  0.00    -0.153 OA
ATOM     25  O   UNL     1      -7.104  -2.179   2.872  0.00  0.00    -0.153 OA
BRANCH  23  26
ATOM     26  N   UNL     1      -6.988  -1.346   5.195  0.00  0.00    -0.203 NA
ATOM     27  H   UNL     1      -6.339  -1.581   5.877  0.00  0.00    +0.144 HD
ATOM     28  H   UNL     1      -7.922  -1.234   5.433  0.00  0.00    +0.144 HD
ENDBRANCH  23  26
ENDBRANCH   6  23
TORSDOF 3
