REMARK  Name = ZINC15659114
REMARK  4 active torsions:
REMARK  status: ('A' for Active; 'I' for Inactive)
REMARK    1  A    between atoms: C_1  and  C_2
REMARK    2  A    between atoms: C_9  and  C_12
REMARK    3  A    between atoms: N_23  and  C_24
REMARK    4  A    between atoms: C_29  and  C_30
REMARK                            x       y       z     vdW  Elec       q    Type
REMARK                         _______ _______ _______ _____ _____    ______ ____
ROOT
ATOM      1  C   UNL     1       0.058  -2.932   3.591  0.00  0.00    +0.053 C 
ATOM      2  C   UNL     1      -0.029  -4.048   4.461  0.00  0.00    +0.102 C 
ATOM      3  N   UNL     1      -0.007  -5.283   3.931  0.00  0.00    -0.302 N 
ATOM      4  C   UNL     1      -0.090  -6.402   4.740  0.00  0.00    +0.044 A 
ATOM      5  C   UNL     1      -0.068  -7.684   4.209  0.00  0.00    +0.024 A 
ATOM      6  C   UNL     1      -0.153  -8.775   5.050  0.00  0.00    +0.002 A 
ATOM      7  C   UNL     1      -0.260  -8.604   6.422  0.00  0.00    +0.001 A 
ATOM      8  C   UNL     1      -0.284  -7.338   6.969  0.00  0.00    +0.015 A 
ATOM      9  C   UNL     1      -0.199  -6.228   6.132  0.00  0.00    +0.059 A 
ATOM     10  C   UNL     1      -0.219  -4.855   6.667  0.00  0.00    +0.258 C 
ATOM     11  O   UNL     1      -0.311  -4.652   7.862  0.00  0.00    -0.269 OA
ATOM     12  N   UNL     1      -0.127  -3.827   5.795  0.00  0.00    -0.223 N 
ATOM     13  H   UNL     1       0.069  -5.391   2.970  0.00  0.00    +0.153 HD
ENDROOT
BRANCH   1  22
ATOM     14  C   UNL     1       1.007   1.219  -0.199  0.00  0.00    +0.044 C 
ATOM     15  C   UNL     1       0.333  -0.124  -0.083  0.00  0.00    -0.050 A 
ATOM     16  C   UNL     1      -0.318  -0.667  -1.178  0.00  0.00    +0.005 A 
ATOM     17  C   UNL     1      -0.943  -1.896  -1.093  0.00  0.00    +0.024 A 
ATOM     18  C   UNL     1      -0.923  -2.609   0.108  0.00  0.00    +0.042 A 
ATOM     19  N   UNL     1      -1.450  -3.815   0.453  0.00  0.00    -0.281 N 
ATOM     20  C   UNL     1      -1.204  -4.135   1.708  0.00  0.00    +0.249 C 
ATOM     21  O   UNL     1      -1.560  -5.158   2.272  0.00  0.00    -0.270 OA
ATOM     22  C   UNL     1      -0.412  -3.024   2.318  0.00  0.00    +0.049 C 
ATOM     23  C   UNL     1      -0.257  -2.048   1.220  0.00  0.00    +0.009 A 
ATOM     24  C   UNL     1       0.371  -0.813   1.115  0.00  0.00    +0.014 A 
ATOM     25  H   UNL     1      -1.951  -4.378  -0.158  0.00  0.00    +0.155 HD
ENDBRANCH   1  22
BRANCH  12  26
ATOM     26  C   UNL     1      -0.139  -2.514   6.276  0.00  0.00    +0.046 A 
ATOM     27  C   UNL     1      -1.344  -1.839   6.430  0.00  0.00    +0.024 A 
ATOM     28  C   UNL     1      -1.352  -0.543   6.905  0.00  0.00    +0.002 A 
ATOM     29  C   UNL     1      -0.163   0.084   7.229  0.00  0.00    +0.000 A 
ATOM     30  C   UNL     1       1.038  -0.584   7.078  0.00  0.00    +0.005 A 
ATOM     31  C   UNL     1       1.053  -1.883   6.607  0.00  0.00    -0.029 A 
ATOM     32  C   UNL     1       2.362  -2.612   6.449  0.00  0.00    +0.045 C 
ENDBRANCH  12  26
TORSDOF 2
