REMARK  Name = ZINC36205858
REMARK  14 active torsions:
REMARK  status: ('A' for Active; 'I' for Inactive)
REMARK    1  A    between atoms: C_1  and  C_2
REMARK    2  A    between atoms: C_7  and  C_8
REMARK    3  A    between atoms: C_17  and  C_19
REMARK    4  A    between atoms: C_19  and  N_20
REMARK    5  A    between atoms: N_20  and  C_21
REMARK    6  A    between atoms: N_20  and  C_26
REMARK    7  A    between atoms: C_21  and  C_22
REMARK    8  A    between atoms: C_22  and  C_23
REMARK    9  A    between atoms: C_23  and  C_24
REMARK   10  A    between atoms: C_23  and  C_25
REMARK   11  A    between atoms: C_26  and  C_27
REMARK   12  A    between atoms: C_27  and  C_28
REMARK   13  A    between atoms: C_27  and  C_29
REMARK   14  A    between atoms: C_27  and  O_31
REMARK                            x       y       z     vdW  Elec       q    Type
REMARK                         _______ _______ _______ _____ _____    ______ ____
ROOT
ATOM      1  C   UNL     1      -0.991  -0.017   0.964  0.00  0.00    +0.004 A 
ATOM      2  C   UNL     1      -0.150  -0.761   1.722  0.00  0.00    +0.056 A 
ATOM      3  S   UNL     1      -0.465  -0.181   3.378  0.00  0.00    -0.076 S 
ATOM      4  C   UNL     1      -1.705   1.035   3.018  0.00  0.00    +0.116 A 
ATOM      5  C   UNL     1      -1.842   0.968   1.622  0.00  0.00    +0.080 A 
ATOM      6  C   UNL     1      -2.797   1.866   1.048  0.00  0.00    +0.260 A 
ATOM      7  O   UNL     1      -2.990   1.879  -0.155  0.00  0.00    -0.267 OA
ATOM      8  N   UNL     1      -3.479   2.698   1.858  0.00  0.00    -0.312 N 
ATOM      9  H   UNL     1      -4.127   3.309   1.475  0.00  0.00    +0.170 HD
ATOM     10  C   UNL     1      -3.277   2.697   3.201  0.00  0.00    +0.094 A 
ATOM     11  N   UNL     1      -2.419   1.883   3.754  0.00  0.00    -0.229 NA
ENDROOT
BRANCH   1  18
ATOM     12  C   UNL     1      -0.150   2.142  -0.769  0.00  0.00    +0.044 C 
ATOM     13  C   UNL     1      -0.636   0.839  -1.350  0.00  0.00    -0.043 A 
ATOM     14  C   UNL     1      -0.678   0.666  -2.719  0.00  0.00    +0.004 A 
ATOM     15  C   UNL     1      -1.124  -0.529  -3.253  0.00  0.00    +0.000 A 
ATOM     16  C   UNL     1      -1.531  -1.557  -2.421  0.00  0.00    +0.001 A 
ATOM     17  C   UNL     1      -1.494  -1.395  -1.052  0.00  0.00    +0.009 A 
ATOM     18  C   UNL     1      -1.039  -0.195  -0.506  0.00  0.00    -0.014 A 
ENDBRANCH   1  18
BRANCH  10  19
ATOM     19  C   UNL     1      -4.063   3.646   4.068  0.00  0.00    -0.003 C 
BRANCH  19  20
ATOM     20  N   UNL     1      -3.566   3.573   5.449  0.00  0.00    +0.386 N 
ATOM     21  H   UNL     1      -3.160   2.664   5.613  0.00  0.00    -0.081 HD
BRANCH  20  22
ATOM     22  C   UNL     1      -4.680   3.787   6.382  0.00  0.00    -0.078 C 
BRANCH  22  23
ATOM     23  C   UNL     1      -4.198   3.552   7.815  0.00  0.00    -0.016 C 
BRANCH  23  24
ATOM     24  C   UNL     1      -5.386   3.644   8.775  0.00  0.00    -0.019 C 
ATOM     25  C   UNL     1      -4.927   3.287  10.190  0.00  0.00    +0.007 C 
ATOM     26  C   UNL     1      -5.941   5.070   8.764  0.00  0.00    +0.007 C 
ENDBRANCH  23  24
ENDBRANCH  22  23
ENDBRANCH  20  22
BRANCH  20  27
ATOM     27  C   UNL     1      -2.547   4.610   5.657  0.00  0.00    -0.039 C 
BRANCH  27  28
ATOM     28  C   UNL     1      -1.168   4.046   5.308  0.00  0.00    +0.067 C 
ATOM     29  C   UNL     1      -0.877   2.828   6.186  0.00  0.00    +0.044 C 
BRANCH  28  30
ATOM     30  C   UNL     1      -0.118   5.101   5.549  0.00  0.00    -0.003 C 
ATOM     31  C   UNL     1       0.635   5.513   4.559  0.00  0.00    +0.006 C 
ENDBRANCH  28  30
BRANCH  28  32
ATOM     32  O   UNL     1      -1.146   3.659   3.933  0.00  0.00    -0.387 OA
ATOM     33  H   UNL     1      -1.323   4.383   3.317  0.00  0.00    +0.210 HD
ENDBRANCH  28  32
ENDBRANCH  27  28
ENDBRANCH  20  27
ENDBRANCH  19  20
ENDBRANCH  10  19
TORSDOF 10
