REMARK  Name = ZINC36632374
REMARK  9 active torsions:
REMARK  status: ('A' for Active; 'I' for Inactive)
REMARK    1  A    between atoms: C_1  and  C_2
REMARK    2  A    between atoms: C_2  and  O_3
REMARK    3  A    between atoms: O_3  and  C_4
REMARK    4  A    between atoms: C_4  and  C_6
REMARK    5  A    between atoms: C_6  and  N_7
REMARK    6  A    between atoms: N_18  and  C_19
REMARK    7  A    between atoms: C_19  and  C_21
REMARK    8  A    between atoms: C_24  and  C_27
REMARK    9  A    between atoms: C_27  and  C_29
REMARK                            x       y       z     vdW  Elec       q    Type
REMARK                         _______ _______ _______ _____ _____    ______ ____
ROOT
ATOM      1  N   UNL     1       1.144  -2.890   2.059  0.00  0.00    -0.309 N 
ATOM      2  C   UNL     1      -0.036  -3.428   2.539  0.00  0.00    +0.077 A 
ATOM      3  C   UNL     1      -0.310  -4.715   2.054  0.00  0.00    +0.042 A 
ATOM      4  C   UNL     1      -1.437  -5.413   2.418  0.00  0.00    +0.037 A 
ATOM      5  C   UNL     1      -2.343  -4.838   3.294  0.00  0.00    +0.044 A 
ATOM      6  C   UNL     1      -2.097  -3.567   3.788  0.00  0.00    +0.042 A 
ATOM      7  C   UNL     1      -0.968  -2.868   3.425  0.00  0.00    +0.067 A 
ATOM      8 CL   UNL     1      -0.698  -1.278   4.067  0.00  0.00    -0.081 Cl
ATOM      9 CL   UNL     1      -3.773  -5.702   3.767  0.00  0.00    -0.083 Cl
ATOM     10  S   UNL     1       1.074  -5.050   0.996  0.00  0.00    -0.052 S 
ATOM     11  C   UNL     1       1.909  -3.605   1.194  0.00  0.00    +0.167 A 
ATOM     12  N   UNL     1       3.059  -3.245   0.634  0.00  0.00    -0.152 NA
ENDROOT
BRANCH  12  13
ATOM     13  C   UNL     1       3.685  -4.079  -0.201  0.00  0.00    +0.269 C 
ATOM     14  O   UNL     1       3.202  -5.170  -0.450  0.00  0.00    -0.268 OA
BRANCH  13  15
ATOM     15  C   UNL     1       4.968  -3.678  -0.826  0.00  0.00    +0.039 A 
ATOM     16  C   UNL     1       5.525  -2.432  -0.537  0.00  0.00    +0.014 A 
ATOM     17  C   UNL     1       6.717  -2.058  -1.117  0.00  0.00    +0.012 A 
ATOM     18  C   UNL     1       7.369  -2.927  -1.994  0.00  0.00    +0.022 A 
ATOM     19  C   UNL     1       6.812  -4.175  -2.283  0.00  0.00    +0.012 A 
ATOM     20  C   UNL     1       5.622  -4.549  -1.698  0.00  0.00    +0.014 A 
BRANCH  18  21
ATOM     21  C   UNL     1       8.649  -2.527  -2.617  0.00  0.00    +0.193 C 
ATOM     22  O   UNL     1       9.341  -1.677  -2.092  0.00  0.00    -0.287 OA
BRANCH  21  23
ATOM     23  C   UNL     1       9.087  -3.160  -3.878  0.00  0.00    +0.022 A 
ATOM     24  C   UNL     1       8.150  -3.755  -4.727  0.00  0.00    +0.012 A 
ATOM     25  C   UNL     1       8.565  -4.344  -5.903  0.00  0.00    +0.001 A 
ATOM     26  C   UNL     1       9.907  -4.347  -6.243  0.00  0.00    +0.000 A 
ATOM     27  C   UNL     1      10.841  -3.760  -5.407  0.00  0.00    +0.001 A 
ATOM     28  C   UNL     1      10.438  -3.162  -4.230  0.00  0.00    +0.012 A 
ENDBRANCH  21  23
ENDBRANCH  18  21
ENDBRANCH  13  15
ENDBRANCH  12  13
BRANCH   1  29
ATOM     29  C   UNL     1       1.565  -1.550   2.476  0.00  0.00    +0.244 C 
BRANCH  29  30
ATOM     30  C   UNL     1       2.288  -1.639   3.795  0.00  0.00    +0.327 C 
ATOM     31  O   UNL     1       2.437  -2.712   4.332  0.00  0.00    -0.249 OA
BRANCH  30  32
ATOM     32  O   UNL     1       2.767  -0.527   4.375  0.00  0.00    -0.464 OA
BRANCH  32  34
ATOM     33  C   UNL     1       3.913   0.681   6.126  0.00  0.00    +0.048 C 
ATOM     34  C   UNL     1       3.442  -0.685   5.624  0.00  0.00    +0.229 C 
ENDBRANCH  32  34
ENDBRANCH  30  32
ENDBRANCH  29  30
ENDBRANCH   1  29
TORSDOF 8
