REMARK  Name = ZINC08739073
REMARK  6 active torsions:
REMARK  status: ('A' for Active; 'I' for Inactive)
REMARK    1  A    between atoms: C_1  and  C_2
REMARK    2  A    between atoms: C_5  and  C_8
REMARK    3  A    between atoms: N_12  and  C_13
REMARK    4  A    between atoms: C_13  and  C_15
REMARK    5  A    between atoms: C_15  and  N_47
REMARK    6  A    between atoms: C_18  and  C_21
REMARK                            x       y       z     vdW  Elec       q    Type
REMARK                         _______ _______ _______ _____ _____    ______ ____
ROOT
ATOM      1  C   UNL     1      -0.810   1.271  -1.257  0.00  0.00    +0.222 C 
ATOM      2  O   UNL     1      -1.944   1.708  -1.203  0.00  0.00    -0.276 OA
ENDROOT
BRANCH   1   7
ATOM      3  C   UNL     1      -1.504   1.106  -5.841  0.00  0.00    +0.055 A 
ATOM      4  C   UNL     1      -2.718   1.600  -5.512  0.00  0.00    +0.074 A 
ATOM      5  S   UNL     1      -2.599   1.721  -3.736  0.00  0.00    -0.060 S 
ATOM      6  C   UNL     1      -0.982   1.122  -3.551  0.00  0.00    +0.163 A 
ATOM      7  N   UNL     1      -0.276   0.958  -2.431  0.00  0.00    -0.158 NA
ATOM      8  N   UNL     1      -0.611   0.866  -4.837  0.00  0.00    -0.335 N 
ATOM      9  H   UNL     1       0.271   0.517  -5.035  0.00  0.00    +0.168 HD
BRANCH   3  14
ATOM     10  C   UNL     1      -0.125   0.067 -11.332  0.00  0.00    +0.044 C 
ATOM     11  C   UNL     1      -0.486   0.339  -9.894  0.00  0.00    -0.050 A 
ATOM     12  C   UNL     1      -1.735   0.844  -9.582  0.00  0.00    +0.004 A 
ATOM     13  C   UNL     1      -2.072   1.096  -8.267  0.00  0.00    +0.010 A 
ATOM     14  C   UNL     1      -1.150   0.839  -7.253  0.00  0.00    -0.001 A 
ATOM     15  C   UNL     1       0.111   0.335  -7.575  0.00  0.00    +0.010 A 
ATOM     16  C   UNL     1       0.433   0.082  -8.892  0.00  0.00    +0.004 A 
ENDBRANCH   3  14
ENDBRANCH   1   7
BRANCH   1  17
ATOM     17  C   UNL     1      -0.013   1.086   0.008  0.00  0.00    +0.021 C 
BRANCH  17  23
ATOM     18  C   UNL     1      -0.140   1.259   2.419  0.00  0.00    -0.077 C 
ATOM     19  C   UNL     1      -1.023   1.728   3.578  0.00  0.00    -0.006 C 
ATOM     20  C   UNL     1      -1.189   3.248   3.504  0.00  0.00    +0.071 C 
ATOM     21  C   UNL     1      -1.793   3.622   2.148  0.00  0.00    -0.006 C 
ATOM     22  C   UNL     1      -0.888   3.098   1.030  0.00  0.00    -0.077 C 
ATOM     23  N   UNL     1      -0.788   1.627   1.143  0.00  0.00    +0.385 N 
ATOM     24  H   UNL     1      -1.734   1.227   1.122  0.00  0.00    -0.081 HD
BRANCH  20  25
ATOM     25  C   UNL     1      -2.106   3.709   4.608  0.00  0.00    +0.213 C 
ATOM     26  O   UNL     1      -3.141   4.280   4.337  0.00  0.00    -0.276 OA
ATOM     27  N   UNL     1      -1.776   3.486   5.895  0.00  0.00    -0.329 N 
ATOM     28  H   UNL     1      -0.949   3.028   6.112  0.00  0.00    +0.145 HD
ATOM     29  H   UNL     1      -2.366   3.782   6.606  0.00  0.00    +0.145 HD
ENDBRANCH  20  25
ENDBRANCH  17  23
ENDBRANCH   1  17
TORSDOF 5
