REMARK  Name = ZINC38965515
REMARK  5 active torsions:
REMARK  status: ('A' for Active; 'I' for Inactive)
REMARK    1  A    between atoms: C_4  and  C_7
REMARK    2  A    between atoms: C_9  and  C_13
REMARK    3  A    between atoms: C_17  and  S_30
REMARK    4  A    between atoms: N_19  and  N_20
REMARK    5  A    between atoms: C_21  and  C_22
REMARK                            x       y       z     vdW  Elec       q    Type
REMARK                         _______ _______ _______ _____ _____    ______ ____
ROOT
ATOM      1  C   UNL     1       5.790  -3.029   0.987  0.00  0.00    +0.206 C 
ATOM      2  N   UNL     1       5.158  -4.359   1.139  0.00  0.00    -0.231 NA
ATOM      3  N   UNL     1       6.117  -5.129   1.947  0.00  0.00    -0.225 NA
ATOM      4  C   UNL     1       7.433  -4.668   1.431  0.00  0.00    +0.231 C 
ATOM      5  N   UNL     1       7.238  -3.226   1.173  0.00  0.00    -0.207 N 
ATOM      6  H   UNL     1       5.010  -4.794   0.241  0.00  0.00    +0.143 HD
ATOM      7  H   UNL     1       6.018  -4.915   2.928  0.00  0.00    +0.143 HD
ENDROOT
BRANCH   1  10
ATOM      8  C   UNL     1       3.895  -0.957  -0.841  0.00  0.00    +0.091 C 
ATOM      9  C   UNL     1       4.021  -2.281  -0.626  0.00  0.00    +0.034 C 
ATOM     10  C   UNL     1       5.512  -2.474  -0.412  0.00  0.00    +0.190 C 
ATOM     11  N   UNL     1       6.050  -1.110  -0.550  0.00  0.00    -0.176 NA
ATOM     12  N   UNL     1       5.109  -0.350  -0.788  0.00  0.00    -0.154 NA
BRANCH   8  16
ATOM     13  C   UNL     1       0.216   1.036  -1.599  0.00  0.00    +0.000 A 
ATOM     14  C   UNL     1       1.396   1.757  -1.566  0.00  0.00    +0.001 A 
ATOM     15  C   UNL     1       2.593   1.115  -1.321  0.00  0.00    +0.010 A 
ATOM     16  C   UNL     1       2.611  -0.262  -1.105  0.00  0.00    +0.002 A 
ATOM     17  C   UNL     1       1.419  -0.983  -1.139  0.00  0.00    +0.010 A 
ATOM     18  C   UNL     1       0.228  -0.331  -1.386  0.00  0.00    +0.001 A 
ENDBRANCH   8  16
ENDBRANCH   1  10
BRANCH   5  19
ATOM     19  N   UNL     1       8.233  -2.241   1.116  0.00  0.00    -0.188 NA
ATOM     20  C   UNL     1       9.484  -2.577   1.184  0.00  0.00    +0.139 C 
BRANCH  20  21
ATOM     21  C   UNL     1      10.524  -1.535   1.264  0.00  0.00    +0.014 A 
ATOM     22  C   UNL     1      11.873  -1.894   1.332  0.00  0.00    +0.011 A 
ATOM     23  C   UNL     1      12.841  -0.915   1.407  0.00  0.00    +0.002 A 
ATOM     24  C   UNL     1      12.481   0.421   1.415  0.00  0.00    +0.021 A 
ATOM     25  C   UNL     1      11.148   0.786   1.349  0.00  0.00    +0.060 A 
ATOM     26  C   UNL     1      10.167  -0.185   1.267  0.00  0.00    +0.068 A 
ATOM     27 CL   UNL     1       8.495   0.273   1.176  0.00  0.00    -0.081 Cl
ATOM     28 CL   UNL     1      10.707   2.465   1.362  0.00  0.00    -0.082 Cl
ENDBRANCH  20  21
ENDBRANCH   5  19
BRANCH   4  29
ATOM     29  S   UNL     1       8.727  -4.923   2.677  0.00  0.00    -0.138 S 
ATOM     30  H   UNL     1       8.737  -6.254   2.868  0.00  0.00    +0.105 HD
ENDBRANCH   4  29
TORSDOF 5
