REMARK  Name = ZINC62261158
REMARK  8 active torsions:
REMARK  status: ('A' for Active; 'I' for Inactive)
REMARK    1  A    between atoms: C_1  and  C_2
REMARK    2  A    between atoms: C_2  and  C_3
REMARK    3  A    between atoms: C_2  and  C_4
REMARK    4  A    between atoms: C_2  and  C_5
REMARK    5  A    between atoms: C_6  and  C_21
REMARK    6  A    between atoms: N_9  and  C_10
REMARK    7  A    between atoms: C_13  and  N_16
REMARK    8  A    between atoms: C_21  and  N_22
REMARK                            x       y       z     vdW  Elec       q    Type
REMARK                         _______ _______ _______ _____ _____    ______ ____
ROOT
ATOM      1  C   UNL     1       1.314  -0.575  -0.073  0.00  0.00    +0.071 A 
ATOM      2  C   UNL     1       1.323  -1.907   0.172  0.00  0.00    +0.070 A 
ATOM      3  N   UNL     1       2.557  -2.338  -0.109  0.00  0.00    -0.136 NA
ATOM      4  N   UNL     1       3.270  -1.342  -0.503  0.00  0.00    -0.060 NA
ATOM      5  N   UNL     1       2.567  -0.264  -0.503  0.00  0.00    -0.216 N 
ENDROOT
BRANCH   5   6
ATOM      6  C   UNL     1       3.016   1.012  -0.879  0.00  0.00    +0.067 A 
ATOM      7  C   UNL     1       2.314   1.743  -1.828  0.00  0.00    +0.029 A 
ATOM      8  C   UNL     1       2.755   2.998  -2.197  0.00  0.00    +0.025 A 
ATOM      9  C   UNL     1       3.902   3.529  -1.620  0.00  0.00    +0.030 A 
ATOM     10  C   UNL     1       4.604   2.797  -0.671  0.00  0.00    +0.025 A 
ATOM     11  C   UNL     1       4.159   1.544  -0.298  0.00  0.00    +0.029 A 
BRANCH   9  12
ATOM     12  N   UNL     1       4.349   4.799  -1.995  0.00  0.00    -0.330 N 
ATOM     13  C   UNL     1       3.702   5.680  -2.978  0.00  0.00    +0.105 C 
ATOM     14  C   UNL     1       4.560   6.958  -3.082  0.00  0.00    +0.020 C 
ATOM     15  C   UNL     1       5.948   6.488  -2.573  0.00  0.00    +0.020 C 
ATOM     16  C   UNL     1       5.544   5.480  -1.465  0.00  0.00    +0.105 C 
ENDBRANCH   9  12
ENDBRANCH   5   6
BRANCH   1  18
ATOM     17  C   UNL     1      -0.656   0.415  -1.208  0.00  0.00    +0.017 C 
ATOM     18  C   UNL     1       0.152   0.370   0.091  0.00  0.00    +0.006 C 
ATOM     19  C   UNL     1       0.674   1.770   0.415  0.00  0.00    +0.017 C 
ATOM     20  C   UNL     1      -0.744  -0.117   1.232  0.00  0.00    +0.017 C 
ENDBRANCH   1  18
BRANCH   2  21
ATOM     21  C   UNL     1       0.168  -2.739   0.666  0.00  0.00    -0.026 C 
BRANCH  21  22
ATOM     22  N   UNL     1      -0.808  -2.914  -0.418  0.00  0.00    +0.382 N 
ATOM     23  H   UNL     1      -1.137  -2.010  -0.724  0.00  0.00    -0.090 HD
ATOM     24  H   UNL     1      -0.371  -3.392  -1.191  0.00  0.00    -0.090 HD
ATOM     25  H   UNL     1      -1.588  -3.460  -0.083  0.00  0.00    -0.090 HD
ENDBRANCH  21  22
ENDBRANCH   2  21
TORSDOF 5
