REMARK  Name = ZINC04538326
REMARK  6 active torsions:
REMARK  status: ('A' for Active; 'I' for Inactive)
REMARK    1  A    between atoms: C_1  and  C_2
REMARK    2  A    between atoms: C_10  and  C_12
REMARK    3  A    between atoms: C_12  and  S_13
REMARK    4  A    between atoms: S_13  and  C_14
REMARK    5  A    between atoms: C_17  and  C_20
REMARK    6  A    between atoms: N_18  and  N_19
REMARK                            x       y       z     vdW  Elec       q    Type
REMARK                         _______ _______ _______ _____ _____    ______ ____
ROOT
ATOM      1  S   UNL     1      -4.950  -1.809   0.446  0.00  0.00    -0.078 S 
ENDROOT
BRANCH   1   2
ATOM      2  C   UNL     1      -3.214  -1.659   0.183  0.00  0.00    +0.209 A 
ATOM      3  N   UNL     1      -2.393  -2.623  -0.170  0.00  0.00    -0.120 NA
ATOM      4  N   UNL     1      -1.196  -2.167  -0.278  0.00  0.00    -0.123 NA
ATOM      5  C   UNL     1      -1.177  -0.884   0.008  0.00  0.00    +0.217 A 
ATOM      6  N   UNL     1      -2.471  -0.519   0.309  0.00  0.00    -0.221 N 
BRANCH   5   7
ATOM      7  C   UNL     1       0.002  -0.004   0.002  0.00  0.00    +0.173 A 
ATOM      8  C   UNL     1       1.303  -0.409  -0.013  0.00  0.00    +0.053 A 
ATOM      9  C   UNL     1       2.091   0.758  -0.014  0.00  0.00    +0.042 A 
ATOM     10  C   UNL     1       1.245   1.807  -0.000  0.00  0.00    +0.196 A 
ATOM     11  O   UNL     1      -0.016   1.343   0.009  0.00  0.00    -0.460 OA
ENDBRANCH   5   7
BRANCH   6  12
ATOM     12  N   UNL     1      -2.917   0.724   0.660  0.00  0.00    -0.294 N 
ATOM     13  H   UNL     1      -3.190   1.253  -0.154  0.00  0.00    +0.163 HD
ATOM     14  H   UNL     1      -3.677   0.661   1.322  0.00  0.00    +0.163 HD
ENDBRANCH   6  12
ENDBRANCH   1   2
BRANCH   1  15
ATOM     15  C   UNL     1      -5.170  -3.570   0.093  0.00  0.00    +0.133 C 
BRANCH  15  25
ATOM     16  C   UNL     1     -11.573  -5.206  -0.173  0.00  0.00    +0.064 C 
ATOM     17  C   UNL     1     -10.573  -4.937   0.921  0.00  0.00    +0.033 A 
ATOM     18  C   UNL     1     -10.957  -5.019   2.195  0.00  0.00    +0.070 A 
ATOM     19  S   UNL     1      -9.444  -4.623   3.059  0.00  0.00    -0.057 S 
ATOM     20  C   UNL     1      -8.416  -4.379   1.627  0.00  0.00    +0.180 A 
ATOM     21  N   UNL     1      -9.279  -4.612   0.590  0.00  0.00    -0.259 N 
ATOM     22  C   UNL     1      -8.763  -4.495  -0.670  0.00  0.00    +0.259 A 
ATOM     23  O   UNL     1      -9.475  -4.689  -1.643  0.00  0.00    -0.267 OA
ATOM     24  C   UNL     1      -7.421  -4.155  -0.844  0.00  0.00    +0.095 A 
ATOM     25  C   UNL     1      -6.622  -3.938   0.259  0.00  0.00    +0.059 A 
ATOM     26  N   UNL     1      -7.154  -4.064   1.472  0.00  0.00    -0.227 NA
ENDBRANCH  15  25
ENDBRANCH   1  15
TORSDOF 5
