REMARK  Name = ZINC66709725
REMARK  4 active torsions:
REMARK  status: ('A' for Active; 'I' for Inactive)
REMARK    1  A    between atoms: C_1  and  C_2
REMARK    2  A    between atoms: C_6  and  C_25
REMARK    3  A    between atoms: C_10  and  C_12
REMARK    4  A    between atoms: C_15  and  C_20
REMARK                            x       y       z     vdW  Elec       q    Type
REMARK                         _______ _______ _______ _____ _____    ______ ____
ROOT
ATOM      1  C   UNL     1       0.074   1.497  -0.081  0.00  0.00    +0.030 C 
ATOM      2  C   UNL     1      -0.505   0.222   0.536  0.00  0.00    +0.099 C 
ATOM      3  C   UNL     1      -1.909   0.505   1.081  0.00  0.00    +0.183 C 
ATOM      4  O   UNL     1      -2.367  -0.632   1.817  0.00  0.00    -0.369 OA
ATOM      5  C   UNL     1      -1.575  -0.943   2.966  0.00  0.00    +0.166 C 
ATOM      6  C   UNL     1      -0.153  -1.300   2.518  0.00  0.00    +0.144 C 
ATOM      7  N   UNL     1       0.347  -0.219   1.652  0.00  0.00    -0.290 N 
ATOM      8  C   UNL     1       1.548   0.350   1.875  0.00  0.00    +0.252 C 
ATOM      9  O   UNL     1       1.906   1.299   1.204  0.00  0.00    -0.270 OA
ENDROOT
BRANCH   8  10
ATOM     10  C   UNL     1       2.424  -0.176   2.929  0.00  0.00    +0.101 A 
ATOM     11  C   UNL     1       3.115   0.699   3.775  0.00  0.00    +0.020 A 
ATOM     12  C   UNL     1       3.935   0.177   4.762  0.00  0.00    +0.030 A 
ATOM     13  C   UNL     1       4.062  -1.200   4.899  0.00  0.00    +0.085 A 
ATOM     14  N   UNL     1       3.384  -2.050   4.068  0.00  0.00    -0.319 N 
ATOM     15  H   UNL     1       3.484  -3.009   4.179  0.00  0.00    +0.169 HD
ATOM     16  C   UNL     1       2.575  -1.573   3.103  0.00  0.00    +0.261 A 
ATOM     17  O   UNL     1       1.975  -2.346   2.376  0.00  0.00    -0.267 OA
BRANCH  13  18
ATOM     18  C   UNL     1       4.931  -1.746   5.943  0.00  0.00    +0.151 A 
ATOM     19  C   UNL     1       5.154  -3.073   6.190  0.00  0.00    +0.051 A 
ATOM     20  C   UNL     1       6.047  -3.137   7.271  0.00  0.00    +0.042 A 
ATOM     21  C   UNL     1       6.325  -1.865   7.634  0.00  0.00    +0.196 A 
ATOM     22  O   UNL     1       5.655  -1.030   6.827  0.00  0.00    -0.461 OA
ENDBRANCH  13  18
ENDBRANCH   8  10
BRANCH   5  23
ATOM     23  C   UNL     1      -2.183  -2.113   3.695  0.00  0.00    -0.017 A 
ATOM     24  C   UNL     1      -2.702  -3.177   2.982  0.00  0.00    +0.006 A 
ATOM     25  C   UNL     1      -3.260  -4.251   3.650  0.00  0.00    +0.000 A 
ATOM     26  C   UNL     1      -3.297  -4.261   5.032  0.00  0.00    +0.000 A 
ATOM     27  C   UNL     1      -2.776  -3.197   5.745  0.00  0.00    +0.000 A 
ATOM     28  C   UNL     1      -2.215  -2.126   5.077  0.00  0.00    +0.006 A 
ENDBRANCH   5  23
TORSDOF 3
