REMARK  Name = ZINC06409288
REMARK  8 active torsions:
REMARK  status: ('A' for Active; 'I' for Inactive)
REMARK    1  A    between atoms: C_1  and  C_2
REMARK    2  A    between atoms: C_9  and  C_14
REMARK    3  A    between atoms: C_14  and  C_16
REMARK    4  A    between atoms: C_14  and  N_70
REMARK    5  A    between atoms: N_20  and  C_21
REMARK    6  A    between atoms: C_21  and  C_22
REMARK    7  A    between atoms: C_31  and  C_34
REMARK    8  A    between atoms: C_34  and  C_35
REMARK                            x       y       z     vdW  Elec       q    Type
REMARK                         _______ _______ _______ _____ _____    ______ ____
ROOT
ATOM      1  C   UNL     1      -2.498  -0.657   1.744  0.00  0.00    +0.039 C 
ENDROOT
BRANCH   1  10
ATOM      2  C   UNL     1      -5.610  -5.403  -3.094  0.00  0.00    +0.044 C 
ATOM      3  C   UNL     1      -5.246  -5.013  -1.685  0.00  0.00    -0.050 A 
ATOM      4  C   UNL     1      -5.589  -5.848  -0.630  0.00  0.00    +0.005 A 
ATOM      5  C   UNL     1      -5.267  -5.512   0.667  0.00  0.00    +0.026 A 
ATOM      6  C   UNL     1      -4.590  -4.324   0.924  0.00  0.00    +0.049 A 
ATOM      7  C   UNL     1      -4.244  -3.480  -0.148  0.00  0.00    -0.001 A 
ATOM      8  C   UNL     1      -4.582  -3.842  -1.456  0.00  0.00    +0.013 A 
ATOM      9  C   UNL     1      -3.531  -2.232   0.133  0.00  0.00    +0.017 A 
ATOM     10  C   UNL     1      -3.230  -1.934   1.421  0.00  0.00    +0.011 A 
ATOM     11  C   UNL     1      -3.595  -2.817   2.459  0.00  0.00    +0.251 A 
ATOM     12  O   UNL     1      -3.310  -2.533   3.609  0.00  0.00    -0.268 OA
ATOM     13  N   UNL     1      -4.254  -3.963   2.212  0.00  0.00    -0.322 N 
ATOM     14  H   UNL     1      -4.493  -4.546   2.949  0.00  0.00    +0.169 HD
ENDBRANCH   1  10
BRANCH   1  20
ATOM     15  C   UNL     1      -2.494   1.271   3.208  0.00  0.00    -0.077 C 
ATOM     16  C   UNL     1      -3.240   1.948   4.360  0.00  0.00    -0.015 C 
ATOM     17  C   UNL     1      -4.633   2.368   3.882  0.00  0.00    -0.010 C 
ATOM     18  C   UNL     1      -5.383   1.134   3.371  0.00  0.00    -0.015 C 
ATOM     19  C   UNL     1      -4.574   0.481   2.248  0.00  0.00    -0.077 C 
ATOM     20  N   UNL     1      -3.254   0.078   2.779  0.00  0.00    +0.389 N 
ATOM     21  H   UNL     1      -3.394  -0.537   3.589  0.00  0.00    -0.080 HD
BRANCH  17  22
ATOM     22  C   UNL     1      -5.407   2.990   5.046  0.00  0.00    +0.038 C 
BRANCH  22  23
ATOM     23  C   UNL     1      -4.735   4.272   5.468  0.00  0.00    -0.047 A 
ATOM     24  C   UNL     1      -3.754   4.250   6.441  0.00  0.00    +0.003 A 
ATOM     25  C   UNL     1      -3.134   5.425   6.825  0.00  0.00    +0.000 A 
ATOM     26  C   UNL     1      -3.503   6.622   6.242  0.00  0.00    +0.000 A 
ATOM     27  C   UNL     1      -4.487   6.645   5.271  0.00  0.00    +0.000 A 
ATOM     28  C   UNL     1      -5.104   5.470   4.885  0.00  0.00    +0.003 A 
ENDBRANCH  22  23
ENDBRANCH  17  22
ENDBRANCH   1  20
BRANCH   1  29
ATOM     29  C   UNL     1      -1.128  -0.986   2.279  0.00  0.00    +0.143 A 
ATOM     30  N   UNL     1      -0.844  -1.447   3.473  0.00  0.00    -0.115 NA
ATOM     31  N   UNL     1       0.433  -1.600   3.547  0.00  0.00    -0.023 NA
ATOM     32  N   UNL     1       0.971  -1.253   2.430  0.00  0.00    -0.044 NA
ATOM     33  N   UNL     1       0.042  -0.863   1.624  0.00  0.00    -0.226 N 
BRANCH  33  34
ATOM     34  C   UNL     1       0.224  -0.384   0.252  0.00  0.00    +0.182 C 
BRANCH  34  35
ATOM     35  C   UNL     1       0.418   1.111   0.264  0.00  0.00    -0.026 A 
ATOM     36  C   UNL     1      -0.675   1.950   0.160  0.00  0.00    +0.008 A 
ATOM     37  C   UNL     1      -0.499   3.321   0.176  0.00  0.00    +0.038 A 
ATOM     38  C   UNL     1       0.774   3.853   0.285  0.00  0.00    +0.123 A 
ATOM     39  C   UNL     1       1.869   3.012   0.384  0.00  0.00    +0.038 A 
ATOM     40  C   UNL     1       1.690   1.641   0.373  0.00  0.00    +0.008 A 
ATOM     41  F   UNL     1       0.948   5.193   0.296  0.00  0.00    -0.205 F 
ENDBRANCH  34  35
ENDBRANCH  33  34
ENDBRANCH   1  29
TORSDOF 7
