REMARK  Name = ZINC50527152
REMARK  2 active torsions:
REMARK  status: ('A' for Active; 'I' for Inactive)
REMARK    1  A    between atoms: N_9  and  C_10
REMARK    2  A    between atoms: C_10  and  C_19
REMARK                            x       y       z     vdW  Elec       q    Type
REMARK                         _______ _______ _______ _____ _____    ______ ____
ROOT
ATOM      1  C   UNL     1       4.879  -0.533  -0.048  0.00  0.00    +0.190 C 
ATOM      2  C   UNL     1       5.721  -1.826  -0.008  0.00  0.00    +0.051 C 
ATOM      3  C   UNL     1       5.957  -2.114  -1.506  0.00  0.00    +0.039 C 
ATOM      4  C   UNL     1       5.873  -0.765  -2.187  0.00  0.00    -0.041 A 
ATOM      5  C   UNL     1       5.253   0.144  -1.349  0.00  0.00    -0.006 A 
ATOM      6  C   UNL     1       5.066   1.450  -1.768  0.00  0.00    +0.007 A 
ATOM      7  C   UNL     1       5.496   1.848  -3.019  0.00  0.00    +0.000 A 
ATOM      8  C   UNL     1       6.115   0.940  -3.856  0.00  0.00    +0.000 A 
ATOM      9  C   UNL     1       6.304  -0.364  -3.441  0.00  0.00    +0.004 A 
ENDROOT
BRANCH   1  18
ATOM     10  C   UNL     1       0.971  -2.904   2.533  0.00  0.00    +0.001 A 
ATOM     11  C   UNL     1       2.307  -2.827   2.908  0.00  0.00    +0.002 A 
ATOM     12  C   UNL     1       3.216  -2.171   2.127  0.00  0.00    +0.028 A 
ATOM     13  C   UNL     1       2.805  -1.570   0.940  0.00  0.00    +0.071 A 
ATOM     14  C   UNL     1       1.452  -1.647   0.558  0.00  0.00    +0.020 A 
ATOM     15  C   UNL     1       0.539  -2.325   1.375  0.00  0.00    +0.011 A 
ATOM     16  C   UNL     1       1.342  -0.931  -0.709  0.00  0.00    +0.143 A 
ATOM     17  N   UNL     1       2.526  -0.488  -1.019  0.00  0.00    -0.177 NA
ATOM     18  N   UNL     1       3.450  -0.857  -0.036  0.00  0.00    -0.242 N 
ENDBRANCH   1  18
BRANCH   1  19
ATOM     19  C   UNL     1       5.223   0.354   1.120  0.00  0.00    +0.387 C 
ATOM     20  O   UNL     1       4.356   0.683   1.912  0.00  0.00    -0.243 OA
ATOM     21  O   UNL     1       6.369   0.742   1.274  0.00  0.00    -0.243 OA
ENDBRANCH   1  19
TORSDOF 2
