REMARK  Name = ZINC38650889
REMARK  12 active torsions:
REMARK  status: ('A' for Active; 'I' for Inactive)
REMARK    1  A    between atoms: C_1  and  C_2
REMARK    2  A    between atoms: C_2  and  C_3
REMARK    3  A    between atoms: C_3  and  C_4
REMARK    4  A    between atoms: C_4  and  O_5
REMARK    5  A    between atoms: O_5  and  C_6
REMARK    6  A    between atoms: C_9  and  C_12
REMARK    7  A    between atoms: C_17  and  O_26
REMARK    8  A    between atoms: C_21  and  N_25
REMARK    9  A    between atoms: C_22  and  C_23
REMARK   10  A    between atoms: O_26  and  C_27
REMARK   11  A    between atoms: C_27  and  C_29
REMARK   12  A    between atoms: C_31  and  N_36
REMARK                            x       y       z     vdW  Elec       q    Type
REMARK                         _______ _______ _______ _____ _____    ______ ____
ROOT
ATOM      1  C   UNL     1      -3.374  -8.116  -0.045  0.00  0.00    +0.098 C 
ATOM      2  C   UNL     1      -4.148  -8.533  -1.268  0.00  0.00    +0.008 A 
ATOM      3  C   UNL     1      -3.540  -8.480  -2.510  0.00  0.00    +0.012 A 
ATOM      4  C   UNL     1      -4.234  -8.859  -3.641  0.00  0.00    +0.047 A 
ATOM      5  C   UNL     1      -5.548  -9.295  -3.536  0.00  0.00    +0.135 A 
ATOM      6  C   UNL     1      -6.160  -9.349  -2.295  0.00  0.00    +0.093 A 
ATOM      7  C   UNL     1      -5.460  -8.967  -1.157  0.00  0.00    +0.138 A 
ATOM      8  O   UNL     1      -6.074  -9.025   0.051  0.00  0.00    -0.441 OA
ATOM      9  C   UNL     1      -5.339  -9.042   1.175  0.00  0.00    +0.199 C 
ATOM     10  C   UNL     1      -4.055  -8.624   1.195  0.00  0.00    +0.098 C 
ENDROOT
BRANCH   1  14
ATOM     11  C   UNL     1      -3.157  -3.851   0.105  0.00  0.00    +0.121 A 
ATOM     12  C   UNL     1      -1.994  -4.603   0.033  0.00  0.00    +0.046 A 
ATOM     13  C   UNL     1      -2.067  -5.982  -0.015  0.00  0.00    +0.008 A 
ATOM     14  C   UNL     1      -3.298  -6.612   0.008  0.00  0.00    -0.034 A 
ATOM     15  C   UNL     1      -4.458  -5.864   0.079  0.00  0.00    +0.008 A 
ATOM     16  C   UNL     1      -4.391  -4.485   0.133  0.00  0.00    +0.046 A 
BRANCH  11  17
ATOM     17  O   UNL     1      -3.088  -2.494   0.152  0.00  0.00    -0.492 OA
BRANCH  17  18
ATOM     18  C   UNL     1      -1.785  -1.909   0.119  0.00  0.00    +0.229 C 
BRANCH  18  19
ATOM     19  C   UNL     1      -1.908  -0.386   0.182  0.00  0.00    +0.041 C 
BRANCH  19  21
ATOM     20  C   UNL     1      -0.635   1.764   0.208  0.00  0.00    +0.004 C 
ATOM     21  C   UNL     1      -0.512   0.240   0.146  0.00  0.00    -0.000 C 
ENDBRANCH  19  21
ENDBRANCH  18  19
ENDBRANCH  17  18
ENDBRANCH  11  17
ENDBRANCH   1  14
BRANCH   9  22
ATOM     22  N   UNL     1      -5.911  -9.496   2.338  0.00  0.00    -0.328 N 
ATOM     23  H   UNL     1      -6.833  -9.798   2.339  0.00  0.00    +0.145 HD
ATOM     24  H   UNL     1      -5.394  -9.514   3.158  0.00  0.00    +0.145 HD
ENDBRANCH   9  22
BRANCH  10  25
ATOM     25  C   UNL     1      -3.326  -8.666   2.427  0.00  0.00    +0.101 C 
ATOM     26  N   UNL     1      -2.748  -8.700   3.404  0.00  0.00    -0.191 NA
ENDBRANCH  10  25
BRANCH   5  27
ATOM     27  O   UNL     1      -6.232  -9.667  -4.649  0.00  0.00    -0.422 OA
BRANCH  27  28
ATOM     28  C   UNL     1      -5.856 -10.801  -5.274  0.00  0.00    +0.346 C 
ATOM     29  O   UNL     1      -5.001 -11.510  -4.782  0.00  0.00    -0.244 OA
BRANCH  28  30
ATOM     30  C   UNL     1      -6.484 -11.181  -6.555  0.00  0.00    +0.080 A 
ATOM     31  C   UNL     1      -7.463 -10.365  -7.126  0.00  0.00    +0.049 A 
ATOM     32  C   UNL     1      -8.045 -10.726  -8.323  0.00  0.00    +0.127 A 
ATOM     33  C   UNL     1      -7.661 -11.894  -8.959  0.00  0.00    +0.034 A 
ATOM     34  C   UNL     1      -6.693 -12.707  -8.400  0.00  0.00    +0.023 A 
ATOM     35  C   UNL     1      -6.096 -12.355  -7.205  0.00  0.00    +0.055 A 
ATOM     36 CL   UNL     1      -4.875 -13.373  -6.509  0.00  0.00    -0.083 Cl
BRANCH  32  37
ATOM     37  N   UNL     1      -9.083  -9.862  -8.929  0.00  0.00    +0.056 N 
ATOM     38  O   UNL     1      -9.419  -8.841  -8.375  0.00  0.00    -0.126 OA
ATOM     39  O   UNL     1      -9.594 -10.177  -9.978  0.00  0.00    -0.126 OA
ENDBRANCH  32  37
ENDBRANCH  28  30
ENDBRANCH  27  28
ENDBRANCH   5  27
TORSDOF 11
