REMARK  Name = ZINC43287678
REMARK  12 active torsions:
REMARK  status: ('A' for Active; 'I' for Inactive)
REMARK    1  A    between atoms: C_1  and  C_2
REMARK    2  A    between atoms: C_2  and  C_3
REMARK    3  A    between atoms: C_3  and  C_5
REMARK    4  A    between atoms: C_3  and  N_22
REMARK    5  A    between atoms: C_5  and  C_7
REMARK    6  A    between atoms: C_5  and  N_13
REMARK    7  A    between atoms: N_13  and  C_14
REMARK    8  A    between atoms: N_13  and  C_18
REMARK    9  A    between atoms: C_14  and  C_15
REMARK   10  A    between atoms: C_15  and  C_16
REMARK   11  A    between atoms: C_15  and  C_17
REMARK   12  A    between atoms: C_18  and  C_19
REMARK                            x       y       z     vdW  Elec       q    Type
REMARK                         _______ _______ _______ _____ _____    ______ ____
ROOT
ATOM      1  C   UNL     1       0.322  -2.381  -1.687  0.00  0.00    -0.045 C 
ENDROOT
BRANCH   1   2
ATOM      2  C   UNL     1       1.399  -2.958  -0.805  0.00  0.00    -0.024 A 
ATOM      3  C   UNL     1       2.472  -2.340  -0.252  0.00  0.00    +0.024 A 
ATOM      4  C   UNL     1       3.339  -3.077   0.533  0.00  0.00    +0.025 A 
ATOM      5  C   UNL     1       3.091  -4.396   0.727  0.00  0.00    +0.060 A 
ATOM      6  S   UNL     1       1.589  -4.631  -0.210  0.00  0.00    -0.102 S 
ATOM      7 BR   UNL     1       4.849  -2.259   1.324  0.00  0.00    -0.050 Br
ENDBRANCH   1   2
BRANCH   1   8
ATOM      8  N   UNL     1      -0.996  -2.767  -1.166  0.00  0.00    +0.389 N 
ATOM      9  H   UNL     1      -1.714  -2.452  -1.802  0.00  0.00    -0.080 HD
BRANCH   8  10
ATOM     10  C   UNL     1      -1.202  -2.148   0.150  0.00  0.00    -0.074 C 
BRANCH  10  11
ATOM     11  C   UNL     1      -2.640  -2.396   0.611  0.00  0.00    -0.034 C 
ATOM     12  C   UNL     1      -2.806  -1.904   2.050  0.00  0.00    +0.005 C 
ATOM     13  C   UNL     1      -3.606  -1.638  -0.302  0.00  0.00    +0.005 C 
ENDBRANCH  10  11
ENDBRANCH   8  10
BRANCH   8  14
ATOM     14  C   UNL     1      -1.063  -4.228  -1.036  0.00  0.00    +0.019 C 
BRANCH  14  15
ATOM     15  C   UNL     1      -2.492  -4.681  -1.188  0.00  0.00    +0.194 C 
ATOM     16  O   UNL     1      -3.347  -3.889  -1.526  0.00  0.00    -0.278 OA
ATOM     17  N   UNL     1      -2.821  -5.966  -0.949  0.00  0.00    -0.331 N 
ATOM     18  H   UNL     1      -2.138  -6.599  -0.679  0.00  0.00    +0.145 HD
ATOM     19  H   UNL     1      -3.741  -6.257  -1.047  0.00  0.00    +0.145 HD
ENDBRANCH  14  15
ENDBRANCH   8  14
ENDBRANCH   1   8
BRANCH   1  20
ATOM     20  C   UNL     1       0.486  -2.920  -3.110  0.00  0.00    -0.085 C 
BRANCH  20  21
ATOM     21  N   UNL     1       1.822  -2.575  -3.614  0.00  0.00    +0.379 N 
ATOM     22  H   UNL     1       2.523  -2.985  -3.016  0.00  0.00    -0.090 HD
ATOM     23  H   UNL     1       1.929  -2.930  -4.552  0.00  0.00    -0.090 HD
ATOM     24  H   UNL     1       1.930  -1.571  -3.620  0.00  0.00    -0.090 HD
ENDBRANCH  20  21
BRANCH  20  26
ATOM     25  C   UNL     1      -0.491  -2.924  -5.410  0.00  0.00    +0.002 C 
ATOM     26  C   UNL     1      -0.578  -2.298  -4.016  0.00  0.00    -0.021 C 
ENDBRANCH  20  26
ENDBRANCH   1  20
TORSDOF 9
