REMARK  Name = ZINC12136755
REMARK  11 active torsions:
REMARK  status: ('A' for Active; 'I' for Inactive)
REMARK    1  A    between atoms: C_1  and  C_2
REMARK    2  A    between atoms: C_2  and  C_3
REMARK    3  A    between atoms: C_2  and  C_5
REMARK    4  A    between atoms: C_2  and  N_8
REMARK    5  A    between atoms: C_9  and  C_11
REMARK    6  A    between atoms: C_11  and  S_12
REMARK    7  A    between atoms: S_12  and  C_13
REMARK    8  A    between atoms: C_16  and  C_28
REMARK    9  A    between atoms: N_17  and  C_18
REMARK   10  A    between atoms: C_23  and  C_24
REMARK   11  A    between atoms: C_28  and  N_61
REMARK                            x       y       z     vdW  Elec       q    Type
REMARK                         _______ _______ _______ _____ _____    ______ ____
ROOT
ATOM      1  C   UNL     1       5.962   2.083  -2.845  0.00  0.00    +0.197 A 
ATOM      2  N   UNL     1       6.242   2.554  -1.653  0.00  0.00    -0.122 NA
ATOM      3  N   UNL     1       7.426   3.054  -1.646  0.00  0.00    -0.135 NA
ATOM      4  C   UNL     1       7.967   2.942  -2.826  0.00  0.00    +0.122 A 
ATOM      5  N   UNL     1       7.054   2.318  -3.635  0.00  0.00    -0.275 N 
ENDROOT
BRANCH   5   6
ATOM      6  C   UNL     1       7.207   1.990  -4.990  0.00  0.00    +0.062 A 
ATOM      7  C   UNL     1       6.889   2.920  -5.971  0.00  0.00    +0.027 A 
ATOM      8  C   UNL     1       7.041   2.594  -7.304  0.00  0.00    +0.002 A 
ATOM      9  C   UNL     1       7.508   1.343  -7.663  0.00  0.00    +0.001 A 
ATOM     10  C   UNL     1       7.826   0.415  -6.688  0.00  0.00    +0.014 A 
ATOM     11  C   UNL     1       7.681   0.737  -5.353  0.00  0.00    +0.079 A 
BRANCH  11  12
ATOM     12  C   UNL     1       8.034  -0.272  -4.291  0.00  0.00    +0.419 C 
ATOM     13  F   UNL     1       8.485  -1.449  -4.897  0.00  0.00    -0.166 F 
ATOM     14  F   UNL     1       9.042   0.246  -3.471  0.00  0.00    -0.166 F 
ATOM     15  F   UNL     1       6.901  -0.551  -3.518  0.00  0.00    -0.166 F 
ENDBRANCH  11  12
ENDBRANCH   5   6
BRANCH   1  16
ATOM     16  S   UNL     1       4.462   1.301  -3.338  0.00  0.00    -0.076 S 
BRANCH  16  17
ATOM     17  C   UNL     1       3.548   1.365  -1.777  0.00  0.00    +0.173 C 
BRANCH  17  19
ATOM     18  N   UNL     1       1.331   0.667  -0.928  0.00  0.00    -0.297 N 
ATOM     19  C   UNL     1       2.192   0.733  -1.963  0.00  0.00    +0.224 C 
ATOM     20  O   UNL     1       1.875   0.285  -3.044  0.00  0.00    -0.275 OA
ATOM     21  H   UNL     1       1.585   1.026  -0.063  0.00  0.00    +0.150 HD
BRANCH  18  23
ATOM     22  C   UNL     1      -0.761   0.817  -2.185  0.00  0.00    +0.048 C 
ATOM     23  C   UNL     1       0.013   0.054  -1.108  0.00  0.00    +0.121 C 
BRANCH  23  24
ATOM     24  C   UNL     1      -0.759   0.107   0.211  0.00  0.00    +0.026 C 
ATOM     25  C   UNL     1      -1.121  -1.224   0.872  0.00  0.00    +0.007 C 
ATOM     26  C   UNL     1      -2.209  -0.382   0.201  0.00  0.00    +0.007 C 
ENDBRANCH  23  24
BRANCH  23  27
ATOM     27  C   UNL     1       0.178  -1.349  -1.524  0.00  0.00    +0.088 C 
ATOM     28  N   UNL     1       0.305  -2.431  -1.845  0.00  0.00    -0.194 NA
ENDBRANCH  23  27
ENDBRANCH  18  23
ENDBRANCH  17  19
ENDBRANCH  16  17
ENDBRANCH   1  16
BRANCH   4  29
ATOM     29  C   UNL     1       9.342   3.411  -3.227  0.00  0.00    -0.001 C 
BRANCH  29  35
ATOM     30  C   UNL     1      10.526   2.311  -1.424  0.00  0.00    -0.078 C 
ATOM     31  C   UNL     1      11.448   1.137  -1.089  0.00  0.00    -0.019 C 
ATOM     32  C   UNL     1      12.793   1.333  -1.794  0.00  0.00    -0.004 C 
ATOM     33  C   UNL     1      12.557   1.452  -3.302  0.00  0.00    -0.019 C 
ATOM     34  C   UNL     1      11.603   2.617  -3.573  0.00  0.00    -0.078 C 
ATOM     35  N   UNL     1      10.319   2.356  -2.888  0.00  0.00    +0.384 N 
ATOM     36  H   UNL     1       9.953   1.449  -3.200  0.00  0.00    -0.081 HD
ENDBRANCH  29  35
ENDBRANCH   4  29
TORSDOF 10
