REMARK  Name = ZINC39653903
REMARK  9 active torsions:
REMARK  status: ('A' for Active; 'I' for Inactive)
REMARK    1  A    between atoms: C_1  and  C_2
REMARK    2  A    between atoms: C_2  and  O_3
REMARK    3  A    between atoms: O_3  and  C_4
REMARK    4  A    between atoms: C_7  and  C_10
REMARK    5  A    between atoms: C_10  and  C_11
REMARK    6  A    between atoms: C_11  and  N_12
REMARK    7  A    between atoms: C_13  and  C_15
REMARK    8  A    between atoms: C_26  and  C_28
REMARK    9  A    between atoms: N_32  and  C_33
REMARK                            x       y       z     vdW  Elec       q    Type
REMARK                         _______ _______ _______ _____ _____    ______ ____
ROOT
ATOM      1  C   UNL     1      -0.296 -11.028  -3.426  0.00  0.00    +0.100 C 
ATOM      2  C   UNL     1      -0.518 -11.595  -2.006  0.00  0.00    +0.121 C 
ATOM      3  N   UNL     1      -1.990 -11.605  -1.833  0.00  0.00    -0.295 N 
ATOM      4  C   UNL     1      -2.514 -12.029  -3.153  0.00  0.00    +0.115 C 
ATOM      5  C   UNL     1      -1.607 -11.318  -4.176  0.00  0.00    -0.004 C 
ATOM      6  C   UNL     1      -1.341 -12.230  -5.370  0.00  0.00    -0.010 C 
ATOM      7  C   UNL     1      -2.648 -12.457  -6.135  0.00  0.00    -0.082 C 
ATOM      8  N   UNL     1      -3.182 -11.167  -6.588  0.00  0.00    +0.379 N 
ATOM      9  C   UNL     1      -3.522 -10.331  -5.430  0.00  0.00    -0.082 C 
ATOM     10  C   UNL     1      -2.252 -10.014  -4.636  0.00  0.00    -0.010 C 
ATOM     11  C   UNL     1      -2.693 -11.298  -0.725  0.00  0.00    +0.263 C 
ATOM     12  O   UNL     1      -3.886 -11.535  -0.676  0.00  0.00    -0.268 OA
ATOM     13  H   UNL     1      -2.489 -10.696  -7.149  0.00  0.00    -0.086 HD
ATOM     14  H   UNL     1      -4.011 -11.323  -7.143  0.00  0.00    -0.086 HD
ENDROOT
BRANCH  11  15
ATOM     15  C   UNL     1      -2.022 -10.678   0.422  0.00  0.00    +0.104 A 
ATOM     16  C   UNL     1      -0.801 -10.037   0.403  0.00  0.00    +0.032 A 
ATOM     17  C   UNL     1      -0.545  -9.600   1.706  0.00  0.00    +0.020 A 
ATOM     18  C   UNL     1      -1.591  -9.973   2.482  0.00  0.00    +0.086 A 
ATOM     19  N   UNL     1      -2.498 -10.624   1.713  0.00  0.00    -0.346 N 
ATOM     20  C   UNL     1      -3.771 -11.180   2.178  0.00  0.00    +0.149 C 
ENDBRANCH  11  15
BRANCH   1  22
ATOM     21  N   UNL     1       0.743  -8.954  -4.286  0.00  0.00    -0.315 N 
ATOM     22  C   UNL     1      -0.045  -9.543  -3.364  0.00  0.00    +0.218 C 
ATOM     23  O   UNL     1      -0.551  -8.878  -2.485  0.00  0.00    -0.275 OA
ATOM     24  H   UNL     1       1.148  -9.486  -4.989  0.00  0.00    +0.149 HD
BRANCH  21  25
ATOM     25  C   UNL     1       0.988  -7.511  -4.226  0.00  0.00    +0.109 C 
BRANCH  25  26
ATOM     26  C   UNL     1       1.907  -7.102  -5.378  0.00  0.00    +0.054 C 
BRANCH  26  30
ATOM     27  C   UNL     1       2.621  -2.892  -5.204  0.00  0.00    +0.121 A 
ATOM     28  C   UNL     1       3.464  -3.768  -4.535  0.00  0.00    +0.046 A 
ATOM     29  C   UNL     1       3.231  -5.128  -4.593  0.00  0.00    +0.007 A 
ATOM     30  C   UNL     1       2.159  -5.617  -5.317  0.00  0.00    -0.046 A 
ATOM     31  C   UNL     1       1.317  -4.746  -5.984  0.00  0.00    +0.007 A 
ATOM     32  C   UNL     1       1.543  -3.385  -5.925  0.00  0.00    +0.046 A 
BRANCH  27  33
ATOM     33  O   UNL     1       2.848  -1.553  -5.148  0.00  0.00    -0.492 OA
BRANCH  33  35
ATOM     34  C   UNL     1       4.069   0.409  -4.441  0.00  0.00    +0.048 C 
ATOM     35  C   UNL     1       3.977  -1.118  -4.388  0.00  0.00    +0.225 C 
ENDBRANCH  33  35
ENDBRANCH  27  33
ENDBRANCH  26  30
ENDBRANCH  25  26
ENDBRANCH  21  25
ENDBRANCH   1  22
TORSDOF 7
