REMARK  Name = ZINC03361125
REMARK  8 active torsions:
REMARK  status: ('A' for Active; 'I' for Inactive)
REMARK    1  A    between atoms: C_2  and  C_3
REMARK    2  A    between atoms: C_3  and  N_4
REMARK    3  A    between atoms: N_4  and  C_5
REMARK    4  A    between atoms: N_4  and  S_12
REMARK    5  A    between atoms: S_12  and  C_15
REMARK    6  A    between atoms: C_19  and  C_21
REMARK    7  A    between atoms: N_23  and  C_24
REMARK    8  A    between atoms: C_25  and  C_29
REMARK                            x       y       z     vdW  Elec       q    Type
REMARK                         _______ _______ _______ _____ _____    ______ ____
ROOT
ATOM      1  C   UNL     1       0.226  -1.057   0.201  0.00  0.00    +0.110 A 
ATOM      2  C   UNL     1       1.534  -1.460  -0.009  0.00  0.00    +0.030 A 
ATOM      3  C   UNL     1       2.104  -2.425   0.800  0.00  0.00    +0.022 A 
ATOM      4  C   UNL     1       1.368  -3.003   1.816  0.00  0.00    +0.053 A 
ATOM      5  C   UNL     1       0.046  -2.605   2.028  0.00  0.00    +0.057 A 
ATOM      6  C   UNL     1      -0.521  -1.625   1.211  0.00  0.00    +0.043 A 
ATOM      7 CL   UNL     1       2.084  -4.220   2.826  0.00  0.00    -0.083 Cl
ENDROOT
BRANCH   5   8
ATOM      8  C   UNL     1      -0.749  -3.219   3.112  0.00  0.00    +0.250 C 
ATOM      9  O   UNL     1      -0.252  -4.072   3.822  0.00  0.00    -0.270 OA
ATOM     10  N   UNL     1      -2.024  -2.833   3.314  0.00  0.00    -0.275 N 
ATOM     11  H   UNL     1      -2.420  -2.152   2.748  0.00  0.00    +0.156 HD
BRANCH  10  12
ATOM     12  C   UNL     1      -2.769  -3.408   4.330  0.00  0.00    +0.084 A 
ATOM     13  C   UNL     1      -4.084  -3.141   4.695  0.00  0.00    +0.065 A 
ATOM     14  C   UNL     1      -4.618  -3.899   5.801  0.00  0.00    +0.022 A 
ATOM     15  C   UNL     1      -3.797  -4.787   6.390  0.00  0.00    +0.048 A 
ATOM     16  S   UNL     1      -2.286  -4.628   5.460  0.00  0.00    -0.081 S 
BRANCH  13  17
ATOM     17  C   UNL     1      -4.891  -2.142   3.987  0.00  0.00    +0.244 C 
ATOM     18  O   UNL     1      -4.412  -1.522   3.055  0.00  0.00    -0.270 OA
ATOM     19  N   UNL     1      -6.162  -1.909   4.368  0.00  0.00    -0.325 N 
ATOM     20  H   UNL     1      -6.544  -2.403   5.110  0.00  0.00    +0.145 HD
ATOM     21  H   UNL     1      -6.696  -1.248   3.900  0.00  0.00    +0.145 HD
ENDBRANCH  13  17
ENDBRANCH  10  12
ENDBRANCH   5   8
BRANCH   1  22
ATOM     22  S   UNL     1      -0.489   0.180  -0.831  0.00  0.00    +0.075 S 
ATOM     23  O   UNL     1      -1.879  -0.103  -0.901  0.00  0.00    -0.150 OA
ATOM     24  O   UNL     1       0.331   0.265  -1.989  0.00  0.00    -0.150 OA
BRANCH  22  25
ATOM     25  N   UNL     1      -0.339   1.625  -0.038  0.00  0.00    -0.199 N 
BRANCH  25  26
ATOM     26  C   UNL     1       0.789   2.423  -0.246  0.00  0.00    +0.052 A 
ATOM     27  C   UNL     1       2.054   1.927   0.043  0.00  0.00    +0.026 A 
ATOM     28  C   UNL     1       3.168   2.715  -0.169  0.00  0.00    +0.022 A 
ATOM     29  C   UNL     1       3.024   4.002  -0.657  0.00  0.00    +0.041 A 
ATOM     30  C   UNL     1       1.765   4.501  -0.940  0.00  0.00    +0.022 A 
ATOM     31  C   UNL     1       0.648   3.715  -0.735  0.00  0.00    +0.026 A 
ATOM     32 CL   UNL     1       4.426   4.993  -0.915  0.00  0.00    -0.084 Cl
ENDBRANCH  25  26
BRANCH  25  33
ATOM     33  C   UNL     1      -1.393   2.071   0.877  0.00  0.00    +0.158 C 
BRANCH  33  35
ATOM     34  C   UNL     1      -0.990   2.578   3.231  0.00  0.00    +0.005 C 
ATOM     35  C   UNL     1      -1.037   1.672   2.286  0.00  0.00    -0.014 C 
ENDBRANCH  33  35
ENDBRANCH  25  33
ENDBRANCH  22  25
ENDBRANCH   1  22
TORSDOF 8
