REMARK  Name = ZINC09095215
REMARK  9 active torsions:
REMARK  status: ('A' for Active; 'I' for Inactive)
REMARK    1  A    between atoms: C_1  and  C_2
REMARK    2  A    between atoms: C_5  and  C_8
REMARK    3  A    between atoms: C_9  and  C_18
REMARK    4  A    between atoms: N_28  and  C_29
REMARK    5  A    between atoms: C_29  and  C_30
REMARK    6  A    between atoms: C_30  and  C_31
REMARK    7  A    between atoms: N_33  and  C_34
REMARK    8  A    between atoms: C_34  and  C_35
REMARK    9  A    between atoms: C_38  and  C_40
REMARK                            x       y       z     vdW  Elec       q    Type
REMARK                         _______ _______ _______ _____ _____    ______ ____
ROOT
ATOM      1  C   UNL     1       6.527  -0.996  -5.303  0.00  0.00    +0.140 C 
ATOM      2  C   UNL     1       7.107  -0.645  -6.650  0.00  0.00    -0.010 A 
ATOM      3  C   UNL     1       7.301  -1.362  -7.808  0.00  0.00    +0.006 A 
ATOM      4  C   UNL     1       7.880  -0.753  -8.909  0.00  0.00    +0.000 A 
ATOM      5  C   UNL     1       8.262   0.575  -8.849  0.00  0.00    +0.001 A 
ATOM      6  C   UNL     1       8.072   1.303  -7.693  0.00  0.00    +0.013 A 
ATOM      7  C   UNL     1       7.489   0.696  -6.578  0.00  0.00    +0.042 A 
ATOM      8  C   UNL     1       7.162   1.199  -5.231  0.00  0.00    +0.248 C 
ATOM      9  O   UNL     1       7.369   2.332  -4.843  0.00  0.00    -0.270 OA
ATOM     10  N   UNL     1       6.603   0.225  -4.492  0.00  0.00    -0.286 N 
ENDROOT
BRANCH   1  12
ATOM     11  C   UNL     1       6.946  -3.384  -4.488  0.00  0.00    +0.053 A 
ATOM     12  C   UNL     1       7.332  -2.095  -4.659  0.00  0.00    +0.010 A 
ATOM     13  C   UNL     1       8.675  -1.974  -4.096  0.00  0.00    +0.006 A 
ATOM     14  C   UNL     1       9.581  -0.917  -3.971  0.00  0.00    +0.010 A 
ATOM     15  C   UNL     1      10.793  -1.129  -3.378  0.00  0.00    +0.001 A 
ATOM     16  C   UNL     1      11.134  -2.386  -2.899  0.00  0.00    +0.002 A 
ATOM     17  C   UNL     1      10.257  -3.443  -3.011  0.00  0.00    +0.026 A 
ATOM     18  C   UNL     1       9.017  -3.251  -3.611  0.00  0.00    +0.047 A 
ATOM     19  N   UNL     1       7.951  -4.087  -3.865  0.00  0.00    -0.354 N 
ATOM     20  H   UNL     1       7.914  -5.029  -3.635  0.00  0.00    +0.166 HD
BRANCH  11  25
ATOM     21  C   UNL     1       1.883  -5.579  -6.123  0.00  0.00    +0.044 C 
ATOM     22  C   UNL     1       3.209  -5.004  -5.695  0.00  0.00    -0.050 A 
ATOM     23  C   UNL     1       4.377  -5.699  -5.953  0.00  0.00    +0.004 A 
ATOM     24  C   UNL     1       5.594  -5.179  -5.564  0.00  0.00    +0.010 A 
ATOM     25  C   UNL     1       5.645  -3.948  -4.908  0.00  0.00    -0.001 A 
ATOM     26  C   UNL     1       4.463  -3.254  -4.646  0.00  0.00    +0.010 A 
ATOM     27  C   UNL     1       3.253  -3.783  -5.046  0.00  0.00    +0.004 A 
ENDBRANCH  11  25
ENDBRANCH   1  12
BRANCH  10  28
ATOM     28  C   UNL     1       6.149   0.358  -3.106  0.00  0.00    +0.118 C 
BRANCH  28  29
ATOM     29  C   UNL     1       4.685   0.802  -3.089  0.00  0.00    +0.115 C 
BRANCH  29  30
ATOM     30  C   UNL     1       4.218   0.939  -1.663  0.00  0.00    +0.215 C 
ATOM     31  O   UNL     1       4.981   0.705  -0.750  0.00  0.00    -0.276 OA
ATOM     32  N   UNL     1       2.952   1.322  -1.401  0.00  0.00    -0.308 N 
ATOM     33  H   UNL     1       2.342   1.509  -2.131  0.00  0.00    +0.149 HD
BRANCH  32  34
ATOM     34  C   UNL     1       2.499   1.455  -0.015  0.00  0.00    +0.178 C 
BRANCH  34  35
ATOM     35  C   UNL     1       1.057   1.892   0.002  0.00  0.00    +0.122 A 
ATOM     36  C   UNL     1      -0.013   1.076   0.008  0.00  0.00    +0.046 A 
ATOM     37  C   UNL     1      -1.159   1.903   0.017  0.00  0.00    +0.045 A 
ATOM     38  C   UNL     1      -0.722   3.175   0.026  0.00  0.00    +0.102 A 
ATOM     39  O   UNL     1       0.621   3.162   0.013  0.00  0.00    -0.463 OA
ATOM     40  C   UNL     1      -1.592   4.406   0.042  0.00  0.00    +0.086 C 
ENDBRANCH  34  35
ENDBRANCH  32  34
ENDBRANCH  29  30
ENDBRANCH  28  29
ENDBRANCH  10  28
TORSDOF 7
