REMARK  Name = ZINC34793065
REMARK  8 active torsions:
REMARK  status: ('A' for Active; 'I' for Inactive)
REMARK    1  A    between atoms: C_1  and  C_2
REMARK    2  A    between atoms: C_2  and  C_4
REMARK    3  A    between atoms: C_2  and  N_20
REMARK    4  A    between atoms: N_6  and  C_7
REMARK    5  A    between atoms: N_10  and  C_13
REMARK    6  A    between atoms: C_13  and  C_14
REMARK    7  A    between atoms: C_26  and  C_33
REMARK    8  A    between atoms: N_31  and  C_32
REMARK                            x       y       z     vdW  Elec       q    Type
REMARK                         _______ _______ _______ _____ _____    ______ ____
ROOT
ATOM      1  C   UNL     1      -0.019   1.526   0.010  0.00  0.00    +0.038 C 
ATOM      2  C   UNL     1       0.002  -0.004   0.002  0.00  0.00    +0.159 C 
ENDROOT
BRANCH   2   3
ATOM      3  N   UNL     1       0.688  -0.476  -1.203  0.00  0.00    -0.281 N 
ATOM      4  C   UNL     1       0.112  -1.323  -2.259  0.00  0.00    +0.160 C 
ATOM      5  C   UNL     1       1.231  -1.511  -3.259  0.00  0.00    +0.042 C 
ATOM      6  C   UNL     1       2.290  -0.831  -2.776  0.00  0.00    +0.058 C 
ATOM      7  C   UNL     1       1.960  -0.212  -1.553  0.00  0.00    +0.247 C 
ATOM      8  O   UNL     1       2.726   0.470  -0.898  0.00  0.00    -0.270 OA
ATOM      9  C   UNL     1       3.569  -0.849  -3.589  0.00  0.00    +0.143 C 
ATOM     10  N   UNL     1       3.549  -1.613  -4.848  0.00  0.00    -0.288 N 
ATOM     11  C   UNL     1       2.409  -2.243  -5.198  0.00  0.00    +0.307 C 
ATOM     12  O   UNL     1       2.383  -2.877  -6.235  0.00  0.00    -0.252 OA
ATOM     13  N   UNL     1       1.306  -2.193  -4.440  0.00  0.00    -0.260 N 
ATOM     14  C   UNL     1       0.115  -2.910  -4.903  0.00  0.00    +0.139 C 
ATOM     15  H   UNL     1       4.336  -1.662  -5.412  0.00  0.00    +0.151 HD
BRANCH   9  16
ATOM     16  C   UNL     1       3.931   0.576  -3.917  0.00  0.00    -0.004 A 
ATOM     17  C   UNL     1       3.538   1.129  -5.121  0.00  0.00    +0.007 A 
ATOM     18  C   UNL     1       3.869   2.437  -5.423  0.00  0.00    +0.000 A 
ATOM     19  C   UNL     1       4.595   3.192  -4.520  0.00  0.00    +0.001 A 
ATOM     20  C   UNL     1       4.989   2.640  -3.316  0.00  0.00    +0.020 A 
ATOM     21  C   UNL     1       4.652   1.333  -3.011  0.00  0.00    +0.046 A 
ATOM     22 CL   UNL     1       5.141   0.641  -1.496  0.00  0.00    -0.083 Cl
ENDBRANCH   9  16
ENDBRANCH   2   3
BRANCH   2  23
ATOM     23  C   UNL     1       0.731  -0.503   1.223  0.00  0.00    +0.234 C 
ATOM     24  O   UNL     1       1.725  -1.187   1.099  0.00  0.00    -0.274 OA
ATOM     25  N   UNL     1       0.278  -0.191   2.453  0.00  0.00    -0.311 N 
ATOM     26  H   UNL     1      -0.517   0.356   2.553  0.00  0.00    +0.149 HD
BRANCH  25  27
ATOM     27  C   UNL     1       0.986  -0.676   3.640  0.00  0.00    +0.069 C 
ATOM     28  C   UNL     1       0.497  -2.084   3.988  0.00  0.00    +0.003 C 
ATOM     29  C   UNL     1       1.182  -2.553   5.274  0.00  0.00    -0.077 C 
ATOM     30  N   UNL     1       0.855  -1.635   6.370  0.00  0.00    +0.382 N 
ATOM     31  C   UNL     1       1.384  -0.298   6.075  0.00  0.00    -0.077 C 
ATOM     32  C   UNL     1       0.706   0.258   4.821  0.00  0.00    +0.003 C 
ATOM     33  H   UNL     1      -0.147  -1.583   6.476  0.00  0.00    -0.081 HD
BRANCH  30  34
ATOM     34  C   UNL     1       1.450  -2.131   7.618  0.00  0.00    -0.043 C 
BRANCH  34  35
ATOM     35  C   UNL     1       1.014  -1.258   8.766  0.00  0.00    -0.064 A 
ATOM     36  C   UNL     1       1.763  -0.150   9.114  0.00  0.00    +0.002 A 
ATOM     37  C   UNL     1       1.362   0.651  10.167  0.00  0.00    +0.000 A 
ATOM     38  C   UNL     1       0.213   0.344  10.871  0.00  0.00    +0.000 A 
ATOM     39  C   UNL     1      -0.536  -0.763  10.522  0.00  0.00    +0.000 A 
ATOM     40  C   UNL     1      -0.138  -1.562   9.466  0.00  0.00    +0.002 A 
ENDBRANCH  34  35
ENDBRANCH  30  34
ENDBRANCH  25  27
ENDBRANCH   2  23
TORSDOF 6
