REMARK  Name = ZINC63710132
REMARK  9 active torsions:
REMARK  status: ('A' for Active; 'I' for Inactive)
REMARK    1  A    between atoms: C_1  and  O_2
REMARK    2  A    between atoms: O_2  and  C_3
REMARK    3  A    between atoms: C_8  and  S_13
REMARK    4  A    between atoms: S_13  and  C_14
REMARK    5  A    between atoms: C_14  and  C_15
REMARK    6  A    between atoms: C_15  and  C_17
REMARK    7  A    between atoms: C_19  and  N_31
REMARK    8  A    between atoms: C_21  and  S_23
REMARK    9  A    between atoms: S_23  and  C_24
REMARK                            x       y       z     vdW  Elec       q    Type
REMARK                         _______ _______ _______ _____ _____    ______ ____
ROOT
ATOM      1  C   UNL     1      -1.247  -4.474  -6.197  0.00  0.00    +0.173 C 
ATOM      2  O   UNL     1      -0.919  -5.467  -6.810  0.00  0.00    -0.291 OA
ENDROOT
BRANCH   1   3
ATOM      3  C   UNL     1      -2.563  -3.860  -6.438  0.00  0.00    +0.021 A 
ATOM      4  C   UNL     1      -2.942  -2.711  -5.736  0.00  0.00    +0.044 A 
ATOM      5  C   UNL     1      -4.176  -2.138  -5.965  0.00  0.00    +0.128 A 
ATOM      6  C   UNL     1      -5.042  -2.696  -6.887  0.00  0.00    +0.047 A 
ATOM      7  C   UNL     1      -4.677  -3.838  -7.591  0.00  0.00    +0.016 A 
ATOM      8  C   UNL     1      -3.437  -4.420  -7.374  0.00  0.00    +0.026 A 
BRANCH   5   9
ATOM      9  N   UNL     1      -4.574  -0.922  -5.221  0.00  0.00    +0.056 N 
ATOM     10  O   UNL     1      -3.818  -0.433  -4.414  0.00  0.00    -0.126 OA
ATOM     11  O   UNL     1      -5.654  -0.418  -5.420  0.00  0.00    -0.126 OA
ENDBRANCH   5   9
BRANCH   7  12
ATOM     12  S   UNL     1      -5.787  -4.543  -8.764  0.00  0.00    -0.089 S 
BRANCH  12  13
ATOM     13  C   UNL     1      -6.636  -5.789  -7.852  0.00  0.00    +0.013 A 
ATOM     14  C   UNL     1      -6.424  -5.917  -6.485  0.00  0.00    +0.018 A 
ATOM     15  C   UNL     1      -7.091  -6.893  -5.772  0.00  0.00    +0.039 A 
ATOM     16  C   UNL     1      -7.971  -7.745  -6.419  0.00  0.00    +0.123 A 
ATOM     17  C   UNL     1      -8.184  -7.620  -7.782  0.00  0.00    +0.039 A 
ATOM     18  C   UNL     1      -7.523  -6.641  -8.498  0.00  0.00    +0.018 A 
ATOM     19  F   UNL     1      -8.623  -8.700  -5.720  0.00  0.00    -0.205 F 
ENDBRANCH  12  13
ENDBRANCH   7  12
ENDBRANCH   1   3
BRANCH   1  20
ATOM     20  C   UNL     1      -0.307  -3.868  -5.187  0.00  0.00    +0.152 C 
BRANCH  20  21
ATOM     21  S   UNL     1       1.220  -4.845  -5.119  0.00  0.00    -0.107 S 
BRANCH  21  27
ATOM     22  C   UNL     1       0.680  -0.677  -1.080  0.00  0.00    +0.122 A 
ATOM     23  C   UNL     1       1.263   0.154  -2.125  0.00  0.00    +0.048 A 
ATOM     24  C   UNL     1       1.864  -0.379  -3.206  0.00  0.00    +0.031 A 
ATOM     25  C   UNL     1       1.943  -1.840  -3.352  0.00  0.00    +0.061 A 
ATOM     26  N   UNL     1       2.455  -2.601  -4.275  0.00  0.00    -0.355 N 
ATOM     27  C   UNL     1       2.230  -3.995  -3.875  0.00  0.00    +0.236 C 
ATOM     28  N   UNL     1       1.517  -3.948  -2.592  0.00  0.00    -0.355 N 
ATOM     29  C   UNL     1       1.348  -2.690  -2.285  0.00  0.00    +0.064 A 
ATOM     30  C   UNL     1       0.718  -2.031  -1.140  0.00  0.00    +0.073 A 
ATOM     31  H   UNL     1       2.904  -2.302  -5.082  0.00  0.00    +0.162 HD
ATOM     32  H   UNL     1       1.225  -4.711  -2.069  0.00  0.00    +0.162 HD
BRANCH  22  34
ATOM     33  C   UNL     1       0.074   1.348   0.001  0.00  0.00    +0.277 C 
ATOM     34  O   UNL     1       0.088  -0.080  -0.016  0.00  0.00    -0.495 OA
ENDBRANCH  22  34
ENDBRANCH  21  27
ENDBRANCH  20  21
ENDBRANCH   1  20
TORSDOF 8
