REMARK  Name = ZINC06227025
REMARK  2 active torsions:
REMARK  status: ('A' for Active; 'I' for Inactive)
REMARK    1  A    between atoms: C_5  and  C_7
REMARK    2  A    between atoms: N_16  and  C_19
REMARK                            x       y       z     vdW  Elec       q    Type
REMARK                         _______ _______ _______ _____ _____    ______ ____
ROOT
ATOM      1  C   UNL     1       1.251  -2.159  -0.022  0.00  0.00    +0.081 C 
ATOM      2  N   UNL     1       0.141  -2.987   0.076  0.00  0.00    -0.264 N 
ATOM      3  O   UNL     1       0.633  -4.249   0.573  0.00  0.00    -0.256 OA
ATOM      4  C   UNL     1       1.838  -4.368  -0.198  0.00  0.00    +0.272 C 
ATOM      5  C   UNL     1       2.365  -2.926  -0.135  0.00  0.00    +0.081 C 
ATOM      6  H   UNL     1      -0.776  -2.763  -0.143  0.00  0.00    +0.194 HD
ATOM      7  C   UNL     1       3.751  -3.113  -0.124  0.00  0.00    +0.258 C 
ATOM      8  O   UNL     1       4.573  -2.311  -0.531  0.00  0.00    -0.269 OA
ATOM      9  N   UNL     1       4.035  -4.319   0.406  0.00  0.00    -0.204 N 
ATOM     10  C   UNL     1       2.942  -5.139   0.470  0.00  0.00    +0.263 C 
ATOM     11  O   UNL     1       2.870  -6.249   0.954  0.00  0.00    -0.271 OA
ENDROOT
BRANCH   9  12
ATOM     12  C   UNL     1       5.313  -4.697   0.843  0.00  0.00    +0.046 A 
ATOM     13  C   UNL     1       5.520  -5.964   1.373  0.00  0.00    +0.027 A 
ATOM     14  C   UNL     1       6.778  -6.335   1.803  0.00  0.00    +0.041 A 
ATOM     15  C   UNL     1       7.834  -5.444   1.707  0.00  0.00    +0.142 A 
ATOM     16  C   UNL     1       7.630  -4.179   1.179  0.00  0.00    +0.078 A 
ATOM     17  C   UNL     1       6.373  -3.807   0.742  0.00  0.00    +0.046 A 
ATOM     18 CL   UNL     1       8.956  -3.064   1.061  0.00  0.00    -0.081 Cl
ATOM     19  F   UNL     1       9.065  -5.809   2.130  0.00  0.00    -0.204 F 
ENDBRANCH   9  12
BRANCH   1  24
ATOM     20  C   UNL     1       1.752   1.414  -1.059  0.00  0.00    +0.001 A 
ATOM     21  C   UNL     1       1.171   2.087   0.003  0.00  0.00    +0.001 A 
ATOM     22  C   UNL     1       0.616   1.383   1.056  0.00  0.00    +0.020 A 
ATOM     23  C   UNL     1       0.638   0.002   1.055  0.00  0.00    +0.050 A 
ATOM     24  C   UNL     1       1.223  -0.683  -0.014  0.00  0.00    +0.019 A 
ATOM     25  C   UNL     1       1.781   0.036  -1.073  0.00  0.00    +0.011 A 
ATOM     26 CL   UNL     1      -0.058  -0.880   2.378  0.00  0.00    -0.083 Cl
ENDBRANCH   1  24
TORSDOF 2
