REMARK  Name = ZINC20131542
REMARK  12 active torsions:
REMARK  status: ('A' for Active; 'I' for Inactive)
REMARK    1  A    between atoms: C_1  and  C_2
REMARK    2  A    between atoms: C_2  and  O_3
REMARK    3  A    between atoms: O_3  and  C_4
REMARK    4  A    between atoms: C_4  and  C_6
REMARK    5  A    between atoms: C_7  and  C_24
REMARK    6  A    between atoms: C_12  and  C_14
REMARK    7  A    between atoms: C_17  and  O_22
REMARK    8  A    between atoms: C_18  and  O_20
REMARK    9  A    between atoms: O_20  and  C_21
REMARK   10  A    between atoms: O_22  and  C_23
REMARK   11  A    between atoms: C_24  and  S_25
REMARK   12  A    between atoms: S_25  and  C_28
REMARK                            x       y       z     vdW  Elec       q    Type
REMARK                         _______ _______ _______ _____ _____    ______ ____
ROOT
ATOM      1  C   UNL     1      -1.567   3.811   2.670  0.00  0.00    +0.080 C 
ATOM      2  C   UNL     1      -1.710   5.112   3.000  0.00  0.00    +0.045 C 
ATOM      3  N   UNL     1      -2.299   5.481   4.176  0.00  0.00    -0.271 N 
ATOM      4  C   UNL     1      -2.772   4.608   5.075  0.00  0.00    +0.304 C 
ATOM      5  O   UNL     1      -3.281   5.032   6.094  0.00  0.00    -0.252 OA
ATOM      6  N   UNL     1      -2.702   3.275   4.886  0.00  0.00    -0.288 N 
ATOM      7  C   UNL     1      -2.089   2.774   3.644  0.00  0.00    +0.144 C 
ATOM      8  H   UNL     1      -2.407   6.546   4.427  0.00  0.00    +0.156 HD
ATOM      9  H   UNL     1      -3.089   2.567   5.633  0.00  0.00    +0.151 HD
ENDROOT
BRANCH   7  10
ATOM     10  C   UNL     1      -3.109   1.931   2.924  0.00  0.00    -0.019 A 
ATOM     11  C   UNL     1      -4.363   2.447   2.653  0.00  0.00    +0.009 A 
ATOM     12  C   UNL     1      -5.302   1.678   1.992  0.00  0.00    +0.050 A 
ATOM     13  C   UNL     1      -4.988   0.387   1.599  0.00  0.00    +0.162 A 
ATOM     14  C   UNL     1      -3.727  -0.133   1.873  0.00  0.00    +0.162 A 
ATOM     15  C   UNL     1      -2.788   0.645   2.531  0.00  0.00    +0.055 A 
BRANCH  14  16
ATOM     16  O   UNL     1      -3.413  -1.400   1.490  0.00  0.00    -0.491 OA
ATOM     17  C   UNL     1      -2.137  -1.902   1.890  0.00  0.00    +0.277 C 
ENDBRANCH  14  16
BRANCH  13  18
ATOM     18  O   UNL     1      -5.911  -0.372   0.949  0.00  0.00    -0.491 OA
ATOM     19  C   UNL     1      -7.185   0.227   0.703  0.00  0.00    +0.277 C 
ENDBRANCH  13  18
ENDBRANCH   7  10
BRANCH   1  20
ATOM     20  C   UNL     1      -0.958   3.428   1.452  0.00  0.00    +0.339 C 
ATOM     21  O   UNL     1       0.202   3.059   1.442  0.00  0.00    -0.245 OA
BRANCH  20  22
ATOM     22  O   UNL     1      -1.662   3.472   0.302  0.00  0.00    -0.462 OA
BRANCH  22  24
ATOM     23  C   UNL     1      -1.922   3.196  -2.085  0.00  0.00    +0.048 C 
ATOM     24  C   UNL     1      -1.023   2.960  -0.870  0.00  0.00    +0.229 C 
ENDBRANCH  22  24
ENDBRANCH  20  22
ENDBRANCH   1  20
BRANCH   2  25
ATOM     25  C   UNL     1      -1.210   6.176   2.057  0.00  0.00    +0.223 C 
BRANCH  25  26
ATOM     26  S   UNL     1      -2.619   6.952   1.219  0.00  0.00    +0.002 S 
ATOM     27  O   UNL     1      -3.240   6.022   0.343  0.00  0.00    -0.169 OA
ATOM     28  O   UNL     1      -3.392   7.697   2.150  0.00  0.00    -0.169 OA
BRANCH  26  29
ATOM     29  C   UNL     1      -1.904   8.162   0.157  0.00  0.00    +0.090 A 
ATOM     30  C   UNL     1      -1.703   9.451   0.616  0.00  0.00    +0.030 A 
ATOM     31  C   UNL     1      -1.137  10.400  -0.214  0.00  0.00    +0.042 A 
ATOM     32  C   UNL     1      -0.782  10.064  -1.509  0.00  0.00    +0.142 A 
ATOM     33  C   UNL     1      -0.990   8.774  -1.970  0.00  0.00    +0.078 A 
ATOM     34  C   UNL     1      -1.551   7.824  -1.135  0.00  0.00    +0.049 A 
ATOM     35 CL   UNL     1      -0.545   8.350  -3.594  0.00  0.00    -0.081 Cl
ATOM     36  F   UNL     1      -0.234  10.993  -2.323  0.00  0.00    -0.204 F 
ENDBRANCH  26  29
ENDBRANCH  25  26
ENDBRANCH   2  25
TORSDOF 9
