REMARK  Name = ZINC16429997
REMARK  7 active torsions:
REMARK  status: ('A' for Active; 'I' for Inactive)
REMARK    1  A    between atoms: C_3  and  C_15
REMARK    2  A    between atoms: N_4  and  C_6
REMARK    3  A    between atoms: C_9  and  N_12
REMARK    4  A    between atoms: N_16  and  N_17
REMARK    5  A    between atoms: C_18  and  C_20
REMARK    6  A    between atoms: C_20  and  O_21
REMARK    7  A    between atoms: O_21  and  C_22
REMARK                            x       y       z     vdW  Elec       q    Type
REMARK                         _______ _______ _______ _____ _____    ______ ____
ROOT
ATOM      1  C   UNL     1       5.303  -3.993  -0.073  0.00  0.00    +0.156 C 
ATOM      2  N   UNL     1       5.108  -2.669  -0.064  0.00  0.00    -0.186 NA
ENDROOT
BRANCH   1   5
ATOM      3  C   UNL     1       8.853  -4.639  -0.113  0.00  0.00    +0.020 A 
ATOM      4  C   UNL     1       7.846  -3.728  -0.103  0.00  0.00    +0.029 A 
ATOM      5  C   UNL     1       6.586  -4.502  -0.088  0.00  0.00    +0.066 A 
ATOM      6  N   UNL     1       6.950  -5.843  -0.100  0.00  0.00    -0.315 N 
ATOM      7  C   UNL     1       8.292  -5.924  -0.114  0.00  0.00    +0.092 A 
BRANCH   6   8
ATOM      8  C   UNL     1       6.066  -6.929  -0.096  0.00  0.00    +0.047 A 
ATOM      9  C   UNL     1       5.040  -6.989   0.839  0.00  0.00    +0.028 A 
ATOM     10  C   UNL     1       4.168  -8.059   0.837  0.00  0.00    +0.035 A 
ATOM     11  C   UNL     1       4.319  -9.075  -0.088  0.00  0.00    +0.126 A 
ATOM     12  C   UNL     1       5.342  -9.021  -1.018  0.00  0.00    +0.035 A 
ATOM     13  C   UNL     1       6.215  -7.951  -1.024  0.00  0.00    +0.028 A 
BRANCH  11  14
ATOM     14  N   UNL     1       3.385 -10.223  -0.085  0.00  0.00    +0.056 N 
ATOM     15  O   UNL     1       3.529 -11.192  -0.965  0.00  0.00    -0.126 OA
ATOM     16  O   UNL     1       2.411 -10.276   0.800  0.00  0.00    -0.126 OA
ENDBRANCH  11  14
ENDBRANCH   6   8
ENDBRANCH   1   5
BRANCH   2  17
ATOM     17  N   UNL     1       3.909  -2.193  -0.049  0.00  0.00    -0.204 N 
ATOM     18  C   UNL     1       3.713  -0.860  -0.040  0.00  0.00    +0.270 C 
ATOM     19  O   UNL     1       4.660  -0.110  -0.044  0.00  0.00    -0.270 OA
ATOM     20  H   UNL     1       3.148  -2.795  -0.045  0.00  0.00    +0.177 HD
BRANCH  18  21
ATOM     21  C   UNL     1       2.312  -0.304  -0.023  0.00  0.00    +0.326 C 
BRANCH  21  22
ATOM     22  O   UNL     1       2.366   1.124  -0.015  0.00  0.00    -0.482 OA
BRANCH  22  23
ATOM     23  C   UNL     1       1.179   1.786   0.000  0.00  0.00    +0.135 A 
ATOM     24  C   UNL     1      -0.013   1.076   0.008  0.00  0.00    +0.048 A 
ATOM     25  C   UNL     1      -1.218   1.751   0.017  0.00  0.00    +0.023 A 
ATOM     26  C   UNL     1      -1.238   3.134   0.031  0.00  0.00    +0.042 A 
ATOM     27  C   UNL     1      -0.051   3.845   0.023  0.00  0.00    +0.039 A 
ATOM     28  C   UNL     1       1.157   3.174   0.008  0.00  0.00    +0.061 A 
ATOM     29 BR   UNL     1       2.780   4.145  -0.003  0.00  0.00    -0.046 Br
ATOM     30 CL   UNL     1      -2.754   3.979   0.050  0.00  0.00    -0.084 Cl
ENDBRANCH  22  23
ENDBRANCH  21  22
ENDBRANCH  18  21
ENDBRANCH   2  17
TORSDOF 7
