REMARK  Name = ZINC39986949
REMARK  4 active torsions:
REMARK  status: ('A' for Active; 'I' for Inactive)
REMARK    1  A    between atoms: C_4  and  C_7
REMARK    2  A    between atoms: N_11  and  C_25
REMARK    3  A    between atoms: N_14  and  N_15
REMARK    4  A    between atoms: C_16  and  C_18
REMARK                            x       y       z     vdW  Elec       q    Type
REMARK                         _______ _______ _______ _____ _____    ______ ____
ROOT
ATOM      1  C   UNL     1       3.688  -0.677  -0.046  0.00  0.00    +0.041 C 
ATOM      2  C   UNL     1       3.715  -2.038   0.054  0.00  0.00    +0.130 C 
ATOM      3  C   UNL     1       4.910  -2.899   0.159  0.00  0.00    +0.276 C 
ATOM      4  O   UNL     1       6.074  -2.546   0.172  0.00  0.00    -0.268 OA
ATOM      5  N   UNL     1       4.436  -4.162   0.236  0.00  0.00    -0.206 N 
ATOM      6  C   UNL     1       3.065  -4.114   0.185  0.00  0.00    +0.211 C 
ATOM      7  N   UNL     1       2.641  -2.883   0.085  0.00  0.00    -0.212 NA
ATOM      8  N   UNL     1       2.245  -5.218   0.239  0.00  0.00    -0.235 N 
ATOM      9  H   UNL     1       2.630  -6.108   0.244  0.00  0.00    +0.173 HD
ENDROOT
BRANCH   1  13
ATOM     10  C   UNL     1      -0.016   1.381   0.028  0.00  0.00    +0.000 A 
ATOM     11  C   UNL     1       0.002  -0.003   0.002  0.00  0.00    +0.001 A 
ATOM     12  C   UNL     1       1.202  -0.680  -0.022  0.00  0.00    +0.008 A 
ATOM     13  C   UNL     1       2.406   0.036  -0.021  0.00  0.00    -0.023 A 
ATOM     14  C   UNL     1       2.378   1.436   0.005  0.00  0.00    +0.008 A 
ATOM     15  C   UNL     1       1.169   2.097   0.029  0.00  0.00    +0.001 A 
ENDBRANCH   1  13
BRANCH   5  16
ATOM     16  C   UNL     1       5.213  -5.324   0.348  0.00  0.00    +0.044 A 
ATOM     17  C   UNL     1       5.224  -6.255  -0.682  0.00  0.00    +0.024 A 
ATOM     18  C   UNL     1       5.990  -7.399  -0.569  0.00  0.00    +0.002 A 
ATOM     19  C   UNL     1       6.746  -7.617   0.569  0.00  0.00    +0.000 A 
ATOM     20  C   UNL     1       6.738  -6.691   1.595  0.00  0.00    +0.002 A 
ATOM     21  C   UNL     1       5.978  -5.542   1.486  0.00  0.00    +0.024 A 
ENDBRANCH   5  16
BRANCH   8  22
ATOM     22  N   UNL     1       0.855  -5.056   0.285  0.00  0.00    -0.230 N 
ATOM     23  C   UNL     1       0.051  -6.136   0.338  0.00  0.00    +0.260 C 
ATOM     24  O   UNL     1       0.534  -7.252   0.344  0.00  0.00    -0.269 OA
ATOM     25  H   UNL     1       0.470  -4.165   0.280  0.00  0.00    +0.173 HD
BRANCH  23  26
ATOM     26  C   UNL     1      -1.416  -5.965   0.387  0.00  0.00    +0.038 A 
ATOM     27  C   UNL     1      -1.973  -4.685   0.373  0.00  0.00    +0.014 A 
ATOM     28  C   UNL     1      -3.343  -4.532   0.420  0.00  0.00    +0.016 A 
ATOM     29  C   UNL     1      -4.165  -5.645   0.479  0.00  0.00    +0.018 A 
ATOM     30  C   UNL     1      -3.619  -6.917   0.493  0.00  0.00    +0.016 A 
ATOM     31  C   UNL     1      -2.250  -7.083   0.441  0.00  0.00    +0.014 A 
ATOM     32 BR   UNL     1      -6.042  -5.426   0.542  0.00  0.00    -0.050 Br
ENDBRANCH  23  26
ENDBRANCH   8  22
TORSDOF 4
