REMARK  Name = ZINC64604164
REMARK  9 active torsions:
REMARK  status: ('A' for Active; 'I' for Inactive)
REMARK    1  A    between atoms: C_1  and  C_2
REMARK    2  A    between atoms: C_7  and  S_12
REMARK    3  A    between atoms: S_12  and  C_13
REMARK    4  A    between atoms: C_13  and  C_14
REMARK    5  A    between atoms: C_16  and  C_19
REMARK    6  A    between atoms: C_19  and  C_20
REMARK    7  A    between atoms: C_20  and  C_21
REMARK    8  A    between atoms: N_23  and  C_24
REMARK    9  A    between atoms: N_32  and  C_35
REMARK                            x       y       z     vdW  Elec       q    Type
REMARK                         _______ _______ _______ _____ _____    ______ ____
ROOT
ATOM      1  C   UNL     1       4.024  -4.616   2.052  0.00  0.00    +0.182 A 
ATOM      2  N   UNL     1       4.665  -4.488   3.219  0.00  0.00    -0.195 NA
ATOM      3  C   UNL     1       5.838  -5.054   3.150  0.00  0.00    +0.228 A 
ATOM      4  O   UNL     1       5.984  -5.567   1.922  0.00  0.00    -0.338 OA
ATOM      5  N   UNL     1       4.783  -5.273   1.224  0.00  0.00    -0.060 NA
ENDROOT
BRANCH   1   6
ATOM      6  C   UNL     1       2.644  -4.091   1.748  0.00  0.00    +0.152 C 
BRANCH   6   7
ATOM      7  S   UNL     1       1.411  -5.352   2.169  0.00  0.00    -0.107 S 
BRANCH   7  14
ATOM      8  C   UNL     1      -0.880   1.354   0.861  0.00  0.00    +0.044 C 
ATOM      9  C   UNL     1      -0.695  -0.131   0.689  0.00  0.00    -0.048 A 
ATOM     10  C   UNL     1      -0.606  -0.654  -0.613  0.00  0.00    +0.005 A 
ATOM     11  C   UNL     1      -0.441  -1.970  -0.859  0.00  0.00    +0.028 A 
ATOM     12  C   UNL     1      -0.347  -2.911   0.266  0.00  0.00    +0.061 A 
ATOM     13  N   UNL     1      -0.191  -4.201   0.329  0.00  0.00    -0.355 N 
ATOM     14  C   UNL     1      -0.173  -4.574   1.749  0.00  0.00    +0.236 C 
ATOM     15  N   UNL     1      -0.340  -3.327   2.507  0.00  0.00    -0.355 N 
ATOM     16  C   UNL     1      -0.441  -2.357   1.645  0.00  0.00    +0.061 A 
ATOM     17  C   UNL     1      -0.616  -0.905   1.790  0.00  0.00    +0.030 A 
ATOM     18  H   UNL     1      -0.103  -4.806  -0.424  0.00  0.00    +0.162 HD
ATOM     19  H   UNL     1      -0.369  -3.242   3.473  0.00  0.00    +0.162 HD
ENDBRANCH   7  14
ENDBRANCH   6   7
ENDBRANCH   1   6
BRANCH   3  20
ATOM     20  C   UNL     1       6.854  -5.119   4.261  0.00  0.00    +0.108 C 
BRANCH  20  21
ATOM     21  C   UNL     1       6.624  -6.385   5.089  0.00  0.00    +0.105 C 
BRANCH  21  22
ATOM     22  C   UNL     1       7.640  -6.450   6.200  0.00  0.00    +0.218 C 
ATOM     23  O   UNL     1       8.467  -5.571   6.318  0.00  0.00    -0.275 OA
ATOM     24  N   UNL     1       7.631  -7.486   7.062  0.00  0.00    -0.285 N 
ATOM     25  H   UNL     1       6.924  -8.150   7.015  0.00  0.00    +0.155 HD
BRANCH  24  26
ATOM     26  C   UNL     1       8.636  -7.605   8.021  0.00  0.00    +0.034 A 
ATOM     27  C   UNL     1       9.926  -7.179   7.728  0.00  0.00    +0.024 A 
ATOM     28  C   UNL     1      10.931  -7.291   8.670  0.00  0.00    +0.015 A 
ATOM     29  C   UNL     1      10.651  -7.831   9.917  0.00  0.00    +0.050 A 
ATOM     30  C   UNL     1       9.343  -8.264  10.219  0.00  0.00    +0.051 A 
ATOM     31  C   UNL     1       8.341  -8.144   9.273  0.00  0.00    +0.037 A 
ATOM     32  C   UNL     1       9.396  -8.777  11.605  0.00  0.00    +0.254 C 
ATOM     33  O   UNL     1       8.462  -9.240  12.227  0.00  0.00    -0.270 OA
ATOM     34  N   UNL     1      10.655  -8.643  12.061  0.00  0.00    -0.237 N 
ATOM     35  C   UNL     1      11.453  -8.095  11.128  0.00  0.00    +0.254 C 
ATOM     36  O   UNL     1      12.637  -7.856  11.259  0.00  0.00    -0.270 OA
ATOM     37  C   UNL     1      11.098  -9.043  13.399  0.00  0.00    +0.142 C 
ENDBRANCH  24  26
ENDBRANCH  21  22
ENDBRANCH  20  21
ENDBRANCH   3  20
TORSDOF 7
