REMARK  Name = ZINC14472712
REMARK  4 active torsions:
REMARK  status: ('A' for Active; 'I' for Inactive)
REMARK    1  A    between atoms: C_1  and  C_2
REMARK    2  A    between atoms: C_3  and  N_28
REMARK    3  A    between atoms: C_9  and  C_18
REMARK    4  A    between atoms: C_20  and  N_25
REMARK                            x       y       z     vdW  Elec       q    Type
REMARK                         _______ _______ _______ _____ _____    ______ ____
ROOT
ATOM      1  C   UNL     1       2.855   5.109   0.487  0.00  0.00    +0.048 C 
ATOM      2  C   UNL     1       1.861   3.984   0.351  0.00  0.00    +0.001 A 
ATOM      3  C   UNL     1       2.307   2.700   0.115  0.00  0.00    +0.131 A 
ATOM      4  C   UNL     1       1.394   1.669  -0.008  0.00  0.00    +0.033 A 
ATOM      5  C   UNL     1       0.043   1.926   0.099  0.00  0.00    +0.008 A 
ATOM      6  C   UNL     1      -0.416   3.213   0.342  0.00  0.00    -0.019 A 
ATOM      7  C   UNL     1       0.497   4.247   0.464  0.00  0.00    +0.037 A 
ATOM      8  N   UNL     1       0.102   5.564   0.695  0.00  0.00    -0.336 N 
ATOM      9  C   UNL     1      -1.196   5.644   1.367  0.00  0.00    +0.106 C 
ATOM     10  C   UNL     1      -2.252   4.925   0.524  0.00  0.00    +0.029 C 
ATOM     11  C   UNL     1      -1.897   3.424   0.455  0.00  0.00    +0.049 C 
ATOM     12  C   UNL     1      -2.418   2.862   1.758  0.00  0.00    -0.023 C 
ATOM     13  C   UNL     1      -3.333   3.651   2.263  0.00  0.00    -0.030 C 
ATOM     14  C   UNL     1      -3.559   4.849   1.363  0.00  0.00    +0.033 C 
ATOM     15  H   UNL     1       0.807   6.068   1.210  0.00  0.00    +0.147 HD
ENDROOT
BRANCH   9  16
ATOM     16  C   UNL     1      -1.102   4.989   2.720  0.00  0.00    -0.007 A 
ATOM     17  C   UNL     1      -0.263   3.906   2.908  0.00  0.00    +0.039 A 
ATOM     18  C   UNL     1      -0.172   3.309   4.151  0.00  0.00    +0.127 A 
ATOM     19  C   UNL     1      -0.930   3.786   5.205  0.00  0.00    +0.034 A 
ATOM     20  C   UNL     1      -1.773   4.864   5.017  0.00  0.00    +0.022 A 
ATOM     21  C   UNL     1      -1.860   5.466   3.774  0.00  0.00    +0.046 A 
ATOM     22 CL   UNL     1      -2.920   6.821   3.538  0.00  0.00    -0.083 Cl
BRANCH  18  23
ATOM     23  N   UNL     1       0.730   2.153   4.353  0.00  0.00    +0.056 N 
ATOM     24  O   UNL     1       0.806   1.623   5.447  0.00  0.00    -0.126 OA
ATOM     25  O   UNL     1       1.397   1.733   3.424  0.00  0.00    -0.126 OA
ENDBRANCH  18  23
ENDBRANCH   9  16
BRANCH   3  26
ATOM     26  N   UNL     1       3.756   2.428  -0.004  0.00  0.00    +0.057 N 
ATOM     27  O   UNL     1       4.155   1.280  -0.091  0.00  0.00    -0.126 OA
ATOM     28  O   UNL     1       4.551   3.351  -0.016  0.00  0.00    -0.126 OA
ENDBRANCH   3  26
TORSDOF 3
