REMARK  Name = ZINC38660754
REMARK  12 active torsions:
REMARK  status: ('A' for Active; 'I' for Inactive)
REMARK    1  A    between atoms: C_1  and  C_2
REMARK    2  A    between atoms: C_2  and  C_3
REMARK    3  A    between atoms: C_2  and  C_4
REMARK    4  A    between atoms: C_2  and  C_5
REMARK    5  A    between atoms: C_8  and  C_11
REMARK    6  A    between atoms: C_11  and  O_13
REMARK    7  A    between atoms: O_13  and  C_14
REMARK    8  A    between atoms: C_21  and  N_40
REMARK    9  A    between atoms: C_22  and  C_38
REMARK   10  A    between atoms: C_23  and  C_25
REMARK   11  A    between atoms: C_29  and  O_31
REMARK   12  A    between atoms: O_31  and  C_32
REMARK                            x       y       z     vdW  Elec       q    Type
REMARK                         _______ _______ _______ _____ _____    ______ ____
ROOT
ATOM      1  C   UNL     1       5.048  -2.108  -6.019  0.00  0.00    +0.135 A 
ATOM      2  C   UNL     1       4.371  -2.863  -6.966  0.00  0.00    +0.047 A 
ATOM      3  C   UNL     1       5.022  -3.280  -8.110  0.00  0.00    +0.012 A 
ATOM      4  C   UNL     1       6.349  -2.949  -8.317  0.00  0.00    +0.008 A 
ATOM      5  C   UNL     1       7.031  -2.196  -7.374  0.00  0.00    +0.138 A 
ATOM      6  C   UNL     1       6.375  -1.770  -6.226  0.00  0.00    +0.093 A 
ATOM      7  O   UNL     1       8.331  -1.861  -7.559  0.00  0.00    -0.441 OA
ATOM      8  C   UNL     1       9.083  -2.550  -8.434  0.00  0.00    +0.199 C 
ATOM      9  C   UNL     1       8.532  -3.307  -9.412  0.00  0.00    +0.098 C 
ATOM     10  C   UNL     1       7.041  -3.413  -9.571  0.00  0.00    +0.098 C 
ENDROOT
BRANCH  10  11
ATOM     11  C   UNL     1       6.600  -2.557 -10.731  0.00  0.00    -0.031 A 
ATOM     12  C   UNL     1       6.831  -1.194 -10.710  0.00  0.00    +0.005 A 
ATOM     13  C   UNL     1       6.428  -0.406 -11.772  0.00  0.00    +0.004 A 
ATOM     14  C   UNL     1       5.793  -0.979 -12.857  0.00  0.00    +0.046 A 
ATOM     15  C   UNL     1       5.561  -2.346 -12.880  0.00  0.00    +0.129 A 
ATOM     16  C   UNL     1       5.971  -3.136 -11.816  0.00  0.00    +0.050 A 
BRANCH  15  17
ATOM     17  O   UNL     1       4.936  -2.913 -13.947  0.00  0.00    -0.456 OA
BRANCH  17  18
ATOM     18  C   UNL     1       4.616  -4.231 -13.872  0.00  0.00    +0.128 A 
ATOM     19  C   UNL     1       3.646  -4.661 -12.979  0.00  0.00    +0.046 A 
ATOM     20  C   UNL     1       3.322  -6.002 -12.905  0.00  0.00    +0.004 A 
ATOM     21  C   UNL     1       3.964  -6.915 -13.720  0.00  0.00    +0.000 A 
ATOM     22  C   UNL     1       4.932  -6.489 -14.611  0.00  0.00    +0.004 A 
ATOM     23  C   UNL     1       5.255  -5.149 -14.694  0.00  0.00    +0.046 A 
ENDBRANCH  17  18
ENDBRANCH  15  17
ENDBRANCH  10  11
BRANCH   8  24
ATOM     24  N   UNL     1      10.450  -2.485  -8.333  0.00  0.00    -0.328 N 
ATOM     25  H   UNL     1      10.860  -1.947  -7.638  0.00  0.00    +0.145 HD
ATOM     26  H   UNL     1      11.007  -2.977  -8.957  0.00  0.00    +0.145 HD
ENDBRANCH   8  24
BRANCH   9  27
ATOM     27  C   UNL     1       9.386  -4.019 -10.314  0.00  0.00    +0.101 C 
ATOM     28  N   UNL     1      10.064  -4.583 -11.030  0.00  0.00    -0.191 NA
ENDBRANCH   9  27
BRANCH   1  29
ATOM     29  O   UNL     1       4.409  -1.697  -4.892  0.00  0.00    -0.422 OA
BRANCH  29  30
ATOM     30  C   UNL     1       4.190  -2.605  -3.921  0.00  0.00    +0.344 C 
ATOM     31  O   UNL     1       4.479  -3.771  -4.104  0.00  0.00    -0.245 OA
BRANCH  30  35
ATOM     32  C   UNL     1       2.491  -1.393  -0.223  0.00  0.00    -0.042 A 
ATOM     33  C   UNL     1       2.818  -2.722  -0.428  0.00  0.00    +0.005 A 
ATOM     34  C   UNL     1       3.370  -3.122  -1.627  0.00  0.00    +0.015 A 
ATOM     35  C   UNL     1       3.599  -2.184  -2.635  0.00  0.00    +0.059 A 
ATOM     36  C   UNL     1       3.266  -0.844  -2.422  0.00  0.00    +0.015 A 
ATOM     37  C   UNL     1       2.710  -0.458  -1.220  0.00  0.00    +0.005 A 
BRANCH  32  39
ATOM     38  C   UNL     1       0.506  -0.355   0.841  0.00  0.00    +0.015 C 
ATOM     39  C   UNL     1       1.888  -0.963   1.089  0.00  0.00    -0.013 C 
ATOM     40  C   UNL     1       2.793   0.080   1.749  0.00  0.00    +0.015 C 
ATOM     41  C   UNL     1       1.752  -2.177   2.010  0.00  0.00    +0.015 C 
ENDBRANCH  32  39
ENDBRANCH  30  35
ENDBRANCH  29  30
ENDBRANCH   1  29
TORSDOF 9
