REMARK  Name = ZINC35451143
REMARK  13 active torsions:
REMARK  status: ('A' for Active; 'I' for Inactive)
REMARK    1  A    between atoms: C_1  and  C_2
REMARK    2  A    between atoms: C_2  and  C_3
REMARK    3  A    between atoms: C_3  and  C_4
REMARK    4  A    between atoms: C_4  and  S_5
REMARK    5  A    between atoms: S_5  and  C_6
REMARK    6  A    between atoms: C_13  and  C_25
REMARK    7  A    between atoms: C_19  and  C_23
REMARK    8  A    between atoms: C_19  and  C_24
REMARK    9  A    between atoms: C_27  and  O_34
REMARK   10  A    between atoms: C_28  and  O_33
REMARK   11  A    between atoms: C_29  and  O_31
REMARK   12  A    between atoms: O_31  and  C_32
REMARK   13  A    between atoms: O_34  and  C_35
REMARK                            x       y       z     vdW  Elec       q    Type
REMARK                         _______ _______ _______ _____ _____    ______ ____
ROOT
ATOM      1  C   UNL     1      -2.923  -4.443   0.006  0.00  0.00    +0.171 A 
ATOM      2  N   UNL     1      -1.710  -4.959  -0.003  0.00  0.00    -0.208 NA
ATOM      3  C   UNL     1      -1.524  -6.284  -0.012  0.00  0.00    +0.135 A 
ATOM      4  C   UNL     1      -2.617  -7.133  -0.015  0.00  0.00    +0.069 A 
ATOM      5  C   UNL     1      -3.903  -6.579  -0.004  0.00  0.00    +0.258 A 
ATOM      6  O   UNL     1      -4.890  -7.298  -0.003  0.00  0.00    -0.267 OA
ATOM      7  N   UNL     1      -4.031  -5.235   0.012  0.00  0.00    -0.302 N 
ATOM      8  C   UNL     1      -2.433  -8.621  -0.035  0.00  0.00    +0.093 C 
ATOM      9  C   UNL     1      -1.036  -9.006   0.381  0.00  0.00    +0.024 C 
ATOM     10  C   UNL     1      -0.029  -8.107   0.364  0.00  0.00    +0.017 C 
ATOM     11  N   UNL     1      -0.248  -6.811  -0.016  0.00  0.00    -0.302 N 
ATOM     12  C   UNL     1       1.373  -8.505   0.759  0.00  0.00    +0.058 C 
ATOM     13  C   UNL     1       1.316  -9.612   1.814  0.00  0.00    -0.023 C 
ATOM     14  C   UNL     1       0.546 -10.800   1.228  0.00  0.00    +0.086 C 
ATOM     15  C   UNL     1      -0.814 -10.333   0.788  0.00  0.00    +0.162 C 
ATOM     16  O   UNL     1      -1.741 -11.119   0.785  0.00  0.00    -0.292 OA
ATOM     17  C   UNL     1       0.596  -9.097   3.062  0.00  0.00    +0.011 C 
ATOM     18  C   UNL     1       2.736 -10.049   2.180  0.00  0.00    +0.011 C 
ATOM     19  H   UNL     1       0.499  -6.258  -0.291  0.00  0.00    +0.153 HD
ATOM     20  H   UNL     1      -4.913  -4.833   0.025  0.00  0.00    +0.171 HD
ENDROOT
BRANCH   8  21
ATOM     21  C   UNL     1      -2.690  -9.132  -1.429  0.00  0.00    -0.028 A 
ATOM     22  C   UNL     1      -1.914  -8.683  -2.481  0.00  0.00    +0.054 A 
ATOM     23  C   UNL     1      -2.148  -9.150  -3.766  0.00  0.00    +0.165 A 
ATOM     24  C   UNL     1      -3.164 -10.071  -3.994  0.00  0.00    +0.201 A 
ATOM     25  C   UNL     1      -3.942 -10.519  -2.933  0.00  0.00    +0.165 A 
ATOM     26  C   UNL     1      -3.698 -10.051  -1.651  0.00  0.00    +0.054 A 
BRANCH  25  27
ATOM     27  O   UNL     1      -4.937 -11.420  -3.152  0.00  0.00    -0.491 OA
ATOM     28  C   UNL     1      -5.696 -11.837  -2.015  0.00  0.00    +0.277 C 
ENDBRANCH  25  27
BRANCH  24  29
ATOM     29  O   UNL     1      -3.397 -10.531  -5.253  0.00  0.00    -0.501 OA
ATOM     30  H   UNL     1      -2.896 -11.326  -5.481  0.00  0.00    +0.292 HD
ENDBRANCH  24  29
BRANCH  23  31
ATOM     31  O   UNL     1      -1.385  -8.708  -4.801  0.00  0.00    -0.491 OA
ATOM     32  C   UNL     1      -0.359  -7.762  -4.492  0.00  0.00    +0.277 C 
ENDBRANCH  23  31
ENDBRANCH   8  21
BRANCH   1  33
ATOM     33  S   UNL     1      -3.114  -2.691   0.017  0.00  0.00    -0.088 S 
BRANCH  33  34
ATOM     34  C   UNL     1      -1.413  -2.063   0.004  0.00  0.00    +0.077 C 
BRANCH  34  35
ATOM     35  C   UNL     1      -1.433  -0.534   0.013  0.00  0.00    +0.011 C 
BRANCH  35  37
ATOM     36  C   UNL     1      -0.019   1.526   0.010  0.00  0.00    +0.004 C 
ATOM     37  C   UNL     1       0.002  -0.004   0.002  0.00  0.00    -0.003 C 
ENDBRANCH  35  37
ENDBRANCH  34  35
ENDBRANCH  33  34
ENDBRANCH   1  33
TORSDOF 8
