REMARK  Name = ZINC21258770
REMARK  8 active torsions:
REMARK  status: ('A' for Active; 'I' for Inactive)
REMARK    1  A    between atoms: C_1  and  C_2
REMARK    2  A    between atoms: C_2  and  C_3
REMARK    3  A    between atoms: C_3  and  O_4
REMARK    4  A    between atoms: O_4  and  C_5
REMARK    5  A    between atoms: C_6  and  C_13
REMARK    6  A    between atoms: C_10  and  O_11
REMARK    7  A    between atoms: O_11  and  C_12
REMARK    8  A    between atoms: C_18  and  C_23
REMARK                            x       y       z     vdW  Elec       q    Type
REMARK                         _______ _______ _______ _____ _____    ______ ____
ROOT
ATOM      1  C   UNL     1      -3.366   8.767   0.003  0.00  0.00    +0.140 C 
ATOM      2  C   UNL     1      -2.722   7.400  -0.021  0.00  0.00    +0.037 C 
ATOM      3  C   UNL     1      -2.382   6.671   1.054  0.00  0.00    +0.017 C 
ATOM      4  C   UNL     1      -1.784   5.283   0.881  0.00  0.00    +0.060 C 
ATOM      5  C   UNL     1      -0.928   5.243  -0.384  0.00  0.00    +0.039 C 
ATOM      6  C   UNL     1      -1.835   5.576  -1.574  0.00  0.00    +0.088 C 
ATOM      7  C   UNL     1      -2.485   6.904  -1.325  0.00  0.00    +0.163 C 
ATOM      8  O   UNL     1      -2.820   7.580  -2.278  0.00  0.00    -0.292 OA
ATOM      9  N   UNL     1      -2.536   7.059   2.345  0.00  0.00    -0.316 N 
ATOM     10  C   UNL     1      -3.697   7.618   2.871  0.00  0.00    +0.052 A 
ATOM     11  C   UNL     1      -4.436   6.995   3.861  0.00  0.00    +0.025 A 
ATOM     12  C   UNL     1      -5.555   7.630   4.373  0.00  0.00    +0.002 A 
ATOM     13  C   UNL     1      -5.927   8.875   3.899  0.00  0.00    +0.002 A 
ATOM     14  C   UNL     1      -5.198   9.491   2.897  0.00  0.00    +0.025 A 
ATOM     15  C   UNL     1      -4.090   8.848   2.366  0.00  0.00    +0.049 A 
ATOM     16  N   UNL     1      -3.374   9.398   1.306  0.00  0.00    -0.331 N 
ATOM     17  H   UNL     1      -1.707   6.940   3.058  0.00  0.00    +0.152 HD
ATOM     18  H   UNL     1      -2.808  10.327   1.471  0.00  0.00    +0.147 HD
ENDROOT
BRANCH   1  20
ATOM     19  C   UNL     1      -5.493   9.758  -0.876  0.00  0.00    +0.167 A 
ATOM     20  C   UNL     1      -4.790   8.634  -0.473  0.00  0.00    +0.023 A 
ATOM     21  C   UNL     1      -5.396   7.392  -0.502  0.00  0.00    +0.009 A 
ATOM     22  C   UNL     1      -6.702   7.266  -0.937  0.00  0.00    +0.004 A 
ATOM     23  C   UNL     1      -7.408   8.383  -1.345  0.00  0.00    +0.049 A 
ATOM     24  C   UNL     1      -6.806   9.631  -1.319  0.00  0.00    +0.162 A 
BRANCH  24  25
ATOM     25  O   UNL     1      -7.500  10.730  -1.720  0.00  0.00    -0.491 OA
ATOM     26  C   UNL     1      -8.845  10.525  -2.156  0.00  0.00    +0.277 C 
ENDBRANCH  24  25
BRANCH  19  27
ATOM     27  O   UNL     1      -4.901  10.981  -0.843  0.00  0.00    -0.488 OA
BRANCH  27  28
ATOM     28  C   UNL     1      -4.301  11.444  -2.055  0.00  0.00    +0.229 C 
BRANCH  28  30
ATOM     29  C   UNL     1      -2.838  13.203  -3.059  0.00  0.00    +0.007 C 
ATOM     30  C   UNL     1      -3.582  12.769  -1.794  0.00  0.00    +0.038 C 
ENDBRANCH  28  30
ENDBRANCH  27  28
ENDBRANCH  19  27
ENDBRANCH   1  20
BRANCH   5  31
ATOM     31  C   UNL     1      -0.341   3.866  -0.559  0.00  0.00    -0.006 A 
ATOM     32  C   UNL     1       0.961   3.496  -0.629  0.00  0.00    +0.011 A 
ATOM     33  C   UNL     1       1.270   2.159  -0.794  0.00  0.00    +0.008 A 
ATOM     34  C   UNL     1       0.262   1.257  -0.882  0.00  0.00    +0.045 A 
ATOM     35  S   UNL     1      -1.180   2.300  -0.736  0.00  0.00    -0.101 S 
ENDBRANCH   5  31
TORSDOF 6
