REMARK  Name = ZINC12111749
REMARK  6 active torsions:
REMARK  status: ('A' for Active; 'I' for Inactive)
REMARK    1  A    between atoms: C_1  and  C_2
REMARK    2  A    between atoms: C_2  and  C_3
REMARK    3  A    between atoms: C_2  and  N_4
REMARK    4  A    between atoms: C_6  and  C_9
REMARK    5  A    between atoms: C_23  and  C_24
REMARK    6  A    between atoms: C_23  and  N_55
REMARK                            x       y       z     vdW  Elec       q    Type
REMARK                         _______ _______ _______ _____ _____    ______ ____
ROOT
ATOM      1  C   UNL     1       3.620   4.891  -0.016  0.00  0.00    +0.014 C 
ATOM      2  C   UNL     1       2.880   3.574  -0.009  0.00  0.00    +0.011 A 
ATOM      3  C   UNL     1       1.534   3.489   0.006  0.00  0.00    -0.022 A 
ATOM      4  C   UNL     1       1.185   2.074   0.002  0.00  0.00    +0.003 A 
ATOM      5  C   UNL     1      -0.016   1.362   0.009  0.00  0.00    +0.010 A 
ATOM      6  C   UNL     1       0.002  -0.004   0.002  0.00  0.00    +0.001 A 
ATOM      7  C   UNL     1       1.207  -0.694  -0.013  0.00  0.00    +0.002 A 
ATOM      8  C   UNL     1       2.404  -0.013  -0.021  0.00  0.00    +0.026 A 
ATOM      9  C   UNL     1       2.410   1.378  -0.014  0.00  0.00    +0.047 A 
ATOM     10  N   UNL     1       3.417   2.320  -0.019  0.00  0.00    -0.359 N 
ATOM     11  H   UNL     1       4.366   2.121  -0.028  0.00  0.00    +0.166 HD
ATOM     12  C   UNL     1       0.619   4.687   0.023  0.00  0.00    +0.019 C 
ATOM     13  C   UNL     1       1.456   5.914   0.410  0.00  0.00    -0.072 C 
ATOM     14  N   UNL     1       2.669   5.948  -0.438  0.00  0.00    +0.391 N 
ATOM     15  H   UNL     1       2.397   5.780  -1.414  0.00  0.00    -0.080 HD
ENDROOT
BRANCH   1  18
ATOM     16  N   UNL     1       6.750   4.634  -1.870  0.00  0.00    -0.269 N 
ATOM     17  C   UNL     1       6.058   4.619  -0.711  0.00  0.00    +0.111 A 
ATOM     18  C   UNL     1       4.754   4.831  -1.006  0.00  0.00    -0.018 A 
ATOM     19  C   UNL     1       4.647   4.990  -2.392  0.00  0.00    +0.136 A 
ATOM     20  N   UNL     1       5.843   4.872  -2.910  0.00  0.00    -0.179 NA
BRANCH  16  22
ATOM     21  C   UNL     1       8.911   5.775  -1.793  0.00  0.00    +0.032 C 
ATOM     22  C   UNL     1       8.195   4.442  -2.013  0.00  0.00    +0.101 C 
ATOM     23  C   UNL     1       8.679   3.425  -0.978  0.00  0.00    +0.032 C 
ENDBRANCH  16  22
ENDBRANCH   1  18
BRANCH  14  24
ATOM     24  C   UNL     1       3.314   7.274  -0.342  0.00  0.00    -0.042 C 
BRANCH  24  25
ATOM     25  C   UNL     1       2.410   8.299  -0.977  0.00  0.00    -0.062 A 
ATOM     26  C   UNL     1       1.473   8.964  -0.186  0.00  0.00    +0.004 A 
ATOM     27  C   UNL     1       0.638   9.894  -0.707  0.00  0.00    +0.031 A 
ATOM     28  C   UNL     1       0.704  10.213  -2.089  0.00  0.00    +0.100 A 
ATOM     29  C   UNL     1       1.685   9.517  -2.917  0.00  0.00    +0.100 A 
ATOM     30  C   UNL     1       2.531   8.558  -2.300  0.00  0.00    +0.032 A 
ATOM     31  N   UNL     1       1.638   9.912  -4.187  0.00  0.00    -0.191 NA
ATOM     32  S   UNL     1       0.510  10.997  -4.266  0.00  0.00    +0.116 S 
ATOM     33  N   UNL     1      -0.015  11.084  -2.792  0.00  0.00    -0.191 NA
ENDBRANCH  24  25
ENDBRANCH  14  24
TORSDOF 4
