REMARK  Name = ZINC64515724
REMARK  4 active torsions:
REMARK  status: ('A' for Active; 'I' for Inactive)
REMARK    1  A    between atoms: C_1  and  C_2
REMARK    2  A    between atoms: N_11  and  C_12
REMARK    3  A    between atoms: C_12  and  C_13
REMARK    4  A    between atoms: N_15  and  C_16
REMARK                            x       y       z     vdW  Elec       q    Type
REMARK                         _______ _______ _______ _____ _____    ______ ____
ROOT
ATOM      1  C   UNL     1      -0.019   1.526   0.010  0.00  0.00    +0.007 C 
ATOM      2  C   UNL     1       0.002  -0.004   0.002  0.00  0.00    -0.014 C 
ATOM      3  C   UNL     1      -1.433  -0.534   0.013  0.00  0.00    +0.002 C 
ATOM      4  C   UNL     1      -2.150  -0.041   1.272  0.00  0.00    -0.015 C 
ATOM      5  C   UNL     1      -1.409  -0.548   2.511  0.00  0.00    -0.065 C 
ATOM      6  C   UNL     1       0.026  -0.017   2.500  0.00  0.00    -0.024 C 
ATOM      7  C   UNL     1       0.742  -0.511   1.242  0.00  0.00    +0.005 C 
ATOM      8  C   UNL     1       0.763  -0.531   3.740  0.00  0.00    +0.000 C 
ATOM      9  C   UNL     1      -0.004  -0.100   4.993  0.00  0.00    -0.018 C 
ATOM     10  C   UNL     1      -1.439  -0.627   4.912  0.00  0.00    -0.078 C 
ATOM     11  N   UNL     1      -2.098  -0.080   3.720  0.00  0.00    +0.387 N 
ATOM     12  H   UNL     1      -2.070   0.928   3.754  0.00  0.00    -0.081 HD
ENDROOT
BRANCH  11  13
ATOM     13  C   UNL     1      -3.497  -0.526   3.688  0.00  0.00    +0.019 C 
BRANCH  13  14
ATOM     14  C   UNL     1      -4.237   0.055   4.866  0.00  0.00    +0.197 C 
ATOM     15  O   UNL     1      -3.656   0.770   5.654  0.00  0.00    -0.278 OA
ATOM     16  N   UNL     1      -5.544  -0.220   5.043  0.00  0.00    -0.312 N 
ATOM     17  H   UNL     1      -6.009  -0.793   4.413  0.00  0.00    +0.149 HD
BRANCH  16  18
ATOM     18  C   UNL     1      -6.263   0.345   6.187  0.00  0.00    +0.095 C 
ATOM     19  C   UNL     1      -6.749   1.761   5.837  0.00  0.00    +0.046 C 
ATOM     20  C   UNL     1      -7.762   2.210   6.928  0.00  0.00    +0.168 C 
ATOM     21  S   UNL     1      -8.704   0.646   7.176  0.00  0.00    -0.029 S 
ATOM     22  O   UNL     1      -9.839   0.649   6.321  0.00  0.00    -0.174 OA
ATOM     23  O   UNL     1      -8.879   0.428   8.570  0.00  0.00    -0.174 OA
ATOM     24  C   UNL     1      -7.473  -0.558   6.531  0.00  0.00    +0.188 C 
ENDBRANCH  16  18
ENDBRANCH  13  14
ENDBRANCH  11  13
TORSDOF 3
