REMARK  Name = ZINC39898700
REMARK  11 active torsions:
REMARK  status: ('A' for Active; 'I' for Inactive)
REMARK    1  A    between atoms: C_1  and  C_2
REMARK    2  A    between atoms: C_2  and  O_3
REMARK    3  A    between atoms: O_3  and  C_4
REMARK    4  A    between atoms: C_6  and  C_18
REMARK    5  A    between atoms: C_9  and  O_10
REMARK    6  A    between atoms: O_10  and  C_11
REMARK    7  A    between atoms: C_11  and  C_12
REMARK    8  A    between atoms: C_21  and  C_32
REMARK    9  A    between atoms: N_28  and  C_29
REMARK   10  A    between atoms: C_29  and  C_30
REMARK   11  A    between atoms: C_37  and  O_38
REMARK                            x       y       z     vdW  Elec       q    Type
REMARK                         _______ _______ _______ _____ _____    ______ ____
ROOT
ATOM      1  C   UNL     1      -0.041  -4.907   0.551  0.00  0.00    +0.142 C 
ATOM      2  C   UNL     1       0.341  -4.494   1.946  0.00  0.00    +0.035 A 
ATOM      3  C   UNL     1       1.368  -4.258   2.866  0.00  0.00    +0.102 A 
ATOM      4  N   UNL     1       0.805  -3.883   3.998  0.00  0.00    -0.173 NA
ATOM      5  N   UNL     1      -0.475  -3.859   3.884  0.00  0.00    -0.272 N 
ATOM      6  H   UNL     1      -1.093  -3.613   4.590  0.00  0.00    +0.189 HD
ATOM      7  C   UNL     1      -0.836  -4.232   2.620  0.00  0.00    +0.126 A 
ATOM      8  C   UNL     1      -1.959  -4.463   1.705  0.00  0.00    +0.266 C 
ATOM      9  O   UNL     1      -3.132  -4.321   1.995  0.00  0.00    -0.268 OA
ATOM     10  N   UNL     1      -1.508  -4.857   0.499  0.00  0.00    -0.281 N 
ENDROOT
BRANCH   3  11
ATOM     11  C   UNL     1       2.824  -4.403   2.615  0.00  0.00    +0.045 A 
ATOM     12  C   UNL     1       3.276  -4.930   1.408  0.00  0.00    +0.033 A 
ATOM     13  C   UNL     1       4.631  -5.063   1.179  0.00  0.00    +0.042 A 
ATOM     14  C   UNL     1       5.543  -4.674   2.145  0.00  0.00    +0.023 A 
ATOM     15  C   UNL     1       5.104  -4.150   3.346  0.00  0.00    +0.047 A 
ATOM     16  C   UNL     1       3.747  -4.005   3.586  0.00  0.00    +0.126 A 
ATOM     17 CL   UNL     1       5.194  -5.722  -0.326  0.00  0.00    -0.084 Cl
BRANCH  16  18
ATOM     18  O   UNL     1       3.314  -3.484   4.764  0.00  0.00    -0.506 OA
ATOM     19  H   UNL     1       3.169  -4.144   5.456  0.00  0.00    +0.292 HD
ENDBRANCH  16  18
ENDBRANCH   3  11
BRANCH   1  22
ATOM     20  C   UNL     1       0.616  -1.770  -1.448  0.00  0.00    +0.162 A 
ATOM     21  C   UNL     1       0.077  -2.651  -0.525  0.00  0.00    +0.055 A 
ATOM     22  C   UNL     1       0.546  -3.950  -0.453  0.00  0.00    -0.019 A 
ATOM     23  C   UNL     1       1.555  -4.371  -1.300  0.00  0.00    +0.009 A 
ATOM     24  C   UNL     1       2.098  -3.496  -2.222  0.00  0.00    +0.050 A 
ATOM     25  C   UNL     1       1.627  -2.196  -2.304  0.00  0.00    +0.162 A 
BRANCH  20  26
ATOM     26  O   UNL     1       0.155  -0.492  -1.520  0.00  0.00    -0.489 OA
BRANCH  26  28
ATOM     27  C   UNL     1      -1.173   1.376  -0.754  0.00  0.00    +0.048 C 
ATOM     28  C   UNL     1      -0.826  -0.101  -0.557  0.00  0.00    +0.226 C 
ENDBRANCH  26  28
ENDBRANCH  20  26
BRANCH  25  29
ATOM     29  O   UNL     1       2.156  -1.335  -3.215  0.00  0.00    -0.484 OA
BRANCH  29  30
ATOM     30  C   UNL     1       3.190  -1.842  -4.061  0.00  0.00    +0.264 C 
BRANCH  30  31
ATOM     31  C   UNL     1       3.650  -0.755  -4.998  0.00  0.00    -0.010 A 
ATOM     32  C   UNL     1       3.035  -0.595  -6.226  0.00  0.00    +0.007 A 
ATOM     33  C   UNL     1       3.457   0.403  -7.085  0.00  0.00    +0.000 A 
ATOM     34  C   UNL     1       4.493   1.240  -6.717  0.00  0.00    +0.000 A 
ATOM     35  C   UNL     1       5.107   1.081  -5.489  0.00  0.00    +0.000 A 
ATOM     36  C   UNL     1       4.683   0.086  -4.628  0.00  0.00    +0.007 A 
ENDBRANCH  30  31
ENDBRANCH  29  30
ENDBRANCH  25  29
ENDBRANCH   1  22
BRANCH  10  37
ATOM     37  C   UNL     1      -2.337  -5.179  -0.666  0.00  0.00    +0.135 C 
BRANCH  37  38
ATOM     38  C   UNL     1      -2.682  -6.646  -0.646  0.00  0.00    -0.016 C 
ATOM     39  C   UNL     1      -3.935  -7.024  -0.697  0.00  0.00    +0.005 C 
ENDBRANCH  37  38
ENDBRANCH  10  37
TORSDOF 10
