REMARK  Name = ZINC28956128
REMARK  10 active torsions:
REMARK  status: ('A' for Active; 'I' for Inactive)
REMARK    1  A    between atoms: C_1  and  C_2
REMARK    2  A    between atoms: C_3  and  C_9
REMARK    3  A    between atoms: C_6  and  N_8
REMARK    4  A    between atoms: C_9  and  N_10
REMARK    5  A    between atoms: C_11  and  C_13
REMARK    6  A    between atoms: C_13  and  C_14
REMARK    7  A    between atoms: C_18  and  N_21
REMARK    8  A    between atoms: N_21  and  C_22
REMARK    9  A    between atoms: C_22  and  C_23
REMARK   10  A    between atoms: C_23  and  C_24
REMARK                            x       y       z     vdW  Elec       q    Type
REMARK                         _______ _______ _______ _____ _____    ______ ____
ROOT
ATOM      1  C   UNL     1       2.942   2.516  -5.546  0.00  0.00    +0.017 A 
ATOM      2  C   UNL     1       3.148   1.850  -6.742  0.00  0.00    +0.047 A 
ATOM      3  C   UNL     1       3.133   2.547  -7.936  0.00  0.00    +0.022 A 
ATOM      4  C   UNL     1       2.913   3.911  -7.941  0.00  0.00    +0.027 A 
ATOM      5  C   UNL     1       2.706   4.583  -6.744  0.00  0.00    +0.063 A 
ATOM      6  C   UNL     1       2.715   3.880  -5.544  0.00  0.00    +0.149 A 
ATOM      7  F   UNL     1       2.509   4.530  -4.378  0.00  0.00    -0.203 F 
ATOM      8 CL   UNL     1       3.426   0.137  -6.742  0.00  0.00    -0.083 Cl
ENDROOT
BRANCH   5   9
ATOM      9  N   UNL     1       2.483   5.965  -6.745  0.00  0.00    -0.336 N 
ATOM     10  H   UNL     1       2.338   6.433  -5.909  0.00  0.00    +0.146 HD
BRANCH   9  11
ATOM     11  C   UNL     1       2.468   6.703  -8.011  0.00  0.00    +0.183 C 
BRANCH  11  12
ATOM     12  C   UNL     1       2.206   8.185  -7.734  0.00  0.00    +0.307 C 
ATOM     13  F   UNL     1       0.970   8.328  -7.096  0.00  0.00    -0.197 F 
ATOM     14  F   UNL     1       3.217   8.691  -6.910  0.00  0.00    -0.197 F 
BRANCH  12  15
ATOM     15  C   UNL     1       2.192   8.944  -9.035  0.00  0.00    +0.132 A 
ATOM     16  C   UNL     1       2.393   8.267 -10.223  0.00  0.00    +0.032 A 
ATOM     17  C   UNL     1       2.377   8.974 -11.415  0.00  0.00    +0.023 A 
ATOM     18  C   UNL     1       2.158  10.344 -11.368  0.00  0.00    +0.061 A 
ATOM     19  C   UNL     1       1.964  10.954 -10.142  0.00  0.00    +0.153 A 
ATOM     20  N   UNL     1       1.981  10.247  -9.027  0.00  0.00    -0.137 N 
ATOM     21  O   UNL     1       1.772  10.905  -7.791  0.00  0.00    -0.164 OA
ATOM     22 CL   UNL     1       2.128  11.280 -12.830  0.00  0.00    -0.082 Cl
ENDBRANCH  12  15
ENDBRANCH  11  12
ENDBRANCH   9  11
ENDBRANCH   5   9
BRANCH   1  23
ATOM     23  C   UNL     1       2.959   1.754  -4.246  0.00  0.00    +0.135 C 
BRANCH  23  25
ATOM     24  N   UNL     1       1.341   0.557  -2.809  0.00  0.00    -0.311 N 
ATOM     25  C   UNL     1       1.568   1.267  -3.931  0.00  0.00    +0.218 C 
ATOM     26  O   UNL     1       0.653   1.516  -4.687  0.00  0.00    -0.275 OA
ATOM     27  H   UNL     1       2.073   0.358  -2.204  0.00  0.00    +0.149 HD
BRANCH  24  28
ATOM     28  C   UNL     1      -0.011   0.084  -2.502  0.00  0.00    +0.141 C 
BRANCH  28  31
ATOM     29  C   UNL     1      -0.018   1.503   0.010  0.00  0.00    +0.063 C 
ATOM     30  C   UNL     1       0.002  -0.004   0.002  0.00  0.00    +0.019 A 
ATOM     31  C   UNL     1       0.005  -0.679  -1.202  0.00  0.00    -0.011 A 
ATOM     32  C   UNL     1       0.024  -2.067  -1.204  0.00  0.00    +0.010 A 
ATOM     33  C   UNL     1       0.039  -2.729   0.011  0.00  0.00    +0.041 A 
ATOM     34  C   UNL     1       0.035  -1.985   1.186  0.00  0.00    +0.094 A 
ATOM     35  N   UNL     1       0.022  -0.661   1.146  0.00  0.00    -0.347 N 
ATOM     36  H   UNL     1       0.023  -0.163   1.978  0.00  0.00    +0.167 HD
BRANCH  34  37
ATOM     37  N   UNL     1       0.049  -2.637   2.414  0.00  0.00    -0.345 N 
ATOM     38  H   UNL     1       0.062  -3.606   2.448  0.00  0.00    +0.144 HD
ATOM     39  H   UNL     1       0.046  -2.122   3.236  0.00  0.00    +0.144 HD
ENDBRANCH  34  37
ENDBRANCH  28  31
ENDBRANCH  24  28
ENDBRANCH  23  25
ENDBRANCH   1  23
TORSDOF 9
