REMARK  Name = ZINC32638002
REMARK  6 active torsions:
REMARK  status: ('A' for Active; 'I' for Inactive)
REMARK    1  A    between atoms: C_3  and  O_27
REMARK    2  A    between atoms: C_4  and  C_8
REMARK    3  A    between atoms: N_12  and  N_16
REMARK    4  A    between atoms: C_17  and  C_19
REMARK    5  A    between atoms: C_19  and  S_20
REMARK    6  A    between atoms: S_20  and  C_21
REMARK                            x       y       z     vdW  Elec       q    Type
REMARK                         _______ _______ _______ _____ _____    ______ ____
ROOT
ATOM      1  C   UNL     1       1.582   3.325   0.005  0.00  0.00    +0.032 C 
ATOM      2  C   UNL     1       1.305   2.041  -0.340  0.00  0.00    +0.079 C 
ATOM      3  C   UNL     1       0.007   1.407  -0.643  0.00  0.00    +0.275 C 
ATOM      4  O   UNL     1      -1.034   2.036  -0.614  0.00  0.00    -0.267 OA
ATOM      5  N   UNL     1       0.034   0.122  -0.954  0.00  0.00    -0.170 N 
ATOM      6  C   UNL     1       1.190  -0.571  -0.991  0.00  0.00    +0.138 C 
ATOM      7  S   UNL     1       1.429  -2.223  -1.368  0.00  0.00    -0.026 S 
ATOM      8  S   UNL     1       2.413   0.654  -0.552  0.00  0.00    -0.059 S 
ENDROOT
BRANCH   1  12
ATOM      9  C   UNL     1       5.611   4.623   0.294  0.00  0.00    +0.019 A 
ATOM     10  C   UNL     1       4.611   5.360   0.900  0.00  0.00    +0.047 A 
ATOM     11  C   UNL     1       3.291   4.949   0.807  0.00  0.00    +0.124 A 
ATOM     12  C   UNL     1       2.976   3.774   0.105  0.00  0.00    +0.019 A 
ATOM     13  C   UNL     1       3.998   3.037  -0.504  0.00  0.00    +0.026 A 
ATOM     14  C   UNL     1       5.305   3.466  -0.405  0.00  0.00    +0.019 A 
ATOM     15 BR   UNL     1       6.687   2.470  -1.228  0.00  0.00    -0.050 Br
BRANCH  11  16
ATOM     16  O   UNL     1       2.308   5.676   1.396  0.00  0.00    -0.506 OA
ATOM     17  H   UNL     1       1.261   5.347   1.321  0.00  0.00    +0.292 HD
ENDBRANCH  11  16
ENDBRANCH   1  12
BRANCH   5  18
ATOM     18  N   UNL     1      -1.167  -0.535  -1.253  0.00  0.00    -0.225 N 
ATOM     19  C   UNL     1      -1.468  -0.843  -2.530  0.00  0.00    +0.240 C 
ATOM     20  O   UNL     1      -0.699  -0.550  -3.421  0.00  0.00    -0.273 OA
ATOM     21  H   UNL     1      -1.865  -0.800  -0.444  0.00  0.00    +0.173 HD
BRANCH  19  22
ATOM     22  C   UNL     1      -2.760  -1.550  -2.851  0.00  0.00    +0.174 C 
BRANCH  22  23
ATOM     23  S   UNL     1      -2.872  -1.820  -4.637  0.00  0.00    -0.077 S 
BRANCH  23  24
ATOM     24  C   UNL     1      -4.431  -2.637  -4.725  0.00  0.00    +0.184 A 
ATOM     25  N   UNL     1      -5.035  -3.078  -5.850  0.00  0.00    -0.254 N 
ATOM     26  H   UNL     1      -4.551  -2.935  -6.827  0.00  0.00    +0.191 HD
ATOM     27  N   UNL     1      -6.246  -3.663  -5.444  0.00  0.00    -0.160 NA
ATOM     28  C   UNL     1      -6.312  -3.542  -4.145  0.00  0.00    +0.245 A 
ATOM     29  N   UNL     1      -5.216  -2.922  -3.707  0.00  0.00    -0.209 NA
ENDBRANCH  23  24
ENDBRANCH  22  23
ENDBRANCH  19  22
ENDBRANCH   5  18
TORSDOF 6
