REMARK  Name = ZINC21122243
REMARK  12 active torsions:
REMARK  status: ('A' for Active; 'I' for Inactive)
REMARK    1  A    between atoms: C_1  and  C_2
REMARK    2  A    between atoms: C_2  and  O_3
REMARK    3  A    between atoms: C_2  and  C_30
REMARK    4  A    between atoms: O_3  and  C_4
REMARK    5  A    between atoms: C_5  and  C_11
REMARK    6  A    between atoms: N_12  and  N_13
REMARK    7  A    between atoms: N_16  and  N_17
REMARK    8  A    between atoms: C_18  and  C_19
REMARK    9  A    between atoms: C_20  and  O_26
REMARK   10  A    between atoms: O_26  and  C_27
REMARK   11  A    between atoms: C_27  and  C_28
REMARK   12  A    between atoms: C_27  and  C_29
REMARK                            x       y       z     vdW  Elec       q    Type
REMARK                         _______ _______ _______ _____ _____    ______ ____
ROOT
ATOM      1  N   UNL     1      -4.328  -1.936  -2.006  0.00  0.00    -0.189 N 
ATOM      2  C   UNL     1      -3.752  -1.472  -3.133  0.00  0.00    +0.339 C 
ATOM      3  O   UNL     1      -4.424  -1.299  -4.132  0.00  0.00    -0.249 OA
ATOM      4  N   UNL     1      -2.433  -1.199  -3.152  0.00  0.00    -0.189 N 
ATOM      5  H   UNL     1      -3.809  -2.005  -1.189  0.00  0.00    +0.179 HD
ATOM      6  H   UNL     1      -2.032  -0.799  -3.940  0.00  0.00    +0.179 HD
ENDROOT
BRANCH   1   8
ATOM      7  C   UNL     1      -6.257  -2.669  -0.908  0.00  0.00    +0.142 C 
ATOM      8  N   UNL     1      -5.675  -2.319  -2.014  0.00  0.00    -0.186 NA
BRANCH   7  10
ATOM      9  C   UNL     1      -8.291  -3.392  -2.155  0.00  0.00    +0.130 A 
ATOM     10  C   UNL     1      -7.639  -3.180  -0.932  0.00  0.00    +0.038 A 
ATOM     11  C   UNL     1      -8.307  -3.456   0.263  0.00  0.00    +0.033 A 
ATOM     12  C   UNL     1      -9.601  -3.934   0.234  0.00  0.00    +0.042 A 
ATOM     13  C   UNL     1     -10.241  -4.143  -0.977  0.00  0.00    +0.023 A 
ATOM     14  C   UNL     1      -9.592  -3.868  -2.167  0.00  0.00    +0.048 A 
ATOM     15 CL   UNL     1     -10.431  -4.277   1.720  0.00  0.00    -0.084 Cl
BRANCH   9  16
ATOM     16  O   UNL     1      -7.651  -3.127  -3.323  0.00  0.00    -0.489 OA
BRANCH  16  18
ATOM     17  C   UNL     1      -8.174  -4.919  -4.858  0.00  0.00    +0.051 C 
ATOM     18  C   UNL     1      -8.351  -3.435  -4.530  0.00  0.00    +0.167 C 
ATOM     19  C   UNL     1      -7.790  -2.590  -5.675  0.00  0.00    +0.051 C 
ENDBRANCH  16  18
ENDBRANCH   9  16
ENDBRANCH   7  10
ENDBRANCH   1   8
BRANCH   4  20
ATOM     20  N   UNL     1      -1.639  -1.495  -2.036  0.00  0.00    -0.186 NA
ATOM     21  C   UNL     1      -0.392  -1.139  -2.014  0.00  0.00    +0.142 C 
BRANCH  21  22
ATOM     22  C   UNL     1       0.473  -1.553  -0.895  0.00  0.00    +0.038 A 
ATOM     23  C   UNL     1      -0.069  -2.250   0.194  0.00  0.00    +0.130 A 
ATOM     24  C   UNL     1       0.752  -2.634   1.241  0.00  0.00    +0.048 A 
ATOM     25  C   UNL     1       2.100  -2.332   1.212  0.00  0.00    +0.023 A 
ATOM     26  C   UNL     1       2.641  -1.644   0.139  0.00  0.00    +0.042 A 
ATOM     27  C   UNL     1       1.838  -1.259  -0.916  0.00  0.00    +0.033 A 
ATOM     28 CL   UNL     1       4.336  -1.271   0.116  0.00  0.00    -0.084 Cl
BRANCH  23  29
ATOM     29  O   UNL     1      -1.394  -2.546   0.223  0.00  0.00    -0.489 OA
BRANCH  29  30
ATOM     30  C   UNL     1      -1.890  -3.189   1.398  0.00  0.00    +0.167 C 
ATOM     31  C   UNL     1      -2.184  -2.137   2.470  0.00  0.00    +0.051 C 
ATOM     32  C   UNL     1      -3.176  -3.947   1.061  0.00  0.00    +0.051 C 
ENDBRANCH  29  30
ENDBRANCH  23  29
ENDBRANCH  21  22
ENDBRANCH   4  20
TORSDOF 8
