REMARK  Name = ZINC11093906
REMARK  9 active torsions:
REMARK  status: ('A' for Active; 'I' for Inactive)
REMARK    1  A    between atoms: C_1  and  C_2
REMARK    2  A    between atoms: C_2  and  C_3
REMARK    3  A    between atoms: C_2  and  C_4
REMARK    4  A    between atoms: C_4  and  C_6
REMARK    5  A    between atoms: C_4  and  N_51
REMARK    6  A    between atoms: C_16  and  C_18
REMARK    7  A    between atoms: C_16  and  C_19
REMARK    8  A    between atoms: C_16  and  N_51
REMARK    9  A    between atoms: N_21  and  C_22
REMARK                            x       y       z     vdW  Elec       q    Type
REMARK                         _______ _______ _______ _____ _____    ______ ____
ROOT
ATOM      1  N   UNL     1      -4.652  -0.120  -0.889  0.00  0.00    +0.391 N 
ATOM      2  H   UNL     1      -4.160   0.293  -1.690  0.00  0.00    -0.084 HD
ATOM      3  H   UNL     1      -5.123   0.622  -0.358  0.00  0.00    -0.084 HD
ENDROOT
BRANCH   1   4
ATOM      4  C   UNL     1      -5.656  -1.082  -1.379  0.00  0.00    +0.014 C 
ATOM      5  C   UNL     1      -5.122  -1.787  -2.627  0.00  0.00    -0.004 C 
BRANCH   4   6
ATOM      6  C   UNL     1      -6.924  -0.343  -1.722  0.00  0.00    +0.203 C 
ATOM      7  O   UNL     1      -6.984   0.859  -1.572  0.00  0.00    -0.277 OA
ATOM      8  N   UNL     1      -7.990  -1.018  -2.196  0.00  0.00    -0.285 N 
ATOM      9  H   UNL     1      -7.921  -1.968  -2.377  0.00  0.00    +0.155 HD
BRANCH   8  10
ATOM     10  C   UNL     1      -9.197  -0.346  -2.428  0.00  0.00    +0.069 A 
ATOM     11  C   UNL     1      -9.188   0.968  -2.874  0.00  0.00    +0.027 A 
ATOM     12  C   UNL     1     -10.380   1.628  -3.101  0.00  0.00    +0.017 A 
ATOM     13  C   UNL     1     -11.583   0.982  -2.885  0.00  0.00    +0.021 A 
ATOM     14  C   UNL     1     -11.598  -0.328  -2.439  0.00  0.00    +0.055 A 
ATOM     15  C   UNL     1     -10.408  -0.996  -2.216  0.00  0.00    +0.146 A 
ATOM     16  F   UNL     1     -10.421  -2.277  -1.786  0.00  0.00    -0.204 F 
ATOM     17 BR   UNL     1     -13.212   1.890  -3.196  0.00  0.00    -0.050 Br
ENDBRANCH   8  10
ENDBRANCH   4   6
ENDBRANCH   1   4
BRANCH   1  18
ATOM     18  C   UNL     1      -3.675  -0.798  -0.016  0.00  0.00    -0.037 C 
BRANCH  18  19
ATOM     19  C   UNL     1      -2.382  -0.025  -0.026  0.00  0.00    -0.057 A 
ATOM     20  C   UNL     1      -2.404   1.358  -0.014  0.00  0.00    +0.006 A 
ATOM     21  C   UNL     1      -1.220   2.070  -0.027  0.00  0.00    +0.049 A 
ATOM     22  C   UNL     1      -0.005   1.400  -0.048  0.00  0.00    +0.162 A 
ATOM     23  C   UNL     1       0.017   0.010  -0.059  0.00  0.00    +0.162 A 
ATOM     24  C   UNL     1      -1.175  -0.699  -0.049  0.00  0.00    +0.051 A 
ATOM     25  O   UNL     1       1.197  -0.668  -0.078  0.00  0.00    -0.485 OA
ATOM     26  C   UNL     1       2.358   0.074  -0.466  0.00  0.00    +0.270 C 
ATOM     27  C   UNL     1       2.349   1.411   0.289  0.00  0.00    +0.270 C 
ATOM     28  O   UNL     1       1.153   2.115  -0.062  0.00  0.00    -0.485 OA
ENDBRANCH  18  19
BRANCH  18  30
ATOM     29  C   UNL     1      -3.205  -1.553   2.319  0.00  0.00    +0.006 C 
ATOM     30  C   UNL     1      -4.222  -0.857   1.412  0.00  0.00    -0.027 C 
ATOM     31  C   UNL     1      -4.473   0.563   1.922  0.00  0.00    +0.006 C 
ENDBRANCH  18  30
ENDBRANCH   1  18
TORSDOF 6
