REMARK  Name = ZINC10161171
REMARK  10 active torsions:
REMARK  status: ('A' for Active; 'I' for Inactive)
REMARK    1  A    between atoms: C_1  and  C_2
REMARK    2  A    between atoms: C_2  and  C_3
REMARK    3  A    between atoms: C_2  and  C_4
REMARK    4  A    between atoms: C_4  and  C_5
REMARK    5  A    between atoms: N_7  and  N_8
REMARK    6  A    between atoms: C_9  and  C_11
REMARK    7  A    between atoms: C_11  and  C_12
REMARK    8  A    between atoms: C_15  and  N_18
REMARK    9  A    between atoms: N_18  and  S_19
REMARK   10  A    between atoms: S_19  and  C_22
REMARK                            x       y       z     vdW  Elec       q    Type
REMARK                         _______ _______ _______ _____ _____    ______ ____
ROOT
ATOM      1  C   UNL     1       2.444  -1.638   2.651  0.00  0.00    -0.038 A 
ATOM      2  C   UNL     1       1.262  -2.245   2.267  0.00  0.00    +0.006 A 
ATOM      3  C   UNL     1       0.461  -1.656   1.308  0.00  0.00    +0.025 A 
ATOM      4  C   UNL     1       0.844  -0.452   0.730  0.00  0.00    +0.048 A 
ATOM      5  C   UNL     1       2.034   0.152   1.114  0.00  0.00    +0.025 A 
ATOM      6  C   UNL     1       2.828  -0.440   2.077  0.00  0.00    +0.006 A 
ENDROOT
BRANCH   4   7
ATOM      7  N   UNL     1       0.037   0.146  -0.240  0.00  0.00    -0.216 N 
ATOM      8  H   UNL     1       0.293   0.110  -1.175  0.00  0.00    +0.174 HD
BRANCH   7   9
ATOM      9  S   UNL     1      -1.359   0.918   0.205  0.00  0.00    +0.072 S 
ATOM     10  O   UNL     1      -1.919   1.463  -0.982  0.00  0.00    -0.150 OA
ATOM     11  O   UNL     1      -2.073   0.017   1.040  0.00  0.00    -0.150 OA
BRANCH   9  12
ATOM     12  C   UNL     1      -0.898   2.285   1.218  0.00  0.00    +0.110 A 
ATOM     13  C   UNL     1      -0.903   2.158   2.594  0.00  0.00    +0.030 A 
ATOM     14  C   UNL     1      -0.536   3.227   3.389  0.00  0.00    +0.023 A 
ATOM     15  C   UNL     1      -0.174   4.429   2.808  0.00  0.00    +0.059 A 
ATOM     16  C   UNL     1      -0.175   4.558   1.429  0.00  0.00    +0.061 A 
ATOM     17  C   UNL     1      -0.537   3.485   0.635  0.00  0.00    +0.050 A 
ATOM     18 CL   UNL     1       0.279   6.066   0.698  0.00  0.00    -0.082 Cl
ATOM     19 CL   UNL     1       0.280   5.775   3.806  0.00  0.00    -0.082 Cl
ENDBRANCH   9  12
ENDBRANCH   7   9
ENDBRANCH   4   7
BRANCH   1  20
ATOM     20  C   UNL     1       3.315  -2.284   3.697  0.00  0.00    +0.132 C 
BRANCH  20  22
ATOM     21  N   UNL     1       5.186  -3.899   3.774  0.00  0.00    -0.234 N 
ATOM     22  C   UNL     1       4.300  -3.209   3.030  0.00  0.00    +0.233 C 
ATOM     23  O   UNL     1       4.295  -3.332   1.824  0.00  0.00    -0.274 OA
ATOM     24  H   UNL     1       5.191  -3.801   4.739  0.00  0.00    +0.173 HD
BRANCH  21  27
ATOM     25  C   UNL     1       6.989  -5.450   3.898  0.00  0.00    +0.229 C 
ATOM     26  O   UNL     1       6.994  -5.327   5.105  0.00  0.00    -0.274 OA
ATOM     27  N   UNL     1       6.102  -4.759   3.154  0.00  0.00    -0.234 N 
ATOM     28  H   UNL     1       6.098  -4.858   2.189  0.00  0.00    +0.173 HD
BRANCH  25  29
ATOM     29  C   UNL     1       7.973  -6.375   3.231  0.00  0.00    +0.100 C 
BRANCH  29  31
ATOM     30  C   UNL     1       9.773  -8.062   3.630  0.00  0.00    +0.008 C 
ATOM     31  C   UNL     1       8.858  -7.031   4.293  0.00  0.00    -0.008 C 
ATOM     32  C   UNL     1       9.709  -5.960   4.980  0.00  0.00    +0.008 C 
ENDBRANCH  29  31
ENDBRANCH  25  29
ENDBRANCH  21  27
ENDBRANCH  20  22
ENDBRANCH   1  20
TORSDOF 8
