REMARK  Name = ZINC63537909
REMARK  5 active torsions:
REMARK  status: ('A' for Active; 'I' for Inactive)
REMARK    1  A    between atoms: C_3  and  C_6
REMARK    2  A    between atoms: C_9  and  C_34
REMARK    3  A    between atoms: C_15  and  C_19
REMARK    4  A    between atoms: N_21  and  C_22
REMARK    5  A    between atoms: C_22  and  C_23
REMARK                            x       y       z     vdW  Elec       q    Type
REMARK                         _______ _______ _______ _____ _____    ______ ____
ROOT
ATOM      1  C   UNL     1       3.598   0.653  -0.008  0.00  0.00    +0.123 C 
ATOM      2  C   UNL     1       4.114   0.504   1.423  0.00  0.00    +0.056 C 
ATOM      3  C   UNL     1       3.756  -0.881   1.985  0.00  0.00    +0.180 C 
ATOM      4  N   UNL     1       4.277  -1.875   1.057  0.00  0.00    -0.213 NA
ATOM      5  C   UNL     1       3.584  -1.725  -0.253  0.00  0.00    +0.153 C 
ATOM      6  N   UNL     1       4.046  -0.475  -0.848  0.00  0.00    -0.290 NA
ATOM      7  C   UNL     1       4.020  -2.987  -1.007  0.00  0.00    +0.123 C 
ATOM      8  C   UNL     1       4.308  -4.007   0.124  0.00  0.00    +0.114 C 
ATOM      9  N   UNL     1       4.069  -3.272   1.398  0.00  0.00    -0.251 NA
ATOM     10  H   UNL     1       3.708  -0.380  -1.793  0.00  0.00    +0.124 HD
ATOM     11  H   UNL     1       3.129  -3.426   1.733  0.00  0.00    +0.141 HD
ENDROOT
BRANCH   1  14
ATOM     12  C   UNL     1      -0.045   0.470  -0.538  0.00  0.00    +0.041 A 
ATOM     13  C   UNL     1       1.282   0.242  -0.969  0.00  0.00    +0.046 A 
ATOM     14  C   UNL     1       2.091   0.689   0.009  0.00  0.00    +0.122 A 
ATOM     15  O   UNL     1       1.329   1.172   1.003  0.00  0.00    -0.466 OA
ATOM     16  C   UNL     1       0.033   1.042   0.677  0.00  0.00    +0.195 A 
ENDBRANCH   1  14
BRANCH   7  17
ATOM     17  C   UNL     1       2.911  -3.480  -1.900  0.00  0.00    +0.220 C 
ATOM     18  O   UNL     1       1.855  -2.884  -1.941  0.00  0.00    -0.275 OA
ATOM     19  N   UNL     1       3.092  -4.583  -2.652  0.00  0.00    -0.313 N 
ATOM     20  H   UNL     1       3.936  -5.060  -2.619  0.00  0.00    +0.149 HD
BRANCH  19  21
ATOM     21  C   UNL     1       2.013  -5.063  -3.521  0.00  0.00    +0.133 C 
BRANCH  21  22
ATOM     22  C   UNL     1       2.475  -6.321  -4.259  0.00  0.00    +0.120 C 
ATOM     23  C   UNL     1       1.319  -6.933  -5.019  0.00  0.00    +0.009 C 
ATOM     24  C   UNL     1       1.150  -8.174  -4.508  0.00  0.00    -0.003 A 
ATOM     25  C   UNL     1       0.206  -9.255  -4.815  0.00  0.00    +0.029 A 
ATOM     26  C   UNL     1       0.283 -10.411  -4.117  0.00  0.00    +0.042 A 
ATOM     27  C   UNL     1       1.242 -10.602  -3.110  0.00  0.00    +0.022 A 
ATOM     28  C   UNL     1       2.142  -9.655  -2.772  0.00  0.00    +0.027 A 
ATOM     29  C   UNL     1       2.151  -8.400  -3.442  0.00  0.00    +0.043 A 
ATOM     30  N   UNL     1       2.911  -7.340  -3.299  0.00  0.00    -0.376 N 
ATOM     31 CL   UNL     1      -0.832 -11.692  -4.476  0.00  0.00    -0.084 Cl
ATOM     32  H   UNL     1       3.639  -7.245  -2.664  0.00  0.00    +0.160 HD
ENDBRANCH  21  22
ENDBRANCH  19  21
ENDBRANCH   7  17
BRANCH   3  33
ATOM     33  C   UNL     1       2.236  -1.020   2.099  0.00  0.00    +0.406 C 
ATOM     34  F   UNL     1       1.669  -1.004   0.820  0.00  0.00    -0.169 F 
ATOM     35  F   UNL     1       1.924  -2.227   2.733  0.00  0.00    -0.169 F 
ATOM     36  F   UNL     1       1.726   0.046   2.849  0.00  0.00    -0.169 F 
ENDBRANCH   3  33
TORSDOF 5
