REMARK  Name = ZINC48544775
REMARK  6 active torsions:
REMARK  status: ('A' for Active; 'I' for Inactive)
REMARK    1  A    between atoms: C_6  and  C_7
REMARK    2  A    between atoms: C_7  and  O_8
REMARK    3  A    between atoms: O_8  and  C_9
REMARK    4  A    between atoms: C_12  and  C_15
REMARK    5  A    between atoms: C_16  and  C_17
REMARK    6  A    between atoms: N_19  and  C_20
REMARK                            x       y       z     vdW  Elec       q    Type
REMARK                         _______ _______ _______ _____ _____    ______ ____
ROOT
ATOM      1  C   UNL     1      -2.902  -1.652  -1.502  0.00  0.00    +0.121 A 
ATOM      2  C   UNL     1      -3.619  -2.089  -0.394  0.00  0.00    +0.046 A 
ATOM      3  C   UNL     1      -4.788  -2.796  -0.562  0.00  0.00    +0.011 A 
ATOM      4  C   UNL     1      -5.255  -3.074  -1.851  0.00  0.00    -0.025 A 
ATOM      5  C   UNL     1      -4.531  -2.631  -2.964  0.00  0.00    +0.011 A 
ATOM      6  C   UNL     1      -3.366  -1.921  -2.785  0.00  0.00    +0.046 A 
ENDROOT
BRANCH   4   7
ATOM      7  C   UNL     1      -6.503  -3.829  -2.037  0.00  0.00    +0.013 C 
ATOM      8  C   UNL     1      -6.952  -4.096  -3.281  0.00  0.00    +0.068 C 
BRANCH   8   9
ATOM      9  C   UNL     1      -8.193  -4.847  -3.466  0.00  0.00    +0.241 C 
ATOM     10  O   UNL     1      -8.822  -5.232  -2.496  0.00  0.00    -0.270 OA
ATOM     11  N   UNL     1      -8.641  -5.114  -4.708  0.00  0.00    -0.281 N 
ATOM     12  H   UNL     1      -8.177  -4.752  -5.479  0.00  0.00    +0.155 HD
BRANCH  11  13
ATOM     13  C   UNL     1      -9.777  -5.912  -4.886  0.00  0.00    +0.052 A 
ATOM     14  C   UNL     1     -10.821  -5.850  -3.972  0.00  0.00    +0.026 A 
ATOM     15  C   UNL     1     -11.940  -6.639  -4.150  0.00  0.00    +0.022 A 
ATOM     16  C   UNL     1     -12.023  -7.491  -5.238  0.00  0.00    +0.042 A 
ATOM     17  C   UNL     1     -10.985  -7.554  -6.151  0.00  0.00    +0.041 A 
ATOM     18  C   UNL     1      -9.865  -6.763  -5.981  0.00  0.00    +0.064 A 
ATOM     19 CL   UNL     1      -8.566  -6.838  -7.130  0.00  0.00    -0.082 Cl
ATOM     20 CL   UNL     1     -13.432  -8.481  -5.457  0.00  0.00    -0.083 Cl
ENDBRANCH  11  13
ENDBRANCH   8   9
ENDBRANCH   4   7
BRANCH   1  21
ATOM     21  O   UNL     1      -1.750  -0.956  -1.331  0.00  0.00    -0.487 OA
BRANCH  21  22
ATOM     22  C   UNL     1      -1.331  -0.714   0.014  0.00  0.00    +0.264 C 
BRANCH  22  28
ATOM     23  C   UNL     1      -0.071   1.448   0.012  0.00  0.00    +0.008 A 
ATOM     24  C   UNL     1       1.111   2.165   0.005  0.00  0.00    +0.015 A 
ATOM     25  C   UNL     1       2.323   1.499  -0.008  0.00  0.00    +0.018 A 
ATOM     26  C   UNL     1       2.352   0.116  -0.014  0.00  0.00    +0.015 A 
ATOM     27  C   UNL     1       1.169  -0.600  -0.007  0.00  0.00    +0.008 A 
ATOM     28  C   UNL     1      -0.042   0.066   0.006  0.00  0.00    -0.010 A 
ATOM     29 BR   UNL     1       3.940   2.478  -0.018  0.00  0.00    -0.050 Br
ENDBRANCH  22  28
ENDBRANCH  21  22
ENDBRANCH   1  21
TORSDOF 6
