REMARK  Name = ZINC15868333
REMARK  5 active torsions:
REMARK  status: ('A' for Active; 'I' for Inactive)
REMARK    1  A    between atoms: C_1  and  C_2
REMARK    2  A    between atoms: C_2  and  O_3
REMARK    3  A    between atoms: O_3  and  C_4
REMARK    4  A    between atoms: C_16  and  C_18
REMARK    5  A    between atoms: C_19  and  C_25
REMARK                            x       y       z     vdW  Elec       q    Type
REMARK                         _______ _______ _______ _____ _____    ______ ____
ROOT
ATOM      1  C   UNL     1      -7.801   3.868   5.215  0.00  0.00    +0.122 A 
ATOM      2  C   UNL     1      -6.856   4.026   6.225  0.00  0.00    +0.048 A 
ATOM      3  C   UNL     1      -5.539   3.758   6.016  0.00  0.00    +0.032 A 
ATOM      4  C   UNL     1      -5.080   3.308   4.756  0.00  0.00    +0.081 A 
ATOM      5  C   UNL     1      -6.062   3.157   3.750  0.00  0.00    +0.044 A 
ATOM      6  C   UNL     1      -7.391   3.428   3.966  0.00  0.00    +0.063 A 
ATOM      7  S   UNL     1      -5.101   2.599   2.364  0.00  0.00    -0.048 S 
ATOM      8  C   UNL     1      -3.512   2.591   3.182  0.00  0.00    +0.196 A 
ATOM      9  N   UNL     1      -3.816   3.002   4.389  0.00  0.00    -0.221 NA
ATOM     10  N   UNL     1      -2.268   2.244   2.666  0.00  0.00    -0.193 N 
ATOM     11  C   UNL     1      -1.094   2.264   3.335  0.00  0.00    +0.135 A 
ATOM     12  C   UNL     1      -0.119   1.844   2.470  0.00  0.00    +0.024 A 
ATOM     13  C   UNL     1      -0.718   1.572   1.248  0.00  0.00    +0.066 A 
ATOM     14  N   UNL     1      -2.003   1.815   1.355  0.00  0.00    -0.168 NA
ATOM     15  C   UNL     1      -0.013   1.086   0.008  0.00  0.00    +0.068 C 
ATOM     16  C   UNL     1       1.327   1.727   2.880  0.00  0.00    +0.070 C 
ATOM     17  C   UNL     1       1.598   2.747   3.990  0.00  0.00    +0.109 C 
ATOM     18  C   UNL     1       0.489   2.758   5.004  0.00  0.00    +0.219 C 
ATOM     19  O   UNL     1       0.767   2.886   6.177  0.00  0.00    -0.275 OA
ATOM     20  N   UNL     1      -0.807   2.628   4.649  0.00  0.00    -0.270 N 
ATOM     21  H   UNL     1      -1.518   2.784   5.290  0.00  0.00    +0.156 HD
ENDROOT
BRANCH  16  22
ATOM     22  C   UNL     1       2.216   2.015   1.697  0.00  0.00    -0.002 A 
ATOM     23  C   UNL     1       3.139   1.216   1.108  0.00  0.00    +0.012 A 
ATOM     24  C   UNL     1       3.842   1.695   0.019  0.00  0.00    +0.008 A 
ATOM     25  C   UNL     1       3.596   2.953  -0.422  0.00  0.00    +0.045 A 
ATOM     26  S   UNL     1       2.330   3.500   0.713  0.00  0.00    -0.101 S 
ENDBRANCH  16  22
BRANCH   1  27
ATOM     27  O   UNL     1      -9.112   4.143   5.452  0.00  0.00    -0.492 OA
BRANCH  27  29
ATOM     28  C   UNL     1     -10.961   4.849   6.838  0.00  0.00    +0.048 C 
ATOM     29  C   UNL     1      -9.454   4.593   6.764  0.00  0.00    +0.225 C 
ENDBRANCH  27  29
ENDBRANCH   1  27
TORSDOF 3
