REMARK  Name = ZINC54643004
REMARK  11 active torsions:
REMARK  status: ('A' for Active; 'I' for Inactive)
REMARK    1  A    between atoms: C_1  and  C_2
REMARK    2  A    between atoms: C_2  and  O_3
REMARK    3  A    between atoms: O_3  and  C_4
REMARK    4  A    between atoms: C_9  and  N_10
REMARK    5  A    between atoms: C_11  and  C_13
REMARK    6  A    between atoms: C_14  and  C_38
REMARK    7  A    between atoms: C_18  and  S_30
REMARK    8  A    between atoms: C_21  and  C_23
REMARK    9  A    between atoms: C_26  and  O_29
REMARK   10  A    between atoms: S_30  and  C_31
REMARK   11  A    between atoms: C_31  and  C_32
REMARK                            x       y       z     vdW  Elec       q    Type
REMARK                         _______ _______ _______ _____ _____    ______ ____
ROOT
ATOM      1  C   UNL     1       3.151  -1.267  -5.606  0.00  0.00    +0.060 C 
ATOM      2  C   UNL     1       3.686  -1.893  -6.664  0.00  0.00    +0.018 C 
ATOM      3  N   UNL     1       4.243  -1.206  -7.715  0.00  0.00    -0.287 N 
ATOM      4  C   UNL     1       4.007   0.160  -7.783  0.00  0.00    +0.219 A 
ATOM      5  N   UNL     1       4.217   1.001  -8.759  0.00  0.00    -0.187 NA
ATOM      6  C   UNL     1       3.832   2.229  -8.382  0.00  0.00    +0.211 A 
ATOM      7  N   UNL     1       3.371   2.175  -7.151  0.00  0.00    -0.141 NA
ATOM      8  N   UNL     1       3.478   0.847  -6.741  0.00  0.00    -0.220 N 
ATOM      9  C   UNL     1       3.116   0.232  -5.468  0.00  0.00    +0.177 C 
ATOM     10  C   UNL     1       3.676  -3.399  -6.701  0.00  0.00    +0.061 C 
ATOM     11  H   UNL     1       4.780  -1.659  -8.384  0.00  0.00    +0.155 HD
ENDROOT
BRANCH   9  12
ATOM     12  C   UNL     1       4.100   0.662  -4.410  0.00  0.00    -0.018 A 
ATOM     13  C   UNL     1       5.444   0.376  -4.561  0.00  0.00    +0.009 A 
ATOM     14  C   UNL     1       6.348   0.769  -3.592  0.00  0.00    +0.046 A 
ATOM     15  C   UNL     1       5.905   1.452  -2.469  0.00  0.00    +0.117 A 
ATOM     16  C   UNL     1       4.556   1.739  -2.321  0.00  0.00    +0.046 A 
ATOM     17  C   UNL     1       3.657   1.348  -3.294  0.00  0.00    +0.009 A 
BRANCH  15  18
ATOM     18  O   UNL     1       6.792   1.839  -1.515  0.00  0.00    -0.507 OA
ATOM     19  H   UNL     1       7.166   2.719  -1.659  0.00  0.00    +0.292 HD
ENDBRANCH  15  18
ENDBRANCH   9  12
BRANCH   1  21
ATOM     20  N   UNL     1       3.375  -2.546  -3.596  0.00  0.00    -0.279 N 
ATOM     21  C   UNL     1       2.588  -2.052  -4.572  0.00  0.00    +0.248 C 
ATOM     22  O   UNL     1       1.392  -2.281  -4.564  0.00  0.00    -0.270 OA
ATOM     23  H   UNL     1       4.312  -2.298  -3.556  0.00  0.00    +0.155 HD
BRANCH  20  29
ATOM     24  C   UNL     1       3.440  -3.535  -1.387  0.00  0.00    +0.142 A 
ATOM     25  C   UNL     1       2.903  -4.395  -0.443  0.00  0.00    +0.047 A 
ATOM     26  C   UNL     1       1.779  -5.141  -0.747  0.00  0.00    +0.004 A 
ATOM     27  C   UNL     1       1.187  -5.031  -1.992  0.00  0.00    +0.002 A 
ATOM     28  C   UNL     1       1.717  -4.175  -2.939  0.00  0.00    +0.027 A 
ATOM     29  C   UNL     1       2.841  -3.419  -2.640  0.00  0.00    +0.076 A 
BRANCH  24  30
ATOM     30  O   UNL     1       4.545  -2.800  -1.090  0.00  0.00    -0.490 OA
BRANCH  30  32
ATOM     31  C   UNL     1       6.333  -2.070   0.362  0.00  0.00    +0.048 C 
ATOM     32  C   UNL     1       5.106  -2.970   0.213  0.00  0.00    +0.226 C 
ENDBRANCH  30  32
ENDBRANCH  24  30
ENDBRANCH  20  29
ENDBRANCH   1  21
BRANCH   6  33
ATOM     33  S   UNL     1       3.927   3.681  -9.376  0.00  0.00    -0.080 S 
BRANCH  33  34
ATOM     34  C   UNL     1       4.639   3.097 -10.939  0.00  0.00    +0.112 C 
BRANCH  34  35
ATOM     35  C   UNL     1       4.777   4.256 -11.892  0.00  0.00    -0.037 A 
ATOM     36  C   UNL     1       3.738   4.576 -12.746  0.00  0.00    +0.004 A 
ATOM     37  C   UNL     1       3.864   5.639 -13.621  0.00  0.00    +0.000 A 
ATOM     38  C   UNL     1       5.029   6.383 -13.641  0.00  0.00    +0.000 A 
ATOM     39  C   UNL     1       6.067   6.064 -12.786  0.00  0.00    +0.000 A 
ATOM     40  C   UNL     1       5.940   5.003 -11.909  0.00  0.00    +0.004 A 
ENDBRANCH  34  35
ENDBRANCH  33  34
ENDBRANCH   6  33
TORSDOF 9
