REMARK  Name = ZINC36301676
REMARK  18 active torsions:
REMARK  status: ('A' for Active; 'I' for Inactive)
REMARK    1  A    between atoms: C_1  and  C_2
REMARK    2  A    between atoms: C_2  and  C_3
REMARK    3  A    between atoms: C_3  and  N_4
REMARK    4  A    between atoms: N_4  and  C_5
REMARK    5  A    between atoms: N_4  and  C_28
REMARK    6  A    between atoms: C_5  and  C_6
REMARK    7  A    between atoms: C_7  and  C_27
REMARK    8  A    between atoms: N_9  and  C_20
REMARK    9  A    between atoms: C_10  and  O_11
REMARK   10  A    between atoms: O_11  and  C_12
REMARK   11  A    between atoms: C_15  and  O_18
REMARK   12  A    between atoms: O_18  and  C_19
REMARK   13  A    between atoms: C_28  and  C_29
REMARK   14  A    between atoms: C_29  and  C_31
REMARK   15  A    between atoms: C_29  and  O_36
REMARK   16  A    between atoms: C_31  and  O_32
REMARK   17  A    between atoms: O_32  and  C_33
REMARK   18  A    between atoms: C_33  and  C_34
REMARK                            x       y       z     vdW  Elec       q    Type
REMARK                         _______ _______ _______ _____ _____    ______ ____
ROOT
ATOM      1  C   UNL     1      -1.392  -1.846   0.584  0.00  0.00    +0.021 A 
ATOM      2  C   UNL     1      -1.014  -2.281   1.858  0.00  0.00    +0.065 A 
ATOM      3  N   UNL     1      -1.469  -1.427   2.739  0.00  0.00    -0.168 NA
ATOM      4  N   UNL     1      -2.156  -0.414   2.059  0.00  0.00    -0.200 N 
ATOM      5  C   UNL     1      -2.092  -0.689   0.729  0.00  0.00    +0.225 A 
ATOM      6  C   UNL     1      -0.217  -3.523   2.164  0.00  0.00    +0.068 C 
ENDROOT
BRANCH   4   7
ATOM      7  C   UNL     1      -2.792   0.690   2.644  0.00  0.00    +0.070 A 
ATOM      8  C   UNL     1      -2.726   1.935   2.034  0.00  0.00    +0.028 A 
ATOM      9  C   UNL     1      -3.353   3.021   2.613  0.00  0.00    +0.003 A 
ATOM     10  C   UNL     1      -4.047   2.869   3.799  0.00  0.00    +0.020 A 
ATOM     11  C   UNL     1      -4.116   1.629   4.410  0.00  0.00    +0.043 A 
ATOM     12  C   UNL     1      -3.494   0.538   3.832  0.00  0.00    +0.048 A 
ATOM     13 CL   UNL     1      -4.989   1.443   5.899  0.00  0.00    -0.083 Cl
ENDBRANCH   4   7
BRANCH   1  14
ATOM     14  C   UNL     1      -1.074  -2.533  -0.719  0.00  0.00    -0.036 C 
BRANCH  14  15
ATOM     15  N   UNL     1       0.131  -1.933  -1.308  0.00  0.00    +0.384 N 
ATOM     16  H   UNL     1       0.008  -0.935  -1.381  0.00  0.00    -0.081 HD
BRANCH  15  17
ATOM     17  C   UNL     1       0.355  -2.498  -2.645  0.00  0.00    -0.079 C 
BRANCH  17  19
ATOM     18  C   UNL     1      -0.540  -2.628  -4.974  0.00  0.00    +0.002 C 
ATOM     19  C   UNL     1      -0.831  -2.155  -3.549  0.00  0.00    -0.022 C 
ENDBRANCH  17  19
ENDBRANCH  15  17
BRANCH  15  20
ATOM     20  C   UNL     1       1.290  -2.223  -0.453  0.00  0.00    -0.044 C 
BRANCH  20  21
ATOM     21  C   UNL     1       2.502  -1.434  -0.953  0.00  0.00    +0.124 C 
BRANCH  21  22
ATOM     22  O   UNL     1       2.911  -1.942  -2.224  0.00  0.00    -0.391 OA
ATOM     23  H   UNL     1       3.164  -2.875  -2.211  0.00  0.00    +0.210 HD
ENDBRANCH  21  22
BRANCH  21  24
ATOM     24  C   UNL     1       3.651  -1.576   0.048  0.00  0.00    +0.189 C 
BRANCH  24  25
ATOM     25  O   UNL     1       4.741  -0.746  -0.358  0.00  0.00    -0.373 OA
BRANCH  25  26
ATOM     26  C   UNL     1       5.872  -0.806   0.513  0.00  0.00    +0.186 C 
BRANCH  26  27
ATOM     27  C   UNL     1       6.956   0.103  -0.008  0.00  0.00    -0.007 C 
ATOM     28  C   UNL     1       7.596   0.897   0.814  0.00  0.00    +0.006 C 
ENDBRANCH  26  27
ENDBRANCH  25  26
ENDBRANCH  24  25
ENDBRANCH  21  24
ENDBRANCH  20  21
ENDBRANCH  15  20
ENDBRANCH  14  15
ENDBRANCH   1  14
BRANCH   5  29
ATOM     29  O   UNL     1      -2.630   0.054  -0.272  0.00  0.00    -0.438 OA
BRANCH  29  30
ATOM     30  C   UNL     1      -3.934  -0.159  -0.594  0.00  0.00    +0.131 A 
ATOM     31  C   UNL     1      -4.702  -1.030   0.164  0.00  0.00    +0.050 A 
ATOM     32  C   UNL     1      -6.027  -1.246  -0.163  0.00  0.00    +0.049 A 
ATOM     33  C   UNL     1      -6.588  -0.592  -1.250  0.00  0.00    +0.120 A 
ATOM     34  C   UNL     1      -5.820   0.280  -2.008  0.00  0.00    +0.049 A 
ATOM     35  C   UNL     1      -4.497   0.501  -1.677  0.00  0.00    +0.050 A 
BRANCH  33  36
ATOM     36  O   UNL     1      -7.892  -0.805  -1.572  0.00  0.00    -0.495 OA
ATOM     37  C   UNL     1      -8.404  -0.098  -2.704  0.00  0.00    +0.277 C 
ENDBRANCH  33  36
ENDBRANCH  29  30
ENDBRANCH   5  29
TORSDOF 15
