REMARK  Name = ZINC20424217
REMARK  14 active torsions:
REMARK  status: ('A' for Active; 'I' for Inactive)
REMARK    1  A    between atoms: C_1  and  C_2
REMARK    2  A    between atoms: C_3  and  C_8
REMARK    3  A    between atoms: N_5  and  C_7
REMARK    4  A    between atoms: N_9  and  N_10
REMARK    5  A    between atoms: C_13  and  S_16
REMARK    6  A    between atoms: S_16  and  C_17
REMARK    7  A    between atoms: C_17  and  C_18
REMARK    8  A    between atoms: N_20  and  C_21
REMARK    9  A    between atoms: C_24  and  S_27
REMARK   10  A    between atoms: S_27  and  N_30
REMARK   11  A    between atoms: N_30  and  C_31
REMARK   12  A    between atoms: C_31  and  C_32
REMARK   13  A    between atoms: C_31  and  C_33
REMARK   14  A    between atoms: C_31  and  C_34
REMARK                            x       y       z     vdW  Elec       q    Type
REMARK                         _______ _______ _______ _____ _____    ______ ____
ROOT
ATOM      1  C   UNL     1      -4.596   4.625   6.445  0.00  0.00    +0.173 C 
ENDROOT
BRANCH   1   2
ATOM      2  C   UNL     1      -3.664   4.328   5.298  0.00  0.00    +0.227 C 
ATOM      3  O   UNL     1      -2.831   5.145   4.967  0.00  0.00    -0.275 OA
ATOM      4  N   UNL     1      -3.756   3.155   4.641  0.00  0.00    -0.285 N 
ATOM      5  H   UNL     1      -4.561   2.447   4.889  0.00  0.00    +0.155 HD
BRANCH   4   6
ATOM      6  C   UNL     1      -2.828   2.837   3.644  0.00  0.00    +0.034 A 
ATOM      7  C   UNL     1      -1.510   3.259   3.760  0.00  0.00    +0.025 A 
ATOM      8  C   UNL     1      -0.596   2.943   2.774  0.00  0.00    +0.030 A 
ATOM      9  C   UNL     1      -0.992   2.207   1.672  0.00  0.00    +0.105 A 
ATOM     10  C   UNL     1      -2.304   1.789   1.552  0.00  0.00    +0.030 A 
ATOM     11  C   UNL     1      -3.222   2.098   2.536  0.00  0.00    +0.025 A 
BRANCH   9  12
ATOM     12  S   UNL     1       0.177   1.805   0.417  0.00  0.00    +0.059 S 
ATOM     13  O   UNL     1       1.048   2.922   0.301  0.00  0.00    -0.153 OA
ATOM     14  O   UNL     1      -0.566   1.301  -0.684  0.00  0.00    -0.153 OA
BRANCH  12  15
ATOM     15  N   UNL     1       1.094   0.548   0.984  0.00  0.00    -0.185 NA
ATOM     16  H   UNL     1       2.073   0.759   1.439  0.00  0.00    +0.149 HD
BRANCH  15  17
ATOM     17  C   UNL     1       0.516  -0.795   1.080  0.00  0.00    +0.032 C 
ATOM     18  C   UNL     1       0.243  -1.333  -0.326  0.00  0.00    +0.029 C 
ATOM     19  C   UNL     1       1.497  -1.722   1.800  0.00  0.00    +0.029 C 
ATOM     20  C   UNL     1      -0.795  -0.731   1.865  0.00  0.00    +0.029 C 
ENDBRANCH  15  17
ENDBRANCH  12  15
ENDBRANCH   9  12
ENDBRANCH   4   6
ENDBRANCH   1   2
BRANCH   1  21
ATOM     21  S   UNL     1      -4.224   6.269   7.116  0.00  0.00    -0.075 S 
BRANCH  21  25
ATOM     22  N   UNL     1      -6.940   8.181  11.127  0.00  0.00    -0.205 N 
ATOM     23  C   UNL     1      -6.509   7.317  10.131  0.00  0.00    +0.232 A 
ATOM     24  N   UNL     1      -5.496   7.555   9.244  0.00  0.00    -0.186 NA
ATOM     25  C   UNL     1      -5.383   6.465   8.429  0.00  0.00    +0.211 A 
ATOM     26  N   UNL     1      -6.291   5.591   8.793  0.00  0.00    -0.144 NA
ATOM     27  N   UNL     1      -7.000   6.129   9.874  0.00  0.00    -0.245 N 
ATOM     28  H   UNL     1      -6.454   9.159  11.256  0.00  0.00    +0.177 HD
ATOM     29  H   UNL     1      -7.830   5.735  10.480  0.00  0.00    +0.192 HD
BRANCH  22  31
ATOM     30  C   UNL     1      -8.399   8.614  12.902  0.00  0.00    +0.141 C 
ATOM     31  N   UNL     1      -7.995   7.806  11.970  0.00  0.00    -0.187 NA
BRANCH  30  34
ATOM     32  C   UNL     1      -9.990   5.874  12.776  0.00  0.00    +0.068 C 
ATOM     33  C   UNL     1     -10.226   7.004  13.745  0.00  0.00    +0.069 A 
ATOM     34  C   UNL     1      -9.511   8.220  13.790  0.00  0.00    +0.035 A 
ATOM     35  C   UNL     1     -10.038   8.968  14.820  0.00  0.00    +0.117 A 
ATOM     36  N   UNL     1     -11.035   8.247  15.372  0.00  0.00    -0.274 N 
ATOM     37  N   UNL     1     -11.129   7.029  14.688  0.00  0.00    -0.176 NA
ATOM     38  C   UNL     1     -11.872   8.664  16.500  0.00  0.00    +0.172 C 
ENDBRANCH  30  34
ENDBRANCH  22  31
ENDBRANCH  21  25
ENDBRANCH   1  21
TORSDOF 9
