REMARK  Name = ZINC05288560
REMARK  7 active torsions:
REMARK  status: ('A' for Active; 'I' for Inactive)
REMARK    1  A    between atoms: C_1  and  C_2
REMARK    2  A    between atoms: C_2  and  N_3
REMARK    3  A    between atoms: N_3  and  N_4
REMARK    4  A    between atoms: C_5  and  C_7
REMARK    5  A    between atoms: C_7  and  C_8
REMARK    6  A    between atoms: C_15  and  C_16
REMARK    7  A    between atoms: N_18  and  C_19
REMARK                            x       y       z     vdW  Elec       q    Type
REMARK                         _______ _______ _______ _____ _____    ______ ____
ROOT
ATOM      1  C   UNL     1       0.006   1.649   0.139  0.00  0.00    +0.062 C 
ATOM      2  C   UNL     1      -0.735   1.741  -1.170  0.00  0.00    +0.024 C 
ATOM      3  C   UNL     1      -2.084   1.742  -1.183  0.00  0.00    +0.087 C 
ENDROOT
BRANCH   3   4
ATOM      4  C   UNL     1      -2.803   1.479   0.005  0.00  0.00    +0.243 C 
ATOM      5  O   UNL     1      -2.205   1.272   1.046  0.00  0.00    -0.270 OA
ATOM      6  N   UNL     1      -4.150   1.456  -0.013  0.00  0.00    -0.281 N 
ATOM      7  H   UNL     1      -4.628   1.683  -0.826  0.00  0.00    +0.155 HD
BRANCH   6   8
ATOM      8  C   UNL     1      -4.860   1.106   1.141  0.00  0.00    +0.052 A 
ATOM      9  C   UNL     1      -4.360   1.438   2.393  0.00  0.00    +0.026 A 
ATOM     10  C   UNL     1      -5.063   1.091   3.530  0.00  0.00    +0.022 A 
ATOM     11  C   UNL     1      -6.265   0.413   3.424  0.00  0.00    +0.042 A 
ATOM     12  C   UNL     1      -6.766   0.080   2.178  0.00  0.00    +0.041 A 
ATOM     13  C   UNL     1      -6.070   0.429   1.036  0.00  0.00    +0.064 A 
ATOM     14 CL   UNL     1      -6.702   0.017  -0.527  0.00  0.00    -0.082 Cl
ATOM     15 CL   UNL     1      -7.145  -0.021   4.856  0.00  0.00    -0.083 Cl
ENDBRANCH   6   8
ENDBRANCH   3   4
BRANCH   2  16
ATOM     16  N   UNL     1      -0.040   1.823  -2.344  0.00  0.00    -0.269 N 
ATOM     17  H   UNL     1       0.930   1.822  -2.334  0.00  0.00    +0.170 HD
BRANCH  16  18
ATOM     18  N   UNL     1      -0.728   1.909  -3.561  0.00  0.00    -0.237 N 
ATOM     19  C   UNL     1      -0.042   1.990  -4.719  0.00  0.00    +0.233 C 
ATOM     20  O   UNL     1       1.170   1.988  -4.707  0.00  0.00    -0.274 OA
ATOM     21  H   UNL     1      -1.698   1.910  -3.571  0.00  0.00    +0.173 HD
BRANCH  19  22
ATOM     22  C   UNL     1      -0.783   2.082  -6.028  0.00  0.00    +0.132 C 
BRANCH  22  23
ATOM     23  C   UNL     1       0.208   2.161  -7.161  0.00  0.00    -0.038 A 
ATOM     24  C   UNL     1       0.667   3.391  -7.593  0.00  0.00    +0.005 A 
ATOM     25  C   UNL     1       1.575   3.465  -8.632  0.00  0.00    +0.020 A 
ATOM     26  C   UNL     1       2.025   2.306  -9.239  0.00  0.00    +0.041 A 
ATOM     27  C   UNL     1       1.566   1.075  -8.807  0.00  0.00    +0.020 A 
ATOM     28  C   UNL     1       0.661   1.003  -7.764  0.00  0.00    +0.005 A 
ATOM     29 CL   UNL     1       3.166   2.397 -10.545  0.00  0.00    -0.084 Cl
ENDBRANCH  22  23
ENDBRANCH  19  22
ENDBRANCH  16  18
ENDBRANCH   2  16
TORSDOF 6
