REMARK  Name = ZINC31812661
REMARK  8 active torsions:
REMARK  status: ('A' for Active; 'I' for Inactive)
REMARK    1  A    between atoms: C_1  and  N_2
REMARK    2  A    between atoms: N_5  and  C_8
REMARK    3  A    between atoms: C_8  and  C_14
REMARK    4  A    between atoms: C_14  and  N_15
REMARK    5  A    between atoms: C_16  and  C_18
REMARK    6  A    between atoms: C_18  and  C_19
REMARK    7  A    between atoms: N_23  and  C_27
REMARK    8  A    between atoms: C_27  and  C_28
REMARK                            x       y       z     vdW  Elec       q    Type
REMARK                         _______ _______ _______ _____ _____    ______ ____
ROOT
ATOM      1  N   UNL     1      -0.589  -3.988  -1.380  0.00  0.00    -0.313 N 
ATOM      2  C   UNL     1      -1.895  -4.202  -1.630  0.00  0.00    +0.215 C 
ATOM      3  O   UNL     1      -2.583  -4.776  -0.813  0.00  0.00    -0.276 OA
ATOM      4  H   UNL     1      -0.038  -3.528  -2.034  0.00  0.00    +0.149 HD
ENDROOT
BRANCH   1   5
ATOM      5  C   UNL     1       0.001  -4.449  -0.121  0.00  0.00    +0.126 C 
BRANCH   5   6
ATOM      6  C   UNL     1       1.453  -3.974  -0.034  0.00  0.00    +0.037 C 
ATOM      7  C   UNL     1       2.109  -4.564   1.216  0.00  0.00    +0.024 C 
ATOM      8  C   UNL     1       1.345  -4.101   2.459  0.00  0.00    +0.002 C 
ATOM      9  C   UNL     1       1.378  -2.573   2.539  0.00  0.00    +0.000 C 
ATOM     10  C   UNL     1       0.723  -1.983   1.288  0.00  0.00    +0.002 C 
ATOM     11  C   UNL     1       1.486  -2.446   0.046  0.00  0.00    +0.024 C 
BRANCH   6  16
ATOM     12  C   UNL     1       4.947  -6.260  -3.817  0.00  0.00    -0.096 C 
ATOM     13  N   UNL     1       4.249  -5.845  -2.592  0.00  0.00    +0.379 N 
ATOM     14  C   UNL     1       4.290  -4.381  -2.479  0.00  0.00    -0.064 C 
ATOM     15  C   UNL     1       3.579  -3.950  -1.194  0.00  0.00    +0.066 C 
ATOM     16  N   UNL     1       2.186  -4.418  -1.227  0.00  0.00    -0.299 NA
ATOM     17  C   UNL     1       2.130  -5.880  -1.365  0.00  0.00    +0.066 C 
ATOM     18  C   UNL     1       2.852  -6.296  -2.649  0.00  0.00    -0.064 C 
ATOM     19  H   UNL     1       4.703  -6.257  -1.791  0.00  0.00    -0.082 HD
ENDBRANCH   6  16
ENDBRANCH   5   6
ENDBRANCH   1   5
BRANCH   2  20
ATOM     20  C   UNL     1      -2.502  -3.728  -2.926  0.00  0.00    +0.127 C 
BRANCH  20  21
ATOM     21  C   UNL     1      -3.987  -4.094  -2.958  0.00  0.00    +0.170 C 
ATOM     22  C   UNL     1      -4.640  -3.567  -4.220  0.00  0.00    +0.244 C 
ATOM     23  O   UNL     1      -4.738  -2.409  -4.565  0.00  0.00    -0.273 OA
ATOM     24  N   UNL     1      -5.087  -4.653  -4.880  0.00  0.00    -0.220 N 
ATOM     25  C   UNL     1      -4.811  -5.782  -4.217  0.00  0.00    +0.309 C 
ATOM     26  O   UNL     1      -5.115  -6.890  -4.613  0.00  0.00    -0.252 OA
ATOM     27  N   UNL     1      -4.159  -5.554  -3.059  0.00  0.00    -0.287 N 
ATOM     28  H   UNL     1      -3.860  -6.218  -2.418  0.00  0.00    +0.151 HD
BRANCH  24  29
ATOM     29  C   UNL     1      -5.790  -4.604  -6.165  0.00  0.00    +0.153 C 
BRANCH  29  30
ATOM     30  C   UNL     1      -4.789  -4.684  -7.288  0.00  0.00    -0.026 A 
ATOM     31  C   UNL     1      -4.236  -3.526  -7.803  0.00  0.00    +0.009 A 
ATOM     32  C   UNL     1      -3.317  -3.594  -8.833  0.00  0.00    +0.050 A 
ATOM     33  C   UNL     1      -2.948  -4.824  -9.353  0.00  0.00    +0.166 A 
ATOM     34  C   UNL     1      -3.506  -5.991  -8.835  0.00  0.00    +0.167 A 
ATOM     35  C   UNL     1      -4.422  -5.915  -7.798  0.00  0.00    +0.054 A 
ATOM     36  O   UNL     1      -2.987  -7.059  -9.508  0.00  0.00    -0.453 OA
ATOM     37  C   UNL     1      -2.418  -6.514 -10.714  0.00  0.00    +0.466 C 
ATOM     38  O   UNL     1      -2.080  -5.162 -10.351  0.00  0.00    -0.453 OA
ENDBRANCH  29  30
ENDBRANCH  24  29
ENDBRANCH  20  21
ENDBRANCH   2  20
TORSDOF 7
