REMARK  Name = ZINC14655376
REMARK  13 active torsions:
REMARK  status: ('A' for Active; 'I' for Inactive)
REMARK    1  A    between atoms: C_1  and  C_2
REMARK    2  A    between atoms: C_2  and  O_3
REMARK    3  A    between atoms: O_3  and  C_4
REMARK    4  A    between atoms: C_9  and  C_10
REMARK    5  A    between atoms: N_12  and  C_13
REMARK    6  A    between atoms: C_13  and  N_15
REMARK    7  A    between atoms: N_15  and  C_16
REMARK    8  A    between atoms: C_19  and  S_22
REMARK    9  A    between atoms: S_22  and  N_25
REMARK   10  A    between atoms: N_25  and  C_26
REMARK   11  A    between atoms: C_26  and  C_27
REMARK   12  A    between atoms: C_26  and  C_28
REMARK   13  A    between atoms: C_26  and  C_29
REMARK                            x       y       z     vdW  Elec       q    Type
REMARK                         _______ _______ _______ _____ _____    ______ ____
ROOT
ATOM      1  N   UNL     1      -3.335   3.811   5.118  0.00  0.00    -0.297 N 
ATOM      2  H   UNL     1      -3.717   4.699   5.042  0.00  0.00    +0.154 HD
ENDROOT
BRANCH   1   3
ATOM      3  C   UNL     1      -2.679   3.236   4.025  0.00  0.00    +0.033 A 
ATOM      4  C   UNL     1      -2.889   1.899   3.712  0.00  0.00    +0.025 A 
ATOM      5  C   UNL     1      -2.240   1.334   2.632  0.00  0.00    +0.030 A 
ATOM      6  C   UNL     1      -1.382   2.098   1.862  0.00  0.00    +0.105 A 
ATOM      7  C   UNL     1      -1.167   3.428   2.174  0.00  0.00    +0.030 A 
ATOM      8  C   UNL     1      -1.817   4.000   3.250  0.00  0.00    +0.025 A 
BRANCH   6   9
ATOM      9  S   UNL     1      -0.557   1.374   0.484  0.00  0.00    +0.059 S 
ATOM     10  O   UNL     1      -0.082   0.106   0.915  0.00  0.00    -0.153 OA
ATOM     11  O   UNL     1       0.307   2.372  -0.043  0.00  0.00    -0.153 OA
BRANCH   9  12
ATOM     12  N   UNL     1      -1.703   1.081  -0.675  0.00  0.00    -0.185 NA
ATOM     13  H   UNL     1      -1.950   0.169  -0.893  0.00  0.00    +0.149 HD
BRANCH  12  14
ATOM     14  C   UNL     1      -2.343   2.200  -1.371  0.00  0.00    +0.032 C 
ATOM     15  C   UNL     1      -1.306   2.927  -2.230  0.00  0.00    +0.029 C 
ATOM     16  C   UNL     1      -3.465   1.669  -2.266  0.00  0.00    +0.029 C 
ATOM     17  C   UNL     1      -2.927   3.172  -0.345  0.00  0.00    +0.029 C 
ENDBRANCH  12  14
ENDBRANCH   9  12
ENDBRANCH   6   9
ENDBRANCH   1   3
BRANCH   1  18
ATOM     18  C   UNL     1      -3.436   3.131   6.278  0.00  0.00    +0.141 C 
ATOM     19  S   UNL     1      -2.640   1.626   6.459  0.00  0.00    -0.018 S 
BRANCH  18  22
ATOM     20  C   UNL     1      -4.264   2.956   8.453  0.00  0.00    +0.253 C 
ATOM     21  O   UNL     1      -3.699   1.887   8.582  0.00  0.00    -0.270 OA
ATOM     22  N   UNL     1      -4.163   3.636   7.294  0.00  0.00    -0.263 N 
ATOM     23  H   UNL     1      -4.614   4.489   7.191  0.00  0.00    +0.157 HD
BRANCH  20  29
ATOM     24  C   UNL     1      -5.172   2.802  10.770  0.00  0.00    +0.133 A 
ATOM     25  C   UNL     1      -5.918   3.333  11.812  0.00  0.00    +0.047 A 
ATOM     26  C   UNL     1      -6.557   4.548  11.657  0.00  0.00    +0.019 A 
ATOM     27  C   UNL     1      -6.453   5.247  10.464  0.00  0.00    +0.019 A 
ATOM     28  C   UNL     1      -5.710   4.737   9.421  0.00  0.00    +0.032 A 
ATOM     29  C   UNL     1      -5.059   3.509   9.565  0.00  0.00    +0.080 A 
ATOM     30 BR   UNL     1      -7.333   6.909  10.268  0.00  0.00    -0.050 Br
BRANCH  24  31
ATOM     31  O   UNL     1      -4.549   1.606  10.920  0.00  0.00    -0.491 OA
BRANCH  31  33
ATOM     32  C   UNL     1      -3.940  -0.379  12.157  0.00  0.00    +0.048 C 
ATOM     33  C   UNL     1      -4.709   0.944  12.176  0.00  0.00    +0.226 C 
ENDBRANCH  31  33
ENDBRANCH  24  31
ENDBRANCH  20  29
ENDBRANCH  18  22
ENDBRANCH   1  18
TORSDOF 9
