REMARK  Name = ZINC12748869
REMARK  7 active torsions:
REMARK  status: ('A' for Active; 'I' for Inactive)
REMARK    1  A    between atoms: C_1  and  C_2
REMARK    2  A    between atoms: C_2  and  C_4
REMARK    3  A    between atoms: C_2  and  N_20
REMARK    4  A    between atoms: C_10  and  C_15
REMARK    5  A    between atoms: N_20  and  C_21
REMARK    6  A    between atoms: N_24  and  C_27
REMARK    7  A    between atoms: C_27  and  C_28
REMARK                            x       y       z     vdW  Elec       q    Type
REMARK                         _______ _______ _______ _____ _____    ______ ____
ROOT
ATOM      1  C   UNL     1      -0.019   1.526   0.010  0.00  0.00    +0.032 C 
ATOM      2  C   UNL     1       0.002  -0.004   0.002  0.00  0.00    +0.117 C 
ENDROOT
BRANCH   2   3
ATOM      3  C   UNL     1       0.731  -0.503   1.223  0.00  0.00    +0.128 A 
ATOM      4  N   UNL     1       1.992  -0.066   1.472  0.00  0.00    -0.309 N 
ATOM      5  H   UNL     1       2.407   0.562   0.861  0.00  0.00    +0.170 HD
ATOM      6  C   UNL     1       2.677  -0.487   2.552  0.00  0.00    +0.260 A 
ATOM      7  O   UNL     1       3.808  -0.085   2.762  0.00  0.00    -0.267 OA
ATOM      8  C   UNL     1       2.057  -1.414   3.449  0.00  0.00    +0.080 A 
ATOM      9  C   UNL     1       2.586  -2.009   4.671  0.00  0.00    +0.010 A 
ATOM     10  C   UNL     1       1.804  -2.873   5.366  0.00  0.00    +0.057 A 
ATOM     11  S   UNL     1       0.302  -2.932   4.407  0.00  0.00    -0.076 S 
ATOM     12  C   UNL     1       0.753  -1.809   3.110  0.00  0.00    +0.116 A 
ATOM     13  N   UNL     1       0.137  -1.345   2.026  0.00  0.00    -0.225 NA
BRANCH   9  14
ATOM     14  C   UNL     1       3.947  -1.679   5.143  0.00  0.00    +0.021 A 
ATOM     15  C   UNL     1       4.357  -1.286   6.389  0.00  0.00    +0.016 A 
ATOM     16  C   UNL     1       5.696  -1.029   6.595  0.00  0.00    +0.008 A 
ATOM     17  C   UNL     1       6.564  -1.174   5.562  0.00  0.00    +0.046 A 
ATOM     18  S   UNL     1       5.486  -1.697   4.238  0.00  0.00    -0.097 S 
ENDBRANCH   9  14
ENDBRANCH   2   3
BRANCH   2  19
ATOM     19  N   UNL     1      -1.376  -0.512   0.012  0.00  0.00    -0.304 NA
ATOM     20  H   UNL     1      -1.426  -1.413   0.464  0.00  0.00    +0.123 HD
BRANCH  19  21
ATOM     21  C   UNL     1      -1.924  -0.575  -1.349  0.00  0.00    +0.051 C 
ATOM     22  C   UNL     1      -1.521  -1.900  -2.003  0.00  0.00    -0.000 C 
ATOM     23  C   UNL     1      -2.161  -1.994  -3.390  0.00  0.00    -0.077 C 
ATOM     24  N   UNL     1      -3.622  -1.933  -3.264  0.00  0.00    +0.382 N 
ATOM     25  C   UNL     1      -4.021  -0.637  -2.703  0.00  0.00    -0.077 C 
ATOM     26  C   UNL     1      -3.452  -0.491  -1.290  0.00  0.00    -0.000 C 
ATOM     27  H   UNL     1      -3.937  -2.673  -2.654  0.00  0.00    -0.081 HD
BRANCH  24  28
ATOM     28  C   UNL     1      -4.234  -2.102  -4.588  0.00  0.00    -0.043 C 
BRANCH  28  29
ATOM     29  C   UNL     1      -5.733  -2.163  -4.445  0.00  0.00    -0.064 A 
ATOM     30  C   UNL     1      -6.359  -3.381  -4.251  0.00  0.00    +0.003 A 
ATOM     31  C   UNL     1      -7.734  -3.438  -4.120  0.00  0.00    +0.020 A 
ATOM     32  C   UNL     1      -8.483  -2.276  -4.183  0.00  0.00    +0.041 A 
ATOM     33  C   UNL     1      -7.856  -1.059  -4.377  0.00  0.00    +0.020 A 
ATOM     34  C   UNL     1      -6.481  -1.002  -4.503  0.00  0.00    +0.003 A 
ATOM     35 CL   UNL     1     -10.210  -2.348  -4.019  0.00  0.00    -0.084 Cl
ENDBRANCH  28  29
ENDBRANCH  24  28
ENDBRANCH  19  21
ENDBRANCH   2  19
TORSDOF 6
