REMARK  Name = ZINC40326800
REMARK  4 active torsions:
REMARK  status: ('A' for Active; 'I' for Inactive)
REMARK    1  A    between atoms: C_4  and  S_8
REMARK    2  A    between atoms: C_5  and  N_7
REMARK    3  A    between atoms: S_8  and  N_11
REMARK    4  A    between atoms: N_11  and  C_12
REMARK                            x       y       z     vdW  Elec       q    Type
REMARK                         _______ _______ _______ _____ _____    ______ ____
ROOT
ATOM      1  S   UNL     1       3.929  -0.845  -0.055  0.00  0.00    +0.093 S 
ATOM      2  O   UNL     1       3.804  -1.838  -1.063  0.00  0.00    -0.148 OA
ATOM      3  O   UNL     1       4.959   0.135  -0.074  0.00  0.00    -0.148 OA
ENDROOT
BRANCH   1   7
ATOM      4  C   UNL     1      -0.001   1.410   0.035  0.00  0.00    +0.002 A 
ATOM      5  C   UNL     1       1.196   2.101  -0.011  0.00  0.00    +0.002 A 
ATOM      6  C   UNL     1       2.395   1.413  -0.039  0.00  0.00    +0.031 A 
ATOM      7  C   UNL     1       2.401   0.031  -0.019  0.00  0.00    +0.131 A 
ATOM      8  C   UNL     1       1.201  -0.666   0.028  0.00  0.00    +0.052 A 
ATOM      9  C   UNL     1      -0.002   0.029   0.055  0.00  0.00    +0.025 A 
BRANCH   8  10
ATOM     10  N   UNL     1       1.203  -2.062   0.048  0.00  0.00    -0.356 N 
ATOM     11  H   UNL     1       2.043  -2.546   0.028  0.00  0.00    +0.142 HD
ATOM     12  H   UNL     1       0.364  -2.548   0.081  0.00  0.00    +0.142 HD
ENDBRANCH   8  10
ENDBRANCH   1   7
BRANCH   1  13
ATOM     13  N   UNL     1       4.067  -1.648   1.387  0.00  0.00    -0.095 NA
BRANCH  13  14
ATOM     14  C   UNL     1       5.148  -2.506   1.608  0.00  0.00    +0.111 A 
ATOM     15  C   UNL     1       6.186  -2.588   0.684  0.00  0.00    +0.031 A 
ATOM     16  C   UNL     1       7.236  -3.452   0.948  0.00  0.00    +0.022 A 
ATOM     17  C   UNL     1       7.220  -4.199   2.111  0.00  0.00    +0.112 A 
ATOM     18  N   UNL     1       6.222  -4.100   2.967  0.00  0.00    -0.242 NA
ATOM     19  C   UNL     1       5.206  -3.285   2.758  0.00  0.00    +0.154 A 
ATOM     20 CL   UNL     1       3.925  -3.192   3.926  0.00  0.00    -0.060 Cl
ENDBRANCH  13  14
ENDBRANCH   1  13
TORSDOF 4
