REMARK  Name = ZINC09409685
REMARK  8 active torsions:
REMARK  status: ('A' for Active; 'I' for Inactive)
REMARK    1  A    between atoms: C_1  and  C_2
REMARK    2  A    between atoms: C_7  and  C_8
REMARK    3  A    between atoms: C_8  and  O_9
REMARK    4  A    between atoms: O_9  and  C_10
REMARK    5  A    between atoms: C_13  and  C_18
REMARK    6  A    between atoms: C_15  and  O_16
REMARK    7  A    between atoms: O_16  and  C_17
REMARK    8  A    between atoms: C_30  and  C_32
REMARK                            x       y       z     vdW  Elec       q    Type
REMARK                         _______ _______ _______ _____ _____    ______ ____
ROOT
ATOM      1  C   UNL     1       1.250  -2.176  -0.022  0.00  0.00    +0.066 C 
ATOM      2  C   UNL     1       0.052  -2.709  -0.810  0.00  0.00    +0.109 C 
ATOM      3  C   UNL     1      -1.205  -2.014  -0.360  0.00  0.00    +0.219 C 
ATOM      4  O   UNL     1      -2.250  -2.627  -0.330  0.00  0.00    -0.275 OA
ATOM      5  N   UNL     1      -1.183  -0.721   0.010  0.00  0.00    -0.270 N 
ATOM      6  C   UNL     1       0.002  -0.004   0.002  0.00  0.00    +0.136 A 
ATOM      7  C   UNL     1       1.213  -0.672  -0.013  0.00  0.00    +0.065 A 
ATOM      8  C   UNL     1       2.401   0.071  -0.021  0.00  0.00    +0.257 A 
ATOM      9  O   UNL     1       3.486  -0.488  -0.035  0.00  0.00    -0.267 OA
ATOM     10  N   UNL     1       2.320   1.419  -0.013  0.00  0.00    -0.307 N 
ATOM     11  H   UNL     1       3.129   1.954  -0.018  0.00  0.00    +0.170 HD
ATOM     12  C   UNL     1       1.101   2.029   0.002  0.00  0.00    +0.143 A 
ATOM     13  N   UNL     1      -0.016   1.334   0.009  0.00  0.00    -0.214 NA
ATOM     14  H   UNL     1      -2.005  -0.286   0.285  0.00  0.00    +0.156 HD
ENDROOT
BRANCH   1  18
ATOM     15  C   UNL     1       1.069  -3.628   3.996  0.00  0.00    +0.162 A 
ATOM     16  C   UNL     1       0.039  -2.852   3.490  0.00  0.00    +0.050 A 
ATOM     17  C   UNL     1       0.100  -2.384   2.191  0.00  0.00    +0.008 A 
ATOM     18  C   UNL     1       1.188  -2.688   1.394  0.00  0.00    -0.036 A 
ATOM     19  C   UNL     1       2.217  -3.466   1.891  0.00  0.00    +0.053 A 
ATOM     20  C   UNL     1       2.164  -3.934   3.194  0.00  0.00    +0.162 A 
BRANCH  20  21
ATOM     21  O   UNL     1       3.179  -4.695   3.686  0.00  0.00    -0.491 OA
ATOM     22  C   UNL     1       4.270  -4.969   2.806  0.00  0.00    +0.277 C 
ENDBRANCH  20  21
BRANCH  15  23
ATOM     23  O   UNL     1       1.011  -4.089   5.274  0.00  0.00    -0.484 OA
BRANCH  23  24
ATOM     24  C   UNL     1      -0.143  -3.736   6.039  0.00  0.00    +0.265 C 
BRANCH  24  31
ATOM     25  C   UNL     1      -2.246  -3.301   7.972  0.00  0.00    +0.044 C 
ATOM     26  C   UNL     1      -1.039  -4.123   8.344  0.00  0.00    -0.044 A 
ATOM     27  C   UNL     1      -0.938  -4.670   9.610  0.00  0.00    +0.004 A 
ATOM     28  C   UNL     1       0.168  -5.425   9.950  0.00  0.00    +0.000 A 
ATOM     29  C   UNL     1       1.174  -5.633   9.025  0.00  0.00    +0.000 A 
ATOM     30  C   UNL     1       1.071  -5.091   7.758  0.00  0.00    +0.007 A 
ATOM     31  C   UNL     1      -0.033  -4.331   7.419  0.00  0.00    -0.007 A 
ENDBRANCH  24  31
ENDBRANCH  23  24
ENDBRANCH  15  23
ENDBRANCH   1  18
BRANCH  12  32
ATOM     32  C   UNL     1       1.032   3.505   0.011  0.00  0.00    +0.017 A 
ATOM     33  C   UNL     1       2.206   4.262   0.009  0.00  0.00    +0.011 A 
ATOM     34  C   UNL     1       2.135   5.639   0.011  0.00  0.00    +0.001 A 
ATOM     35  C   UNL     1       0.904   6.272   0.027  0.00  0.00    +0.000 A 
ATOM     36  C   UNL     1      -0.263   5.528   0.033  0.00  0.00    +0.001 A 
ATOM     37  C   UNL     1      -0.206   4.150   0.025  0.00  0.00    +0.011 A 
ENDBRANCH  12  32
TORSDOF 6
