REMARK  Name = ZINC59486903
REMARK  4 active torsions:
REMARK  status: ('A' for Active; 'I' for Inactive)
REMARK    1  A    between atoms: C_1  and  C_2
REMARK    2  A    between atoms: C_2  and  C_3
REMARK    3  A    between atoms: C_9  and  C_14
REMARK    4  A    between atoms: C_18  and  N_20
REMARK                            x       y       z     vdW  Elec       q    Type
REMARK                         _______ _______ _______ _____ _____    ______ ____
ROOT
ATOM      1  C   UNL     1      -1.412  -0.526   0.013  0.00  0.00    -0.009 A 
ATOM      2  C   UNL     1      -2.202  -0.814  -1.038  0.00  0.00    +0.025 A 
ATOM      3  C   UNL     1      -3.532  -1.306  -0.735  0.00  0.00    +0.058 A 
ATOM      4  C   UNL     1      -3.808  -1.410   0.637  0.00  0.00    +0.059 A 
ATOM      5  S   UNL     1      -2.434  -0.916   1.420  0.00  0.00    -0.086 S 
ATOM      6  S   UNL     1      -5.345  -1.972   1.272  0.00  0.00    -0.090 S 
ATOM      7  C   UNL     1      -6.474  -1.577  -0.102  0.00  0.00    +0.167 C 
ATOM      8  N   UNL     1      -5.841  -1.881  -1.377  0.00  0.00    -0.295 N 
ATOM      9  C   UNL     1      -4.566  -1.690  -1.712  0.00  0.00    +0.247 C 
ATOM     10  O   UNL     1      -4.242  -1.839  -2.876  0.00  0.00    -0.270 OA
ATOM     11  H   UNL     1      -6.412  -2.268  -2.059  0.00  0.00    +0.150 HD
ENDROOT
BRANCH   7  12
ATOM     12  C   UNL     1      -6.821  -0.111  -0.057  0.00  0.00    -0.015 A 
ATOM     13  C   UNL     1      -6.044   0.804  -0.743  0.00  0.00    +0.006 A 
ATOM     14  C   UNL     1      -6.362   2.149  -0.703  0.00  0.00    +0.003 A 
ATOM     15  C   UNL     1      -7.457   2.578   0.024  0.00  0.00    +0.033 A 
ATOM     16  C   UNL     1      -8.234   1.664   0.709  0.00  0.00    +0.127 A 
ATOM     17  C   UNL     1      -7.918   0.318   0.665  0.00  0.00    +0.039 A 
BRANCH  16  18
ATOM     18  N   UNL     1      -9.405   2.124   1.488  0.00  0.00    +0.056 N 
ATOM     19  O   UNL     1      -9.683   3.300   1.524  0.00  0.00    -0.126 OA
ATOM     20  O   UNL     1     -10.085   1.323   2.087  0.00  0.00    -0.126 OA
ENDBRANCH  16  18
ENDBRANCH   7  12
BRANCH   1  22
ATOM     21  C   UNL     1      -0.019   1.526   0.010  0.00  0.00    +0.009 C 
ATOM     22  C   UNL     1       0.002  -0.004   0.002  0.00  0.00    +0.039 C 
ENDBRANCH   1  22
TORSDOF 3
