REMARK  Name = ZINC40385434
REMARK  7 active torsions:
REMARK  status: ('A' for Active; 'I' for Inactive)
REMARK    1  A    between atoms: C_1  and  C_2
REMARK    2  A    between atoms: C_2  and  C_3
REMARK    3  A    between atoms: C_12  and  C_13
REMARK    4  A    between atoms: C_13  and  C_15
REMARK    5  A    between atoms: C_13  and  C_27
REMARK    6  A    between atoms: C_15  and  C_16
REMARK    7  A    between atoms: C_21  and  C_24
REMARK                            x       y       z     vdW  Elec       q    Type
REMARK                         _______ _______ _______ _____ _____    ______ ____
ROOT
ATOM      1  C   UNL     1       5.278  -1.492  -3.042  0.00  0.00    +0.060 C 
ENDROOT
BRANCH   1  11
ATOM      2  C   UNL     1       0.707  -0.490  -1.238  0.00  0.00    -0.024 A 
ATOM      3  C   UNL     1      -0.018  -0.817  -2.363  0.00  0.00    +0.005 A 
ATOM      4  C   UNL     1       0.620  -1.265  -3.511  0.00  0.00    +0.001 A 
ATOM      5  C   UNL     1       1.980  -1.391  -3.545  0.00  0.00    +0.010 A 
ATOM      6  C   UNL     1       2.735  -1.065  -2.417  0.00  0.00    +0.004 A 
ATOM      7  C   UNL     1       2.094  -0.605  -1.252  0.00  0.00    +0.050 A 
ATOM      8  N   UNL     1       3.075  -0.360  -0.318  0.00  0.00    -0.360 N 
ATOM      9  H   UNL     1       2.919  -0.035   0.582  0.00  0.00    +0.165 HD
ATOM     10  C   UNL     1       4.304  -0.641  -0.850  0.00  0.00    +0.088 A 
ATOM     11  C   UNL     1       4.167  -1.079  -2.112  0.00  0.00    -0.015 A 
BRANCH   2  13
ATOM     12  C   UNL     1      -0.019   1.526   0.010  0.00  0.00    +0.009 C 
ATOM     13  C   UNL     1       0.002  -0.004   0.002  0.00  0.00    +0.034 C 
ENDBRANCH   2  13
ENDBRANCH   1  11
BRANCH   1  14
ATOM     14  C   UNL     1       6.029  -2.654  -2.444  0.00  0.00    -0.039 A 
ATOM     15  C   UNL     1       6.649  -2.517  -1.216  0.00  0.00    +0.005 A 
ATOM     16  C   UNL     1       7.337  -3.583  -0.667  0.00  0.00    +0.020 A 
ATOM     17  C   UNL     1       7.406  -4.786  -1.346  0.00  0.00    +0.041 A 
ATOM     18  C   UNL     1       6.785  -4.922  -2.575  0.00  0.00    +0.020 A 
ATOM     19  C   UNL     1       6.092  -3.858  -3.121  0.00  0.00    +0.005 A 
ATOM     20 CL   UNL     1       8.271  -6.124  -0.657  0.00  0.00    -0.084 Cl
ENDBRANCH   1  14
BRANCH   1  21
ATOM     21  C   UNL     1       6.237  -0.317  -3.246  0.00  0.00    +0.109 C 
BRANCH  21  22
ATOM     22  C   UNL     1       7.277  -0.689  -4.271  0.00  0.00    +0.216 C 
ATOM     23  O   UNL     1       7.255  -1.786  -4.787  0.00  0.00    -0.276 OA
ATOM     24  N   UNL     1       8.233   0.197  -4.613  0.00  0.00    -0.301 N 
ATOM     25  C   UNL     1       8.277   1.528  -3.992  0.00  0.00    +0.108 C 
ATOM     26  C   UNL     1       8.296   2.588  -5.098  0.00  0.00    +0.032 C 
ATOM     27  C   UNL     1       9.457   2.301  -6.053  0.00  0.00    +0.078 C 
ATOM     28  C   UNL     1       9.260   0.929  -6.702  0.00  0.00    +0.032 C 
ATOM     29  C   UNL     1       9.255  -0.151  -5.610  0.00  0.00    +0.108 C 
BRANCH  27  30
ATOM     30  C   UNL     1       9.501   3.361  -7.123  0.00  0.00    +0.214 C 
ATOM     31  O   UNL     1       8.684   4.258  -7.123  0.00  0.00    -0.276 OA
ATOM     32  N   UNL     1      10.447   3.314  -8.082  0.00  0.00    -0.329 N 
ATOM     33  H   UNL     1      11.101   2.597  -8.082  0.00  0.00    +0.145 HD
ATOM     34  H   UNL     1      10.475   3.996  -8.770  0.00  0.00    +0.145 HD
ENDBRANCH  27  30
ENDBRANCH  21  22
ENDBRANCH   1  21
TORSDOF 6
