REMARK  Name = ZINC65329919
REMARK  8 active torsions:
REMARK  status: ('A' for Active; 'I' for Inactive)
REMARK    1  A    between atoms: C_1  and  C_2
REMARK    2  A    between atoms: C_5  and  N_8
REMARK    3  A    between atoms: N_10  and  C_11
REMARK    4  A    between atoms: C_11  and  C_12
REMARK    5  A    between atoms: C_12  and  C_13
REMARK    6  A    between atoms: N_22  and  C_23
REMARK    7  A    between atoms: C_23  and  C_25
REMARK    8  A    between atoms: C_30  and  C_31
REMARK                            x       y       z     vdW  Elec       q    Type
REMARK                         _______ _______ _______ _____ _____    ______ ____
ROOT
ATOM      1  N   UNL     1      -1.659  -3.558  -0.494  0.00  0.00    -0.328 N 
ATOM      2  C   UNL     1      -1.905  -4.447   0.512  0.00  0.00    +0.194 C 
ATOM      3  N   UNL     1      -2.495  -5.645   0.235  0.00  0.00    -0.357 N 
ATOM      4  N   UNL     1      -1.571  -4.146   1.758  0.00  0.00    -0.143 NA
ATOM      5  H   UNL     1      -2.625  -5.919  -0.686  0.00  0.00    +0.162 HD
ATOM      6  H   UNL     1      -0.900  -2.956  -0.435  0.00  0.00    +0.169 HD
ENDROOT
BRANCH   1  11
ATOM      7  C   UNL     1      -5.072  -3.384  -5.021  0.00  0.00    +0.044 C 
ATOM      8  C   UNL     1      -4.165  -3.430  -3.819  0.00  0.00    -0.050 A 
ATOM      9  C   UNL     1      -2.853  -3.009  -3.928  0.00  0.00    +0.005 A 
ATOM     10  C   UNL     1      -2.019  -3.050  -2.828  0.00  0.00    +0.026 A 
ATOM     11  C   UNL     1      -2.501  -3.514  -1.610  0.00  0.00    +0.042 A 
ATOM     12  C   UNL     1      -3.820  -3.936  -1.504  0.00  0.00    +0.026 A 
ATOM     13  C   UNL     1      -4.650  -3.888  -2.607  0.00  0.00    +0.005 A 
ENDBRANCH   1  11
BRANCH   4  14
ATOM     14  C   UNL     1      -1.135  -2.914   2.056  0.00  0.00    +0.270 C 
ATOM     15  O   UNL     1      -1.175  -2.034   1.215  0.00  0.00    -0.268 OA
BRANCH  14  16
ATOM     16  C   UNL     1      -0.604  -2.624   3.408  0.00  0.00    +0.042 A 
ATOM     17  C   UNL     1      -0.595  -3.619   4.386  0.00  0.00    +0.013 A 
ATOM     18  C   UNL     1      -0.099  -3.342   5.643  0.00  0.00    +0.001 A 
ATOM     19  C   UNL     1       0.389  -2.080   5.934  0.00  0.00    +0.000 A 
ATOM     20  C   UNL     1       0.383  -1.089   4.969  0.00  0.00    +0.004 A 
ATOM     21  C   UNL     1      -0.106  -1.356   3.706  0.00  0.00    -0.038 A 
ATOM     22  C   UNL     1      -0.106  -0.277   2.654  0.00  0.00    +0.044 C 
ENDBRANCH  14  16
ENDBRANCH   4  14
BRANCH   3  23
ATOM     23  C   UNL     1      -2.930  -6.517   1.328  0.00  0.00    +0.120 C 
BRANCH  23  24
ATOM     24  C   UNL     1      -3.554  -7.788   0.748  0.00  0.00    +0.054 C 
BRANCH  24  25
ATOM     25  C   UNL     1      -4.003  -8.686   1.873  0.00  0.00    -0.040 C 
ATOM     26  C   UNL     1      -5.243  -8.761   2.408  0.00  0.00    -0.001 A 
ATOM     27  C   UNL     1      -6.496  -8.056   2.116  0.00  0.00    +0.010 A 
ATOM     28  C   UNL     1      -7.600  -8.353   2.839  0.00  0.00    +0.001 A 
ATOM     29  C   UNL     1      -7.576  -9.314   3.859  0.00  0.00    +0.002 A 
ATOM     30  C   UNL     1      -6.463 -10.003   4.186  0.00  0.00    +0.026 A 
ATOM     31  C   UNL     1      -5.244  -9.772   3.489  0.00  0.00    +0.043 A 
ATOM     32  N   UNL     1      -4.052 -10.302   3.617  0.00  0.00    -0.380 N 
ATOM     33  C   UNL     1      -3.159  -9.690   2.627  0.00  0.00    +0.144 C 
ATOM     34  H   UNL     1      -3.802 -10.986   4.258  0.00  0.00    +0.160 HD
ENDBRANCH  24  25
ENDBRANCH  23  24
ENDBRANCH   3  23
TORSDOF 6
