REMARK  Name = ZINC16978090
REMARK  13 active torsions:
REMARK  status: ('A' for Active; 'I' for Inactive)
REMARK    1  A    between atoms: C_1  and  C_2
REMARK    2  A    between atoms: C_2  and  N_65
REMARK    3  A    between atoms: C_3  and  C_4
REMARK    4  A    between atoms: C_3  and  N_65
REMARK    5  A    between atoms: C_5  and  C_6
REMARK    6  A    between atoms: C_5  and  N_65
REMARK    7  A    between atoms: C_6  and  C_7
REMARK    8  A    between atoms: C_7  and  C_8
REMARK    9  A    between atoms: C_8  and  C_10
REMARK   10  A    between atoms: C_8  and  N_11
REMARK   11  A    between atoms: C_13  and  C_28
REMARK   12  A    between atoms: C_16  and  C_18
REMARK   13  A    between atoms: C_19  and  C_20
REMARK                            x       y       z     vdW  Elec       q    Type
REMARK                         _______ _______ _______ _____ _____    ______ ____
ROOT
ATOM      1  N   UNL     1      -1.958  -2.990  -2.664  0.00  0.00    -0.326 N 
ATOM      2  C   UNL     1      -0.794  -2.291  -2.393  0.00  0.00    +0.132 A 
ATOM      3  C   UNL     1       0.447  -2.755  -2.870  0.00  0.00    +0.059 A 
ATOM      4  C   UNL     1       1.591  -2.013  -2.570  0.00  0.00    +0.143 A 
ATOM      5  N   UNL     1       1.472  -0.907  -1.854  0.00  0.00    -0.216 NA
ATOM      6  C   UNL     1       0.284  -0.497  -1.419  0.00  0.00    +0.156 A 
ATOM      7  N   UNL     1      -0.830  -1.175  -1.677  0.00  0.00    -0.213 NA
ATOM      8 CL   UNL     1       3.149  -2.534  -3.130  0.00  0.00    -0.061 Cl
ATOM      9  H   UNL     1      -1.922  -3.808  -3.185  0.00  0.00    +0.148 HD
ENDROOT
BRANCH   3  10
ATOM     10  C   UNL     1       0.536  -3.999  -3.670  0.00  0.00    -0.012 A 
ATOM     11  C   UNL     1      -0.067  -4.069  -4.925  0.00  0.00    +0.010 A 
ATOM     12  C   UNL     1       0.024  -5.228  -5.668  0.00  0.00    +0.020 A 
ATOM     13  C   UNL     1       0.703  -6.324  -5.165  0.00  0.00    +0.041 A 
ATOM     14  C   UNL     1       1.300  -6.262  -3.916  0.00  0.00    +0.020 A 
ATOM     15  C   UNL     1       1.219  -5.106  -3.167  0.00  0.00    +0.010 A 
ATOM     16 CL   UNL     1       0.807  -7.782  -6.101  0.00  0.00    -0.084 Cl
ENDBRANCH   3  10
BRANCH   1  17
ATOM     17  C   UNL     1      -3.243  -2.497  -2.162  0.00  0.00    +0.069 C 
ATOM     18  C   UNL     1      -3.453  -2.989  -0.729  0.00  0.00    +0.028 C 
BRANCH  17  19
ATOM     19  C   UNL     1      -4.372  -3.019  -3.052  0.00  0.00    +0.020 C 
BRANCH  19  20
ATOM     20  C   UNL     1      -4.231  -2.427  -4.455  0.00  0.00    -0.017 C 
BRANCH  20  21
ATOM     21  C   UNL     1      -5.361  -2.949  -5.345  0.00  0.00    -0.079 C 
BRANCH  21  22
ATOM     22  N   UNL     1      -5.223  -2.352  -6.690  0.00  0.00    +0.379 N 
ATOM     23  H   UNL     1      -5.143  -1.333  -6.596  0.00  0.00    -0.082 HD
BRANCH  22  25
ATOM     24  C   UNL     1      -4.111  -4.383  -7.557  0.00  0.00    -0.017 C 
ATOM     25  C   UNL     1      -4.007  -2.870  -7.351  0.00  0.00    -0.082 C 
ENDBRANCH  22  25
BRANCH  22  26
ATOM     26  C   UNL     1      -6.414  -2.666  -7.507  0.00  0.00    -0.082 C 
ATOM     27  C   UNL     1      -6.417  -1.762  -8.742  0.00  0.00    -0.017 C 
ENDBRANCH  22  26
ENDBRANCH  21  22
ENDBRANCH  20  21
ENDBRANCH  19  20
ENDBRANCH  17  19
ENDBRANCH   1  17
BRANCH   6  28
ATOM     28  C   UNL     1       0.201   0.739  -0.626  0.00  0.00    +0.049 C 
ATOM     29  C   UNL     1       1.326   1.362  -0.233  0.00  0.00    +0.011 C 
BRANCH  29  30
ATOM     30  C   UNL     1       2.621   0.665  -0.313  0.00  0.00    -0.025 A 
ATOM     31  C   UNL     1       2.727  -0.668   0.094  0.00  0.00    +0.009 A 
ATOM     32  C   UNL     1       3.941  -1.316   0.011  0.00  0.00    +0.020 A 
ATOM     33  C   UNL     1       5.057  -0.646  -0.465  0.00  0.00    +0.041 A 
ATOM     34  C   UNL     1       4.960   0.676  -0.865  0.00  0.00    +0.020 A 
ATOM     35  C   UNL     1       3.751   1.335  -0.792  0.00  0.00    +0.009 A 
ATOM     36 CL   UNL     1       6.583  -1.468  -0.559  0.00  0.00    -0.084 Cl
ENDBRANCH  29  30
ENDBRANCH   6  28
TORSDOF 10
