REMARK  Name = ZINC40092077
REMARK  15 active torsions:
REMARK  status: ('A' for Active; 'I' for Inactive)
REMARK    1  A    between atoms: C_1  and  C_2
REMARK    2  A    between atoms: C_4  and  C_12
REMARK    3  A    between atoms: C_7  and  O_8
REMARK    4  A    between atoms: O_8  and  C_9
REMARK    5  A    between atoms: C_9  and  C_10
REMARK    6  A    between atoms: C_12  and  C_14
REMARK    7  A    between atoms: N_18  and  C_29
REMARK    8  A    between atoms: C_19  and  C_21
REMARK    9  A    between atoms: C_24  and  S_27
REMARK   10  A    between atoms: S_27  and  C_28
REMARK   11  A    between atoms: C_29  and  C_30
REMARK   12  A    between atoms: C_30  and  O_31
REMARK   13  A    between atoms: O_31  and  C_32
REMARK   14  A    between atoms: C_32  and  C_33
REMARK   15  A    between atoms: C_33  and  O_34
REMARK                            x       y       z     vdW  Elec       q    Type
REMARK                         _______ _______ _______ _____ _____    ______ ____
ROOT
ATOM      1  C   UNL     1       0.088  -4.298  -2.600  0.00  0.00    +0.076 C 
ATOM      2  C   UNL     1       0.180  -5.044  -3.726  0.00  0.00    +0.249 C 
ATOM      3  C   UNL     1       0.248  -6.474  -3.357  0.00  0.00    +0.288 C 
ATOM      4  O   UNL     1       0.336  -7.394  -4.146  0.00  0.00    -0.266 OA
ATOM      5  N   UNL     1       0.199  -6.606  -2.019  0.00  0.00    -0.281 N 
ATOM      6  C   UNL     1       0.102  -5.262  -1.437  0.00  0.00    +0.145 C 
ATOM      7  O   UNL     1       0.205  -4.558  -4.989  0.00  0.00    -0.282 OA
ENDROOT
BRANCH   6   8
ATOM      8  C   UNL     1      -1.173  -5.135  -0.644  0.00  0.00    -0.022 A 
ATOM      9  C   UNL     1      -2.313  -5.799  -1.060  0.00  0.00    +0.007 A 
ATOM     10  C   UNL     1      -3.483  -5.685  -0.337  0.00  0.00    +0.015 A 
ATOM     11  C   UNL     1      -3.515  -4.902   0.811  0.00  0.00    +0.008 A 
ATOM     12  C   UNL     1      -2.368  -4.237   1.226  0.00  0.00    +0.015 A 
ATOM     13  C   UNL     1      -1.200  -4.360   0.501  0.00  0.00    +0.007 A 
BRANCH  11  14
ATOM     14  S   UNL     1      -5.007  -4.753   1.737  0.00  0.00    -0.129 S 
ATOM     15  C   UNL     1      -4.562  -3.656   3.112  0.00  0.00    +0.090 C 
ENDBRANCH  11  14
ENDBRANCH   6   8
BRANCH   1  16
ATOM     16  C   UNL     1      -0.001  -2.837  -2.525  0.00  0.00    +0.195 C 
ATOM     17  O   UNL     1      -0.989  -2.265  -2.945  0.00  0.00    -0.287 OA
BRANCH  16  21
ATOM     18  C   UNL     1       2.049   1.566  -1.389  0.00  0.00    +0.047 C 
ATOM     19  C   UNL     1       2.099   0.059  -1.390  0.00  0.00    -0.008 A 
ATOM     20  C   UNL     1       1.062  -0.662  -1.938  0.00  0.00    +0.018 A 
ATOM     21  C   UNL     1       1.109  -2.059  -1.938  0.00  0.00    +0.023 A 
ATOM     22  C   UNL     1       2.210  -2.718  -1.382  0.00  0.00    +0.015 A 
ATOM     23  C   UNL     1       3.242  -1.990  -0.836  0.00  0.00    +0.046 A 
ATOM     24  C   UNL     1       3.194  -0.600  -0.843  0.00  0.00    +0.124 A 
BRANCH  24  25
ATOM     25  O   UNL     1       4.216   0.115  -0.309  0.00  0.00    -0.488 OA
BRANCH  25  26
ATOM     26  C   UNL     1       5.310  -0.625   0.237  0.00  0.00    +0.256 C 
BRANCH  26  27
ATOM     27  C   UNL     1       6.342   0.330   0.780  0.00  0.00    +0.006 C 
ATOM     28  C   UNL     1       6.883   0.112   1.953  0.00  0.00    +0.007 C 
ENDBRANCH  26  27
ENDBRANCH  25  26
ENDBRANCH  24  25
ENDBRANCH  16  21
ENDBRANCH   1  16
BRANCH   5  29
ATOM     29  C   UNL     1       0.241  -7.867  -1.275  0.00  0.00    +0.137 C 
BRANCH  29  30
ATOM     30  C   UNL     1       1.694  -8.222  -0.955  0.00  0.00    +0.179 C 
BRANCH  30  31
ATOM     31  O   UNL     1       2.239  -7.243  -0.069  0.00  0.00    -0.376 OA
BRANCH  31  32
ATOM     32  C   UNL     1       3.600  -7.482   0.296  0.00  0.00    +0.187 C 
BRANCH  32  33
ATOM     33  C   UNL     1       4.077  -6.377   1.241  0.00  0.00    +0.184 C 
BRANCH  33  34
ATOM     34  O   UNL     1       3.341  -6.446   2.464  0.00  0.00    -0.393 OA
ATOM     35  H   UNL     1       3.591  -5.773   3.112  0.00  0.00    +0.209 HD
ENDBRANCH  33  34
ENDBRANCH  32  33
ENDBRANCH  31  32
ENDBRANCH  30  31
ENDBRANCH  29  30
ENDBRANCH   5  29
TORSDOF 13
