REMARK  Name = ZINC39702849
REMARK  6 active torsions:
REMARK  status: ('A' for Active; 'I' for Inactive)
REMARK    1  A    between atoms: C_1  and  C_2
REMARK    2  A    between atoms: C_3  and  C_19
REMARK    3  A    between atoms: N_6  and  C_9
REMARK    4  A    between atoms: N_20  and  C_21
REMARK    5  A    between atoms: C_21  and  C_23
REMARK    6  A    between atoms: C_21  and  C_24
REMARK                            x       y       z     vdW  Elec       q    Type
REMARK                         _______ _______ _______ _____ _____    ______ ____
ROOT
ATOM      1  C   UNL     1      -1.010   0.021   2.823  0.00  0.00    +0.066 C 
ATOM      2  C   UNL     1      -0.472  -0.662   1.592  0.00  0.00    +0.044 A 
ATOM      3  C   UNL     1      -1.154  -0.840   0.406  0.00  0.00    +0.079 A 
ATOM      4  C   UNL     1      -0.239  -1.552  -0.501  0.00  0.00    +0.278 A 
ATOM      5  O   UNL     1      -0.469  -1.895  -1.645  0.00  0.00    -0.265 OA
ATOM      6  N   UNL     1       0.906  -1.749   0.186  0.00  0.00    -0.220 N 
ATOM      7  N   UNL     1       0.759  -1.198   1.463  0.00  0.00    -0.296 N 
ATOM      8  H   UNL     1       1.440  -1.202   2.153  0.00  0.00    +0.187 HD
ENDROOT
BRANCH   6   9
ATOM      9  C   UNL     1       2.103  -2.423  -0.323  0.00  0.00    +0.257 C 
ATOM     10  N   UNL     1       1.789  -3.781  -0.787  0.00  0.00    -0.313 N 
ATOM     11  C   UNL     1       2.001  -4.066  -2.135  0.00  0.00    +0.043 A 
ATOM     12  C   UNL     1       1.760  -5.304  -2.757  0.00  0.00    +0.024 A 
ATOM     13  C   UNL     1       2.003  -5.486  -4.099  0.00  0.00    +0.002 A 
ATOM     14  C   UNL     1       2.493  -4.457  -4.882  0.00  0.00    +0.001 A 
ATOM     15  C   UNL     1       2.741  -3.227  -4.296  0.00  0.00    +0.016 A 
ATOM     16  C   UNL     1       2.497  -3.046  -2.953  0.00  0.00    +0.032 A 
ATOM     17  S   UNL     1       2.691  -1.641  -1.878  0.00  0.00    -0.078 S 
ATOM     18  H   UNL     1       1.447  -4.454  -0.178  0.00  0.00    +0.149 HD
ENDBRANCH   6   9
BRANCH   3  19
ATOM     19  C   UNL     1      -2.524  -0.406   0.107  0.00  0.00    +0.120 C 
ATOM     20  N   UNL     1      -3.457  -1.287  -0.086  0.00  0.00    -0.283 NA
BRANCH  20  21
ATOM     21  C   UNL     1      -3.125  -2.714  -0.097  0.00  0.00    +0.132 C 
ATOM     22  C   UNL     1      -3.497  -3.314  -1.454  0.00  0.00    +0.037 C 
BRANCH  21  23
ATOM     23  C   UNL     1      -3.896  -3.416   0.992  0.00  0.00    -0.023 A 
ATOM     24  C   UNL     1      -5.213  -3.076   1.235  0.00  0.00    +0.006 A 
ATOM     25  C   UNL     1      -5.920  -3.720   2.233  0.00  0.00    +0.000 A 
ATOM     26  C   UNL     1      -5.310  -4.704   2.988  0.00  0.00    +0.000 A 
ATOM     27  C   UNL     1      -3.993  -5.045   2.744  0.00  0.00    +0.000 A 
ATOM     28  C   UNL     1      -3.287  -4.404   1.742  0.00  0.00    +0.006 A 
ENDBRANCH  21  23
ENDBRANCH  20  21
ENDBRANCH   3  19
TORSDOF 4
