REMARK  Name = ZINC35708169
REMARK  10 active torsions:
REMARK  status: ('A' for Active; 'I' for Inactive)
REMARK    1  A    between atoms: C_1  and  C_2
REMARK    2  A    between atoms: C_5  and  C_8
REMARK    3  A    between atoms: C_8  and  N_9
REMARK    4  A    between atoms: N_9  and  C_10
REMARK    5  A    between atoms: N_9  and  C_18
REMARK    6  A    between atoms: C_10  and  C_11
REMARK    7  A    between atoms: C_18  and  C_19
REMARK    8  A    between atoms: C_22  and  C_24
REMARK    9  A    between atoms: N_29  and  C_32
REMARK   10  A    between atoms: C_37  and  C_38
REMARK                            x       y       z     vdW  Elec       q    Type
REMARK                         _______ _______ _______ _____ _____    ______ ____
ROOT
ATOM      1  C   UNL     1       2.934  -6.237  -0.298  0.00  0.00    +0.090 A 
ATOM      2  C   UNL     1       3.778  -6.381   0.748  0.00  0.00    +0.043 A 
ATOM      3  C   UNL     1       5.069  -6.534   0.219  0.00  0.00    +0.055 A 
ATOM      4  C   UNL     1       4.946  -6.475  -1.140  0.00  0.00    +0.190 A 
ATOM      5  O   UNL     1       3.641  -6.300  -1.434  0.00  0.00    -0.457 OA
ENDROOT
BRANCH   4   6
ATOM      6  C   UNL     1       6.040  -6.588  -2.110  0.00  0.00    +0.282 C 
ATOM      7  O   UNL     1       7.159  -6.884  -1.734  0.00  0.00    -0.267 OA
ATOM      8  N   UNL     1       5.807  -6.364  -3.418  0.00  0.00    -0.292 N 
ATOM      9  C   UNL     1       6.855  -6.611  -4.418  0.00  0.00    +0.127 C 
ATOM     10  C   UNL     1       6.305  -7.575  -5.477  0.00  0.00    +0.124 C 
ATOM     11  N   UNL     1       4.997  -7.080  -5.929  0.00  0.00    -0.327 N 
ATOM     12  C   UNL     1       3.949  -6.832  -4.929  0.00  0.00    +0.124 C 
ATOM     13  C   UNL     1       4.497  -5.874  -3.871  0.00  0.00    +0.127 C 
BRANCH  11  14
ATOM     14  C   UNL     1       4.755  -6.847  -7.285  0.00  0.00    +0.033 A 
ATOM     15  C   UNL     1       4.244  -7.862  -8.085  0.00  0.00    +0.023 A 
ATOM     16  C   UNL     1       4.005  -7.628  -9.425  0.00  0.00    +0.002 A 
ATOM     17  C   UNL     1       4.275  -6.387  -9.971  0.00  0.00    +0.000 A 
ATOM     18  C   UNL     1       4.785  -5.375  -9.178  0.00  0.00    +0.005 A 
ATOM     19  C   UNL     1       5.020  -5.600  -7.835  0.00  0.00    -0.029 A 
ATOM     20  C   UNL     1       5.569  -4.495  -6.971  0.00  0.00    +0.045 C 
ENDBRANCH  11  14
ENDBRANCH   4   6
BRANCH   1  21
ATOM     21  C   UNL     1       1.443  -6.045  -0.202  0.00  0.00    -0.002 C 
BRANCH  21  22
ATOM     22  N   UNL     1       1.137  -4.610  -0.134  0.00  0.00    +0.390 N 
ATOM     23  H   UNL     1       1.647  -4.194   0.631  0.00  0.00    -0.080 HD
BRANCH  22  24
ATOM     24  C   UNL     1      -0.304  -4.426   0.080  0.00  0.00    -0.042 C 
BRANCH  24  29
ATOM     25  C   UNL     1      -1.760  -6.470   5.285  0.00  0.00    +0.044 C 
ATOM     26  C   UNL     1      -1.380  -5.937   3.928  0.00  0.00    -0.050 A 
ATOM     27  C   UNL     1      -0.883  -4.653   3.804  0.00  0.00    +0.003 A 
ATOM     28  C   UNL     1      -0.535  -4.164   2.558  0.00  0.00    +0.002 A 
ATOM     29  C   UNL     1      -0.683  -4.959   1.437  0.00  0.00    -0.064 A 
ATOM     30  C   UNL     1      -1.179  -6.243   1.562  0.00  0.00    +0.002 A 
ATOM     31  C   UNL     1      -1.523  -6.734   2.808  0.00  0.00    +0.003 A 
ENDBRANCH  24  29
ENDBRANCH  22  24
BRANCH  22  32
ATOM     32  C   UNL     1       1.532  -3.965  -1.394  0.00  0.00    -0.042 C 
BRANCH  32  33
ATOM     33  C   UNL     1       1.356  -2.474  -1.271  0.00  0.00    -0.061 A 
ATOM     34  C   UNL     1       0.195  -1.875  -1.724  0.00  0.00    +0.002 A 
ATOM     35  C   UNL     1       0.032  -0.507  -1.612  0.00  0.00    +0.003 A 
ATOM     36  C   UNL     1       1.031   0.264  -1.048  0.00  0.00    +0.038 A 
ATOM     37  C   UNL     1       2.194  -0.334  -0.594  0.00  0.00    +0.124 A 
ATOM     38  C   UNL     1       2.353  -1.705  -0.701  0.00  0.00    +0.040 A 
ATOM     39  F   UNL     1       3.171   0.419  -0.043  0.00  0.00    -0.205 F 
ENDBRANCH  32  33
ENDBRANCH  22  32
ENDBRANCH  21  22
ENDBRANCH   1  21
TORSDOF 8
