REMARK  Name = ZINC11859250
REMARK  10 active torsions:
REMARK  status: ('A' for Active; 'I' for Inactive)
REMARK    1  A    between atoms: C_1  and  C_2
REMARK    2  A    between atoms: C_2  and  N_3
REMARK    3  A    between atoms: N_3  and  C_4
REMARK    4  A    between atoms: N_3  and  C_11
REMARK    5  A    between atoms: C_4  and  C_5
REMARK    6  A    between atoms: C_14  and  C_17
REMARK    7  A    between atoms: C_19  and  C_31
REMARK    8  A    between atoms: C_21  and  C_26
REMARK    9  A    between atoms: C_21  and  O_30
REMARK   10  A    between atoms: C_31  and  C_33
REMARK                            x       y       z     vdW  Elec       q    Type
REMARK                         _______ _______ _______ _____ _____    ______ ____
ROOT
ATOM      1  C   UNL     1       6.092  -0.758  -0.672  0.00  0.00    +0.120 C 
ATOM      2  C   UNL     1       5.180   0.379  -0.198  0.00  0.00    +0.144 C 
ATOM      3  C   UNL     1       5.555   0.736   1.244  0.00  0.00    +0.243 C 
ATOM      4  N   UNL     1       5.476  -0.468   2.072  0.00  0.00    -0.264 N 
ATOM      5  C   UNL     1       5.694  -1.687   1.556  0.00  0.00    +0.302 C 
ATOM      6  O   UNL     1       5.627  -2.653   2.290  0.00  0.00    -0.253 OA
ATOM      7  N   UNL     1       5.984  -1.881   0.260  0.00  0.00    -0.292 N 
ATOM      8  H   UNL     1       5.261  -0.384   3.015  0.00  0.00    +0.153 HD
ATOM      9  H   UNL     1       6.125  -2.784  -0.065  0.00  0.00    +0.151 HD
ENDROOT
BRANCH   1  13
ATOM     10  C   UNL     1       4.889  -2.022  -4.574  0.00  0.00    +0.030 A 
ATOM     11  C   UNL     1       5.832  -1.012  -4.429  0.00  0.00    +0.023 A 
ATOM     12  C   UNL     1       6.218  -0.606  -3.167  0.00  0.00    +0.007 A 
ATOM     13  C   UNL     1       5.668  -1.204  -2.048  0.00  0.00    -0.026 A 
ATOM     14  C   UNL     1       4.732  -2.213  -2.189  0.00  0.00    +0.007 A 
ATOM     15  C   UNL     1       4.337  -2.620  -3.448  0.00  0.00    +0.023 A 
BRANCH  10  16
ATOM     16  N   UNL     1       4.496  -2.435  -5.849  0.00  0.00    -0.326 N 
BRANCH  16  18
ATOM     17  C   UNL     1       6.336  -2.569  -7.455  0.00  0.00    +0.024 C 
ATOM     18  C   UNL     1       5.079  -1.804  -7.036  0.00  0.00    +0.102 C 
ENDBRANCH  16  18
BRANCH  16  19
ATOM     19  C   UNL     1       3.501  -3.500  -6.000  0.00  0.00    +0.140 C 
BRANCH  19  20
ATOM     20  C   UNL     1       2.121  -2.896  -6.046  0.00  0.00    -0.030 A 
ATOM     21  C   UNL     1       1.406  -2.717  -4.877  0.00  0.00    +0.005 A 
ATOM     22  C   UNL     1       0.142  -2.158  -4.919  0.00  0.00    +0.000 A 
ATOM     23  C   UNL     1      -0.410  -1.787  -6.130  0.00  0.00    +0.000 A 
ATOM     24  C   UNL     1       0.303  -1.971  -7.300  0.00  0.00    +0.000 A 
ATOM     25  C   UNL     1       1.569  -2.525  -7.258  0.00  0.00    +0.005 A 
ENDBRANCH  19  20
ENDBRANCH  16  19
ENDBRANCH  10  16
ENDBRANCH   1  13
BRANCH   3  26
ATOM     26  C   UNL     1       6.981   1.289   1.279  0.00  0.00    +0.436 C 
ATOM     27  F   UNL     1       7.056   2.435   0.481  0.00  0.00    -0.166 F 
ATOM     28  F   UNL     1       7.322   1.615   2.596  0.00  0.00    -0.166 F 
ATOM     29  F   UNL     1       7.868   0.323   0.793  0.00  0.00    -0.166 F 
ENDBRANCH   3  26
BRANCH   3  30
ATOM     30  O   UNL     1       4.647   1.719   1.744  0.00  0.00    -0.364 OA
ATOM     31  H   UNL     1       4.825   1.993   2.654  0.00  0.00    +0.212 HD
ENDBRANCH   3  30
BRANCH   2  32
ATOM     32  C   UNL     1       3.742  -0.071  -0.251  0.00  0.00    +0.173 C 
ATOM     33  O   UNL     1       3.457  -1.221   0.005  0.00  0.00    -0.292 OA
BRANCH  32  34
ATOM     34  C   UNL     1       2.685   0.886  -0.614  0.00  0.00    +0.018 A 
ATOM     35  C   UNL     1       1.350   0.473  -0.664  0.00  0.00    +0.011 A 
ATOM     36  C   UNL     1       0.365   1.376  -1.005  0.00  0.00    +0.001 A 
ATOM     37  C   UNL     1       0.695   2.688  -1.298  0.00  0.00    +0.000 A 
ATOM     38  C   UNL     1       2.014   3.104  -1.251  0.00  0.00    +0.001 A 
ATOM     39  C   UNL     1       3.010   2.214  -0.911  0.00  0.00    +0.011 A 
ENDBRANCH  32  34
ENDBRANCH   2  32
TORSDOF 9
