REMARK  Name = ZINC39948092
REMARK  7 active torsions:
REMARK  status: ('A' for Active; 'I' for Inactive)
REMARK    1  A    between atoms: C_1  and  C_2
REMARK    2  A    between atoms: C_5  and  S_8
REMARK    3  A    between atoms: S_8  and  N_11
REMARK    4  A    between atoms: N_11  and  C_12
REMARK    5  A    between atoms: C_15  and  C_18
REMARK    6  A    between atoms: N_20  and  N_21
REMARK    7  A    between atoms: C_22  and  C_23
REMARK                            x       y       z     vdW  Elec       q    Type
REMARK                         _______ _______ _______ _____ _____    ______ ____
ROOT
ATOM      1  C   UNL     1       2.400  -4.611   1.206  0.00  0.00    +0.048 A 
ATOM      2  C   UNL     1       2.168  -3.424   1.896  0.00  0.00    +0.025 A 
ATOM      3  C   UNL     1       2.882  -3.139   3.037  0.00  0.00    +0.015 A 
ATOM      4  C   UNL     1       3.842  -4.042   3.503  0.00  0.00    +0.038 A 
ATOM      5  C   UNL     1       4.072  -5.233   2.808  0.00  0.00    +0.015 A 
ATOM      6  C   UNL     1       3.351  -5.515   1.671  0.00  0.00    +0.025 A 
ENDROOT
BRANCH   4   7
ATOM      7  C   UNL     1       4.609  -3.740   4.726  0.00  0.00    +0.263 C 
ATOM      8  O   UNL     1       4.408  -2.703   5.329  0.00  0.00    -0.268 OA
ATOM      9  N   UNL     1       5.534  -4.611   5.174  0.00  0.00    -0.203 N 
ATOM     10  H   UNL     1       5.695  -5.438   4.692  0.00  0.00    +0.178 HD
BRANCH   9  11
ATOM     11  N   UNL     1       6.263  -4.324   6.335  0.00  0.00    -0.191 NA
ATOM     12  C   UNL     1       7.142  -5.152   6.761  0.00  0.00    +0.120 C 
BRANCH  12  13
ATOM     13  C   UNL     1       7.926  -4.843   8.010  0.00  0.00    +0.141 C 
ATOM     14  C   UNL     1       9.385  -4.707   7.621  0.00  0.00    +0.001 C 
ATOM     15  C   UNL     1      10.276  -5.536   8.236  0.00  0.00    -0.007 A 
ATOM     16  C   UNL     1      11.703  -5.472   7.919  0.00  0.00    +0.009 A 
ATOM     17  C   UNL     1      12.554  -6.318   8.556  0.00  0.00    +0.001 A 
ATOM     18  C   UNL     1      12.093  -7.239   9.497  0.00  0.00    +0.002 A 
ATOM     19  C   UNL     1      10.782  -7.348   9.835  0.00  0.00    +0.024 A 
ATOM     20  C   UNL     1       9.818  -6.517   9.234  0.00  0.00    +0.040 A 
ATOM     21  N   UNL     1       8.534  -6.633   9.573  0.00  0.00    -0.284 N 
ATOM     22  C   UNL     1       7.578  -5.887   9.046  0.00  0.00    +0.229 C 
ATOM     23  O   UNL     1       6.423  -6.040   9.396  0.00  0.00    -0.274 OA
ATOM     24  H   UNL     1       8.289  -7.297  10.237  0.00  0.00    +0.155 HD
ENDBRANCH  12  13
ENDBRANCH   9  11
ENDBRANCH   4   7
BRANCH   1  25
ATOM     25  N   UNL     1       1.676  -4.896   0.053  0.00  0.00    -0.216 N 
ATOM     26  H   UNL     1       2.098  -4.817  -0.816  0.00  0.00    +0.174 HD
BRANCH  25  27
ATOM     27  S   UNL     1       0.093  -5.370   0.166  0.00  0.00    +0.072 S 
ATOM     28  O   UNL     1      -0.356  -5.602  -1.162  0.00  0.00    -0.150 OA
ATOM     29  O   UNL     1      -0.546  -4.447   1.036  0.00  0.00    -0.150 OA
BRANCH  27  34
ATOM     30  C   UNL     1       0.023 -10.714   2.967  0.00  0.00    +0.044 C 
ATOM     31  C   UNL     1       0.041  -9.379   2.267  0.00  0.00    -0.050 A 
ATOM     32  C   UNL     1      -0.153  -8.217   2.990  0.00  0.00    +0.005 A 
ATOM     33  C   UNL     1      -0.137  -6.993   2.349  0.00  0.00    +0.029 A 
ATOM     34  C   UNL     1       0.074  -6.930   0.984  0.00  0.00    +0.109 A 
ATOM     35  C   UNL     1       0.269  -8.092   0.261  0.00  0.00    +0.029 A 
ATOM     36  C   UNL     1       0.257  -9.316   0.903  0.00  0.00    +0.005 A 
ENDBRANCH  27  34
ENDBRANCH  25  27
ENDBRANCH   1  25
TORSDOF 6
