REMARK  Name = ZINC15860633
REMARK  10 active torsions:
REMARK  status: ('A' for Active; 'I' for Inactive)
REMARK    1  A    between atoms: C_1  and  C_2
REMARK    2  A    between atoms: C_5  and  N_9
REMARK    3  A    between atoms: C_6  and  C_8
REMARK    4  A    between atoms: C_10  and  C_12
REMARK    5  A    between atoms: C_12  and  C_14
REMARK    6  A    between atoms: C_12  and  N_15
REMARK    7  A    between atoms: C_20  and  C_22
REMARK    8  A    between atoms: C_25  and  C_32
REMARK    9  A    between atoms: C_26  and  S_28
REMARK   10  A    between atoms: S_28  and  N_31
REMARK                            x       y       z     vdW  Elec       q    Type
REMARK                         _______ _______ _______ _____ _____    ______ ____
ROOT
ATOM      1  N   UNL     1      -3.205  -2.914  -3.603  0.00  0.00    -0.217 N 
ATOM      2  C   UNL     1      -3.266  -4.246  -3.778  0.00  0.00    +0.271 A 
ATOM      3  O   UNL     1      -4.068  -4.727  -4.562  0.00  0.00    -0.266 OA
ATOM      4  C   UNL     1      -2.394  -5.088  -3.044  0.00  0.00    +0.024 A 
ATOM      5  C   UNL     1      -1.518  -4.506  -2.191  0.00  0.00    -0.011 A 
ATOM      6  C   UNL     1      -1.533  -3.092  -2.075  0.00  0.00    +0.095 A 
ATOM      7  N   UNL     1      -2.377  -2.379  -2.781  0.00  0.00    -0.167 NA
ATOM      8  C   UNL     1      -0.533  -5.291  -1.371  0.00  0.00    +0.038 C 
ATOM      9  C   UNL     1      -0.946  -6.761  -1.300  0.00  0.00    +0.005 C 
ATOM     10  C   UNL     1      -1.216  -7.258  -2.725  0.00  0.00    +0.005 C 
ATOM     11  C   UNL     1      -2.480  -6.574  -3.244  0.00  0.00    +0.041 C 
ENDROOT
BRANCH   6  12
ATOM     12  C   UNL     1      -0.594  -2.418  -1.146  0.00  0.00    +0.004 A 
ATOM     13  C   UNL     1      -1.035  -1.364  -0.348  0.00  0.00    +0.010 A 
ATOM     14  C   UNL     1      -0.156  -0.740   0.514  0.00  0.00    +0.006 A 
ATOM     15  C   UNL     1       1.160  -1.159   0.587  0.00  0.00    -0.024 A 
ATOM     16  C   UNL     1       1.604  -2.204  -0.203  0.00  0.00    +0.109 A 
ATOM     17  C   UNL     1       0.735  -2.832  -1.073  0.00  0.00    +0.039 A 
ATOM     18  C   UNL     1       2.115  -0.473   1.530  0.00  0.00    +0.046 C 
BRANCH  16  19
ATOM     19  S   UNL     1       3.282  -2.730  -0.104  0.00  0.00    +0.056 S 
ATOM     20  O   UNL     1       3.577  -2.890   1.276  0.00  0.00    -0.153 OA
ATOM     21  O   UNL     1       3.433  -3.787  -1.043  0.00  0.00    -0.153 OA
BRANCH  19  22
ATOM     22  N   UNL     1       4.221  -1.478  -0.647  0.00  0.00    -0.204 NA
ATOM     23  H   UNL     1       5.118  -1.358  -0.298  0.00  0.00    +0.144 HD
ATOM     24  H   UNL     1       3.873  -0.865  -1.314  0.00  0.00    +0.144 HD
ENDBRANCH  19  22
ENDBRANCH  16  19
ENDBRANCH   6  12
BRANCH   1  25
ATOM     25  C   UNL     1      -4.112  -2.052  -4.366  0.00  0.00    +0.194 C 
ATOM     26  C   UNL     1      -4.988  -1.252  -3.400  0.00  0.00    +0.043 C 
BRANCH  25  28
ATOM     27  N   UNL     1      -3.933  -0.211  -6.008  0.00  0.00    -0.284 N 
ATOM     28  C   UNL     1      -3.307  -1.104  -5.216  0.00  0.00    +0.242 C 
ATOM     29  O   UNL     1      -2.095  -1.144  -5.188  0.00  0.00    -0.273 OA
ATOM     30  H   UNL     1      -4.900  -0.143  -5.992  0.00  0.00    +0.155 HD
BRANCH  27  35
ATOM     31  C   UNL     1      -0.911   3.149  -9.438  0.00  0.00    +0.044 C 
ATOM     32  C   UNL     1      -1.714   2.256  -8.527  0.00  0.00    -0.050 A 
ATOM     33  C   UNL     1      -1.162   1.805  -7.342  0.00  0.00    +0.005 A 
ATOM     34  C   UNL     1      -1.895   0.987  -6.505  0.00  0.00    +0.024 A 
ATOM     35  C   UNL     1      -3.188   0.618  -6.854  0.00  0.00    +0.036 A 
ATOM     36  C   UNL     1      -3.736   1.068  -8.047  0.00  0.00    -0.029 A 
ATOM     37  C   UNL     1      -3.000   1.890  -8.878  0.00  0.00    +0.008 A 
ATOM     38  C   UNL     1      -5.136   0.664  -8.434  0.00  0.00    +0.045 C 
ENDBRANCH  27  35
ENDBRANCH  25  28
ENDBRANCH   1  25
TORSDOF 6
