REMARK  Name = ZINC46024775
REMARK  3 active torsions:
REMARK  status: ('A' for Active; 'I' for Inactive)
REMARK    1  A    between atoms: C_1  and  N_2
REMARK    2  A    between atoms: C_11  and  C_13
REMARK    3  A    between atoms: C_16  and  C_18
REMARK                            x       y       z     vdW  Elec       q    Type
REMARK                         _______ _______ _______ _____ _____    ______ ____
ROOT
ATOM      1  C   UNL     1       2.055  -7.712   2.959  0.00  0.00    +0.147 A 
ATOM      2  C   UNL     1       3.019  -8.217   3.779  0.00  0.00    +0.051 A 
ATOM      3  N   UNL     1       2.867  -9.567   3.794  0.00  0.00    -0.327 N 
ATOM      4  C   UNL     1       1.799  -9.865   2.996  0.00  0.00    +0.142 A 
ATOM      5  N   UNL     1       1.320  -8.748   2.501  0.00  0.00    -0.223 NA
ATOM      6  C   UNL     1       3.706 -10.523   4.522  0.00  0.00    +0.123 C 
ATOM      7  C   UNL     1       4.300  -9.843   5.757  0.00  0.00    +0.022 C 
ATOM      8  C   UNL     1       5.632  -9.187   5.397  0.00  0.00    +0.002 C 
ATOM      9  C   UNL     1       5.428  -8.111   4.335  0.00  0.00    +0.006 C 
ATOM     10  C   UNL     1       4.064  -7.444   4.539  0.00  0.00    +0.056 C 
ENDROOT
BRANCH   1  21
ATOM     11  C   UNL     1      -0.025   1.466   0.019  0.00  0.00    +0.105 C 
ATOM     12  N   UNL     1      -0.005  -0.003   0.010  0.00  0.00    -0.300 NA
ATOM     13  C   UNL     1      -1.369  -0.549   0.029  0.00  0.00    +0.090 C 
ATOM     14  C   UNL     1      -1.355  -2.032  -0.354  0.00  0.00    +0.071 C 
ATOM     15  C   UNL     1      -0.331  -2.738   0.525  0.00  0.00    +0.056 A 
ATOM     16  C   UNL     1       0.611  -2.007   1.179  0.00  0.00    +0.028 A 
ATOM     17  S   UNL     1       1.530  -3.249   2.041  0.00  0.00    -0.055 S 
ATOM     18  C   UNL     1       0.652  -4.585   1.505  0.00  0.00    +0.165 A 
ATOM     19  N   UNL     1      -0.264  -4.048   0.727  0.00  0.00    -0.229 NA
ATOM     20  N   UNL     1       0.847  -5.925   1.810  0.00  0.00    -0.259 N 
ATOM     21  C   UNL     1       1.848  -6.290   2.636  0.00  0.00    +0.270 C 
ATOM     22  O   UNL     1       2.580  -5.444   3.114  0.00  0.00    -0.268 OA
ATOM     23  C   UNL     1       0.785  -0.528   1.142  0.00  0.00    +0.128 C 
ATOM     24  H   UNL     1       0.263  -6.600   1.429  0.00  0.00    +0.157 HD
ENDBRANCH   1  21
BRANCH   4  25
ATOM     25  C   UNL     1       1.267 -11.221   2.737  0.00  0.00    +0.017 A 
ATOM     26  C   UNL     1      -0.033 -11.384   2.259  0.00  0.00    +0.011 A 
ATOM     27  C   UNL     1      -0.523 -12.651   2.019  0.00  0.00    +0.001 A 
ATOM     28  C   UNL     1       0.272 -13.759   2.252  0.00  0.00    +0.000 A 
ATOM     29  C   UNL     1       1.562 -13.604   2.727  0.00  0.00    +0.001 A 
ATOM     30  C   UNL     1       2.066 -12.342   2.965  0.00  0.00    +0.011 A 
ENDBRANCH   4  25
TORSDOF 2
