REMARK  Name = ZINC64416987
REMARK  9 active torsions:
REMARK  status: ('A' for Active; 'I' for Inactive)
REMARK    1  A    between atoms: C_1  and  C_2
REMARK    2  A    between atoms: C_4  and  C_29
REMARK    3  A    between atoms: N_10  and  C_11
REMARK    4  A    between atoms: C_11  and  C_13
REMARK    5  A    between atoms: C_13  and  C_14
REMARK    6  A    between atoms: C_13  and  C_15
REMARK    7  A    between atoms: N_16  and  C_17
REMARK    8  A    between atoms: C_17  and  C_18
REMARK    9  A    between atoms: C_18  and  C_19
REMARK                            x       y       z     vdW  Elec       q    Type
REMARK                         _______ _______ _______ _____ _____    ______ ____
ROOT
ATOM      1  C   UNL     1       1.027   1.155  -0.176  0.00  0.00    +0.066 C 
ATOM      2  C   UNL     1       0.739  -0.321  -0.084  0.00  0.00    +0.044 A 
ATOM      3  C   UNL     1       0.729  -1.106  -1.226  0.00  0.00    +0.046 A 
ATOM      4  C   UNL     1       0.458  -2.460  -1.097  0.00  0.00    +0.044 A 
ATOM      5  N   UNL     1       0.219  -2.958   0.105  0.00  0.00    -0.217 NA
ATOM      6  C   UNL     1       0.236  -2.179   1.176  0.00  0.00    +0.231 A 
ATOM      7  N   UNL     1       0.496  -0.884   1.088  0.00  0.00    -0.217 NA
ATOM      8  N   UNL     1      -0.019  -2.736   2.422  0.00  0.00    -0.297 N 
ATOM      9  C   UNL     1      -0.006  -1.948   3.538  0.00  0.00    +0.196 C 
ATOM     10  N   UNL     1       0.251  -0.652   3.432  0.00  0.00    -0.147 NA
ATOM     11  N   UNL     1      -0.257  -2.494   4.761  0.00  0.00    -0.357 N 
ATOM     12  C   UNL     1       0.437  -3.352  -2.311  0.00  0.00    +0.066 C 
ATOM     13  H   UNL     1      -0.337  -1.923   5.540  0.00  0.00    +0.162 HD
ATOM     14  H   UNL     1      -0.207  -3.685   2.501  0.00  0.00    +0.171 HD
ENDROOT
BRANCH  10  15
ATOM     15  C   UNL     1       0.588   0.052   4.511  0.00  0.00    +0.242 C 
ATOM     16  O   UNL     1       0.790  -0.515   5.567  0.00  0.00    -0.273 OA
BRANCH  15  17
ATOM     17  C   UNL     1       0.719   1.550   4.423  0.00  0.00    +0.071 C 
ATOM     18  C   UNL     1      -0.618   2.155   3.991  0.00  0.00    +0.017 C 
ATOM     19  C   UNL     1       1.113   2.109   5.793  0.00  0.00    +0.017 C 
ENDBRANCH  15  17
ENDBRANCH  10  15
BRANCH  11  20
ATOM     20  C   UNL     1      -0.405  -3.946   4.898  0.00  0.00    +0.120 C 
BRANCH  20  21
ATOM     21  C   UNL     1      -0.565  -4.304   6.377  0.00  0.00    +0.054 C 
BRANCH  21  22
ATOM     22  C   UNL     1      -0.718  -5.796   6.519  0.00  0.00    -0.040 C 
ATOM     23  C   UNL     1       0.260  -6.692   6.786  0.00  0.00    +0.002 A 
ATOM     24  C   UNL     1       1.703  -6.549   7.015  0.00  0.00    +0.048 A 
ATOM     25  C   UNL     1       2.441  -7.657   7.264  0.00  0.00    +0.124 A 
ATOM     26  C   UNL     1       1.860  -8.934   7.309  0.00  0.00    +0.040 A 
ATOM     27  C   UNL     1       0.542  -9.144   7.108  0.00  0.00    +0.029 A 
ATOM     28  C   UNL     1      -0.327  -8.050   6.838  0.00  0.00    +0.043 A 
ATOM     29  N   UNL     1      -1.617  -7.996   6.612  0.00  0.00    -0.380 N 
ATOM     30  C   UNL     1      -1.996  -6.596   6.397  0.00  0.00    +0.144 C 
ATOM     31  F   UNL     1       3.769  -7.529   7.475  0.00  0.00    -0.205 F 
ATOM     32  H   UNL     1      -2.220  -8.755   6.594  0.00  0.00    +0.160 HD
ENDBRANCH  21  22
ENDBRANCH  20  21
ENDBRANCH  11  20
TORSDOF 5
