REMARK  Name = ZINC08719250
REMARK  7 active torsions:
REMARK  status: ('A' for Active; 'I' for Inactive)
REMARK    1  A    between atoms: C_6  and  N_7
REMARK    2  A    between atoms: C_8  and  C_26
REMARK    3  A    between atoms: C_11  and  S_12
REMARK    4  A    between atoms: S_12  and  C_13
REMARK    5  A    between atoms: C_13  and  C_14
REMARK    6  A    between atoms: N_19  and  C_20
REMARK    7  A    between atoms: C_26  and  N_64
REMARK                            x       y       z     vdW  Elec       q    Type
REMARK                         _______ _______ _______ _____ _____    ______ ____
ROOT
ATOM      1  N   UNL     1      -3.625   6.801   0.056  0.00  0.00    -0.276 N 
ATOM      2  C   UNL     1      -2.950   7.992   0.060  0.00  0.00    +0.122 A 
ATOM      3  N   UNL     1      -1.676   7.716   0.053  0.00  0.00    -0.135 NA
ATOM      4  N   UNL     1      -1.500   6.443   0.050  0.00  0.00    -0.122 NA
ATOM      5  C   UNL     1      -2.661   5.830   0.046  0.00  0.00    +0.197 A 
ENDROOT
BRANCH   1  11
ATOM      6  C   UNL     1      -5.777   7.037  -1.019  0.00  0.00    +0.028 A 
ATOM      7  C   UNL     1      -7.146   6.849  -1.013  0.00  0.00    +0.022 A 
ATOM      8  C   UNL     1      -7.758   6.248   0.072  0.00  0.00    +0.041 A 
ATOM      9  C   UNL     1      -7.001   5.830   1.153  0.00  0.00    +0.022 A 
ATOM     10  C   UNL     1      -5.632   6.012   1.150  0.00  0.00    +0.028 A 
ATOM     11  C   UNL     1      -5.015   6.614   0.061  0.00  0.00    +0.050 A 
ATOM     12 CL   UNL     1      -9.479   6.019   0.080  0.00  0.00    -0.084 Cl
ENDBRANCH   1  11
BRANCH   5  13
ATOM     13  S   UNL     1      -2.927   4.088   0.038  0.00  0.00    -0.076 S 
BRANCH  13  14
ATOM     14  C   UNL     1      -1.213   3.508   0.027  0.00  0.00    +0.173 C 
BRANCH  14  15
ATOM     15  C   UNL     1      -1.192   2.002   0.019  0.00  0.00    +0.231 C 
ATOM     16  O   UNL     1      -2.234   1.381   0.020  0.00  0.00    -0.274 OA
ATOM     17  N   UNL     1      -0.016   1.344   0.009  0.00  0.00    -0.239 N 
ATOM     18  C   UNL     1       0.002  -0.004   0.002  0.00  0.00    +0.306 C 
ATOM     19  O   UNL     1      -1.042  -0.626   0.009  0.00  0.00    -0.252 OA
ATOM     20  N   UNL     1       1.178  -0.662  -0.013  0.00  0.00    -0.296 N 
ATOM     21  H   UNL     1       0.817   1.840   0.004  0.00  0.00    +0.159 HD
ATOM     22  H   UNL     1       2.012  -0.166  -0.018  0.00  0.00    +0.151 HD
BRANCH  20  23
ATOM     23  C   UNL     1       1.198  -2.127  -0.021  0.00  0.00    +0.074 C 
ATOM     24  C   UNL     1       1.093  -2.646   1.415  0.00  0.00    +0.022 C 
ATOM     25  C   UNL     1       1.114  -4.176   1.406  0.00  0.00    +0.002 C 
ATOM     26  C   UNL     1       2.422  -4.665   0.781  0.00  0.00    +0.000 C 
ATOM     27  C   UNL     1       2.527  -4.146  -0.654  0.00  0.00    +0.002 C 
ATOM     28  C   UNL     1       2.506  -2.616  -0.646  0.00  0.00    +0.022 C 
ENDBRANCH  20  23
ENDBRANCH  14  15
ENDBRANCH  13  14
ENDBRANCH   5  13
BRANCH   2  29
ATOM     29  C   UNL     1      -3.565   9.368   0.071  0.00  0.00    -0.001 C 
BRANCH  29  35
ATOM     30  C   UNL     1      -4.752   8.968   2.142  0.00  0.00    -0.078 C 
ATOM     31  C   UNL     1      -4.822   9.359   3.620  0.00  0.00    -0.019 C 
ATOM     32  C   UNL     1      -5.208  10.836   3.735  0.00  0.00    -0.004 C 
ATOM     33  C   UNL     1      -4.184  11.684   2.975  0.00  0.00    -0.019 C 
ATOM     34  C   UNL     1      -4.133  11.226   1.516  0.00  0.00    -0.078 C 
ATOM     35  N   UNL     1      -3.732   9.803   1.473  0.00  0.00    +0.384 N 
ATOM     36  H   UNL     1      -2.838   9.694   1.965  0.00  0.00    -0.081 HD
ENDBRANCH  29  35
ENDBRANCH   2  29
TORSDOF 7
