REMARK  Name = ZINC08790805
REMARK  6 active torsions:
REMARK  status: ('A' for Active; 'I' for Inactive)
REMARK    1  A    between atoms: C_1  and  C_2
REMARK    2  A    between atoms: C_17  and  C_19
REMARK    3  A    between atoms: C_19  and  C_20
REMARK    4  A    between atoms: N_28  and  C_31
REMARK    5  A    between atoms: C_31  and  C_32
REMARK    6  A    between atoms: C_32  and  C_33
REMARK                            x       y       z     vdW  Elec       q    Type
REMARK                         _______ _______ _______ _____ _____    ______ ____
ROOT
ATOM      1  C   UNL     1      -2.049  -3.276  -1.835  0.00  0.00    +0.044 C 
ATOM      2  C   UNL     1      -0.922  -2.277  -1.788  0.00  0.00    -0.049 A 
ATOM      3  C   UNL     1      -1.150  -0.995  -1.320  0.00  0.00    +0.008 A 
ATOM      4  C   UNL     1      -0.120  -0.083  -1.278  0.00  0.00    -0.026 A 
ATOM      5  C   UNL     1       1.157  -0.435  -1.704  0.00  0.00    +0.054 A 
ATOM      6  C   UNL     1       1.379  -1.728  -2.174  0.00  0.00    +0.063 A 
ATOM      7  C   UNL     1       0.343  -2.639  -2.214  0.00  0.00    +0.025 A 
ATOM      8 CL   UNL     1       2.963  -2.194  -2.711  0.00  0.00    -0.082 Cl
ATOM      9  N   UNL     1       2.028   0.650  -1.570  0.00  0.00    -0.285 N 
ATOM     10  C   UNL     1       1.411   1.737  -1.069  0.00  0.00    +0.211 C 
ATOM     11  O   UNL     1       1.915   2.818  -0.847  0.00  0.00    -0.277 OA
ATOM     12  C   UNL     1      -0.025   1.351  -0.839  0.00  0.00    +0.050 C 
ATOM     13  C   UNL     1      -0.420   1.518   0.633  0.00  0.00    +0.088 C 
ATOM     14  C   UNL     1      -1.139   2.894   0.692  0.00  0.00    +0.073 C 
ATOM     15  C   UNL     1      -1.082   3.433  -0.753  0.00  0.00    -0.053 C 
ATOM     16  C   UNL     1      -2.562   2.530   1.049  0.00  0.00    +0.224 C 
ATOM     17  O   UNL     1      -3.473   3.318   1.189  0.00  0.00    -0.275 OA
ATOM     18  N   UNL     1      -2.660   1.203   1.187  0.00  0.00    -0.241 N 
ATOM     19  C   UNL     1      -1.518   0.537   0.979  0.00  0.00    +0.225 C 
ATOM     20  O   UNL     1      -1.385  -0.665   1.055  0.00  0.00    -0.275 OA
ATOM     21  H   UNL     1       2.968   0.623  -1.810  0.00  0.00    +0.155 HD
ATOM     22  N   UNL     1      -0.927   2.221  -1.570  0.00  0.00    +0.394 N 
ATOM     23  H   UNL     1      -1.836   1.762  -1.701  0.00  0.00    -0.083 HD
ATOM     24  H   UNL     1      -0.528   2.458  -2.486  0.00  0.00    -0.083 HD
ENDROOT
BRANCH  15  25
ATOM     25  C   UNL     1       0.115   4.371  -0.925  0.00  0.00    +0.020 C 
BRANCH  25  26
ATOM     26  C   UNL     1      -0.312   5.788  -0.641  0.00  0.00    -0.049 A 
ATOM     27  C   UNL     1      -0.783   6.586  -1.666  0.00  0.00    +0.003 A 
ATOM     28  C   UNL     1      -1.179   7.885  -1.405  0.00  0.00    +0.000 A 
ATOM     29  C   UNL     1      -1.095   8.387  -0.120  0.00  0.00    +0.000 A 
ATOM     30  C   UNL     1      -0.619   7.590   0.905  0.00  0.00    +0.000 A 
ATOM     31  C   UNL     1      -0.228   6.291   0.644  0.00  0.00    +0.003 A 
ENDBRANCH  25  26
ENDBRANCH  15  25
BRANCH  18  32
ATOM     32  C   UNL     1      -3.915   0.533   1.536  0.00  0.00    +0.121 C 
BRANCH  32  33
ATOM     33  C   UNL     1      -4.678   0.179   0.258  0.00  0.00    +0.054 C 
BRANCH  33  34
ATOM     34  C   UNL     1      -5.969  -0.510   0.618  0.00  0.00    -0.046 A 
ATOM     35  C   UNL     1      -6.007  -1.886   0.740  0.00  0.00    +0.004 A 
ATOM     36  C   UNL     1      -7.191  -2.518   1.074  0.00  0.00    +0.000 A 
ATOM     37  C   UNL     1      -8.338  -1.774   1.277  0.00  0.00    +0.000 A 
ATOM     38  C   UNL     1      -8.300  -0.398   1.150  0.00  0.00    +0.000 A 
ATOM     39  C   UNL     1      -7.116   0.234   0.820  0.00  0.00    +0.004 A 
ENDBRANCH  33  34
ENDBRANCH  32  33
ENDBRANCH  18  32
TORSDOF 5
