REMARK  Name = ZINC49155042
REMARK  7 active torsions:
REMARK  status: ('A' for Active; 'I' for Inactive)
REMARK    1  A    between atoms: C_1  and  C_2
REMARK    2  A    between atoms: C_12  and  C_16
REMARK    3  A    between atoms: C_18  and  C_21
REMARK    4  A    between atoms: N_26  and  C_27
REMARK    5  A    between atoms: C_27  and  C_28
REMARK    6  A    between atoms: C_32  and  O_34
REMARK    7  A    between atoms: O_34  and  C_35
REMARK                            x       y       z     vdW  Elec       q    Type
REMARK                         _______ _______ _______ _____ _____    ______ ____
ROOT
ATOM      1  C   UNL     1       1.417  -6.107  -5.793  0.00  0.00    +0.202 A 
ATOM      2  N   UNL     1       1.430  -6.854  -6.911  0.00  0.00    -0.193 NA
ATOM      3  C   UNL     1       1.546  -8.115  -6.604  0.00  0.00    +0.214 A 
ATOM      4  O   UNL     1       1.613  -8.222  -5.270  0.00  0.00    -0.339 OA
ATOM      5  N   UNL     1       1.533  -6.900  -4.758  0.00  0.00    -0.056 NA
ENDROOT
BRANCH   1  17
ATOM      6  C   UNL     1       0.012   1.527  -0.003  0.00  0.00    +0.109 C 
ATOM      7  C   UNL     1       0.002   0.020  -0.012  0.00  0.00    +0.213 C 
ATOM      8  O   UNL     1      -0.004  -0.592   1.035  0.00  0.00    -0.276 OA
ATOM      9  N   UNL     1       0.000  -0.648  -1.182  0.00  0.00    -0.299 N 
ATOM     10  C   UNL     1       0.013   0.081  -2.459  0.00  0.00    +0.126 C 
ATOM     11  C   UNL     1       1.206  -0.408  -3.290  0.00  0.00    +0.125 C 
ATOM     12  N   UNL     1       1.191  -1.878  -3.313  0.00  0.00    -0.314 N 
ATOM     13  C   UNL     1       1.178  -2.606  -2.037  0.00  0.00    +0.125 C 
ATOM     14  C   UNL     1      -0.009  -2.117  -1.206  0.00  0.00    +0.126 C 
ATOM     15  C   UNL     1       1.189  -2.567  -4.521  0.00  0.00    +0.099 A 
ATOM     16  C   UNL     1       1.302  -3.952  -4.523  0.00  0.00    +0.053 A 
ATOM     17  C   UNL     1       1.298  -4.628  -5.742  0.00  0.00    +0.027 A 
ATOM     18  C   UNL     1       1.180  -3.876  -6.916  0.00  0.00    +0.029 A 
ATOM     19  C   UNL     1       1.072  -2.504  -6.828  0.00  0.00    +0.085 A 
ATOM     20  N   UNL     1       1.074  -1.896  -5.657  0.00  0.00    -0.350 N 
ATOM     21  H   UNL     1       0.992  -0.930  -5.628  0.00  0.00    +0.166 HD
ENDBRANCH   1  17
BRANCH   3  22
ATOM     22  C   UNL     1       1.597  -9.259  -7.583  0.00  0.00    +0.022 C 
ATOM     23  C   UNL     1       0.288 -10.086  -7.526  0.00  0.00    -0.008 C 
ATOM     24  C   UNL     1       0.731 -11.471  -8.052  0.00  0.00    -0.020 C 
ATOM     25  C   UNL     1       2.254 -11.517  -7.830  0.00  0.00    -0.077 C 
ATOM     26  N   UNL     1       2.641 -10.240  -7.189  0.00  0.00    +0.390 N 
ATOM     27  H   UNL     1       2.657 -10.347  -6.186  0.00  0.00    -0.080 HD
BRANCH  26  28
ATOM     28  C   UNL     1       3.956  -9.802  -7.675  0.00  0.00    -0.042 C 
BRANCH  28  29
ATOM     29  C   UNL     1       5.019 -10.741  -7.164  0.00  0.00    -0.060 A 
ATOM     30  C   UNL     1       5.635 -10.492  -5.951  0.00  0.00    +0.002 A 
ATOM     31  C   UNL     1       6.610 -11.351  -5.479  0.00  0.00    +0.004 A 
ATOM     32  C   UNL     1       6.971 -12.461  -6.219  0.00  0.00    +0.046 A 
ATOM     33  C   UNL     1       6.354 -12.713  -7.436  0.00  0.00    +0.130 A 
ATOM     34  C   UNL     1       5.372 -11.852  -7.904  0.00  0.00    +0.047 A 
BRANCH  33  35
ATOM     35  O   UNL     1       6.708 -13.804  -8.165  0.00  0.00    -0.406 OA
BRANCH  35  36
ATOM     36  C   UNL     1       7.722 -14.649  -7.619  0.00  0.00    +0.575 C 
ATOM     37  F   UNL     1       7.298 -15.145  -6.381  0.00  0.00    -0.133 F 
ATOM     38  F   UNL     1       7.961 -15.715  -8.492  0.00  0.00    -0.133 F 
ATOM     39  F   UNL     1       8.900 -13.913  -7.448  0.00  0.00    -0.133 F 
ENDBRANCH  35  36
ENDBRANCH  33  35
ENDBRANCH  28  29
ENDBRANCH  26  28
ENDBRANCH   3  22
TORSDOF 6
