REMARK  Name = ZINC12002587
REMARK  11 active torsions:
REMARK  status: ('A' for Active; 'I' for Inactive)
REMARK    1  A    between atoms: C_1  and  C_2
REMARK    2  A    between atoms: C_3  and  C_4
REMARK    3  A    between atoms: C_4  and  N_5
REMARK    4  A    between atoms: C_8  and  C_12
REMARK    5  A    between atoms: C_8  and  C_20
REMARK    6  A    between atoms: C_12  and  C_13
REMARK    7  A    between atoms: C_13  and  C_14
REMARK    8  A    between atoms: C_25  and  C_26
REMARK    9  A    between atoms: C_25  and  N_69
REMARK   10  A    between atoms: C_26  and  C_28
REMARK   11  A    between atoms: C_26  and  C_29
REMARK                            x       y       z     vdW  Elec       q    Type
REMARK                         _______ _______ _______ _____ _____    ______ ____
ROOT
ATOM      1  N   UNL     1      -2.012   4.045   3.504  0.00  0.00    -0.212 N 
ATOM      2  C   UNL     1      -2.971   4.812   2.949  0.00  0.00    +0.248 C 
ATOM      3  O   UNL     1      -3.988   4.435   2.408  0.00  0.00    -0.273 OA
ATOM      4  C   UNL     1      -2.514   6.244   3.143  0.00  0.00    +0.115 C 
ATOM      5  N   UNL     1      -1.230   6.105   3.852  0.00  0.00    -0.285 N 
ATOM      6  C   UNL     1      -1.025   4.786   4.021  0.00  0.00    +0.310 C 
ATOM      7  O   UNL     1      -0.051   4.320   4.578  0.00  0.00    -0.252 OA
ATOM      8  H   UNL     1      -0.647   6.824   4.143  0.00  0.00    +0.151 HD
ENDROOT
BRANCH   4   9
ATOM      9  C   UNL     1      -2.311   6.933   1.792  0.00  0.00    +0.018 C 
ATOM     10  C   UNL     1      -3.658   7.059   1.075  0.00  0.00    -0.013 C 
ATOM     11  C   UNL     1      -3.441   7.691  -0.301  0.00  0.00    -0.078 C 
ATOM     12  C   UNL     1      -1.208   6.760  -0.441  0.00  0.00    -0.078 C 
ATOM     13  C   UNL     1      -1.359   6.099   0.931  0.00  0.00    -0.013 C 
ATOM     14  N   UNL     1      -2.534   6.829  -1.089  0.00  0.00    +0.380 N 
ATOM     15  H   UNL     1      -2.932   5.883  -1.135  0.00  0.00    -0.082 HD
BRANCH  14  16
ATOM     16  C   UNL     1      -2.399   7.359  -2.462  0.00  0.00    -0.071 C 
BRANCH  16  17
ATOM     17  C   UNL     1      -3.793   7.532  -3.069  0.00  0.00    -0.001 C 
ATOM     18  C   UNL     1      -3.666   8.106  -4.481  0.00  0.00    +0.010 C 
BRANCH  17  19
ATOM     19  C   UNL     1      -4.484   6.194  -3.130  0.00  0.00    -0.046 A 
ATOM     20  C   UNL     1      -3.929   5.163  -3.866  0.00  0.00    +0.004 A 
ATOM     21  C   UNL     1      -4.561   3.935  -3.918  0.00  0.00    +0.000 A 
ATOM     22  C   UNL     1      -5.751   3.740  -3.243  0.00  0.00    +0.000 A 
ATOM     23  C   UNL     1      -6.308   4.772  -2.512  0.00  0.00    +0.000 A 
ATOM     24  C   UNL     1      -5.674   6.000  -2.455  0.00  0.00    +0.004 A 
ENDBRANCH  17  19
ENDBRANCH  16  17
ENDBRANCH  14  16
ENDBRANCH   4   9
BRANCH   1  25
ATOM     25  C   UNL     1      -2.048   2.581   3.542  0.00  0.00    +0.206 C 
BRANCH  25  28
ATOM     26  C   UNL     1      -0.221   1.074   0.174  0.00  0.00    +0.106 C 
ATOM     27  C   UNL     1      -0.874   1.613   1.378  0.00  0.00    -0.104 C 
ATOM     28  C   UNL     1      -1.395   2.043   2.338  0.00  0.00    -0.083 C 
ENDBRANCH  25  28
ENDBRANCH   1  25
BRANCH   4  29
ATOM     29  C   UNL     1      -3.519   7.019   3.998  0.00  0.00    +0.040 C 
BRANCH  29  30
ATOM     30  C   UNL     1      -3.567   6.414   5.403  0.00  0.00    +0.038 C 
BRANCH  30  31
ATOM     31  C   UNL     1      -4.557   7.177   6.245  0.00  0.00    -0.047 A 
ATOM     32  C   UNL     1      -4.139   8.267   6.986  0.00  0.00    +0.003 A 
ATOM     33  C   UNL     1      -5.048   8.970   7.754  0.00  0.00    +0.000 A 
ATOM     34  C   UNL     1      -6.372   8.576   7.790  0.00  0.00    +0.000 A 
ATOM     35  C   UNL     1      -6.789   7.483   7.054  0.00  0.00    +0.000 A 
ATOM     36  C   UNL     1      -5.881   6.783   6.281  0.00  0.00    +0.003 A 
ENDBRANCH  30  31
ENDBRANCH  29  30
ENDBRANCH   4  29
TORSDOF 9
