REMARK  Name = ZINC36923423
REMARK  3 active torsions:
REMARK  status: ('A' for Active; 'I' for Inactive)
REMARK    1  A    between atoms: C_6  and  O_7
REMARK    2  A    between atoms: C_10  and  N_12
REMARK    3  A    between atoms: N_12  and  C_13
REMARK                            x       y       z     vdW  Elec       q    Type
REMARK                         _______ _______ _______ _____ _____    ______ ____
ROOT
ATOM      1  N   UNL     1       3.997   2.945  -1.032  0.00  0.00    -0.331 N 
ATOM      2  H   UNL     1       3.418   2.983  -1.810  0.00  0.00    +0.147 HD
ENDROOT
BRANCH   1   3
ATOM      3  C   UNL     1       4.966   3.932  -0.833  0.00  0.00    +0.073 A 
ATOM      4  C   UNL     1       4.873   5.126  -1.512  0.00  0.00    +0.064 A 
ATOM      5  C   UNL     1       5.816   6.130  -1.342  0.00  0.00    +0.023 A 
ATOM      6  C   UNL     1       6.871   5.929  -0.472  0.00  0.00    +0.019 A 
ATOM      7  C   UNL     1       6.974   4.742   0.211  0.00  0.00    +0.041 A 
ATOM      8  C   UNL     1       6.034   3.696   0.072  0.00  0.00    +0.100 A 
ATOM      9  N   UNL     1       6.271   2.595   0.816  0.00  0.00    -0.246 NA
ATOM     10  C   UNL     1       7.295   2.493   1.619  0.00  0.00    +0.157 A 
ATOM     11  S   UNL     1       8.117   4.063   1.390  0.00  0.00    -0.075 S 
ATOM     12 CL   UNL     1       3.549   5.381  -2.605  0.00  0.00    -0.082 Cl
ENDBRANCH   1   3
BRANCH   1  21
ATOM     13  C   UNL     1       0.040   1.244   0.007  0.00  0.00    +0.046 A 
ATOM     14  C   UNL     1       1.212   1.978   0.007  0.00  0.00    +0.013 A 
ATOM     15  C   UNL     1       2.429   1.334  -0.041  0.00  0.00    +0.018 A 
ATOM     16  C   UNL     1       2.500  -0.053  -0.083  0.00  0.00    +0.129 A 
ATOM     17  C   UNL     1       1.319  -0.789  -0.087  0.00  0.00    +0.091 A 
ATOM     18  C   UNL     1       0.096  -0.142  -0.043  0.00  0.00    +0.120 A 
ATOM     19  O   UNL     1       3.793  -0.479  -0.103  0.00  0.00    -0.489 OA
ATOM     20  C   UNL     1       4.642   0.603  -0.522  0.00  0.00    +0.256 C 
ATOM     21  C   UNL     1       3.853   1.853  -0.065  0.00  0.00    +0.142 C 
BRANCH  18  22
ATOM     22  O   UNL     1      -1.054  -0.866  -0.047  0.00  0.00    -0.507 OA
ATOM     23  H   UNL     1      -1.403  -1.045  -0.931  0.00  0.00    +0.292 HD
ENDBRANCH  18  22
ENDBRANCH   1  21
TORSDOF 3
