REMARK  Name = ZINC05791931
REMARK  5 active torsions:
REMARK  status: ('A' for Active; 'I' for Inactive)
REMARK    1  A    between atoms: C_1  and  C_2
REMARK    2  A    between atoms: C_8  and  C_10
REMARK    3  A    between atoms: C_10  and  N_11
REMARK    4  A    between atoms: C_14  and  C_18
REMARK    5  A    between atoms: C_14  and  C_19
REMARK                            x       y       z     vdW  Elec       q    Type
REMARK                         _______ _______ _______ _____ _____    ______ ____
ROOT
ATOM      1  N   UNL     1      -3.835   4.442  -1.822  0.00  0.00    -0.215 N 
ATOM      2  C   UNL     1      -2.736   4.943  -1.225  0.00  0.00    +0.251 C 
ATOM      3  O   UNL     1      -2.035   5.849  -1.623  0.00  0.00    -0.272 OA
ATOM      4  C   UNL     1      -2.558   4.140   0.048  0.00  0.00    +0.138 C 
ATOM      5  N   UNL     1      -3.684   3.190   0.018  0.00  0.00    -0.281 N 
ATOM      6  C   UNL     1      -4.371   3.444  -1.110  0.00  0.00    +0.310 C 
ATOM      7  O   UNL     1      -5.368   2.835  -1.446  0.00  0.00    -0.252 OA
ATOM      8  C   UNL     1      -2.651   5.046   1.278  0.00  0.00    +0.047 C 
ATOM      9  H   UNL     1      -3.889   2.514   0.682  0.00  0.00    +0.152 HD
ENDROOT
BRANCH   4  10
ATOM     10  C   UNL     1      -1.243   3.404   0.032  0.00  0.00    +0.022 A 
ATOM     11  C   UNL     1      -1.224   2.023   0.019  0.00  0.00    +0.047 A 
ATOM     12  C   UNL     1      -0.016   1.347   0.009  0.00  0.00    +0.124 A 
ATOM     13  C   UNL     1       1.173   2.055   0.002  0.00  0.00    +0.041 A 
ATOM     14  C   UNL     1       1.155   3.437   0.010  0.00  0.00    +0.041 A 
ATOM     15  C   UNL     1      -0.054   4.113   0.026  0.00  0.00    +0.129 A 
ATOM     16  F   UNL     1      -0.072   5.464   0.034  0.00  0.00    -0.205 F 
ATOM     17  F   UNL     1       0.002  -0.004   0.002  0.00  0.00    -0.205 F 
ENDBRANCH   4  10
BRANCH   1  18
ATOM     18  C   UNL     1      -4.376   4.930  -3.093  0.00  0.00    +0.213 C 
BRANCH  18  26
ATOM     19  C   UNL     1      -9.324   6.764  -6.505  0.00  0.00    +0.007 C 
ATOM     20  C   UNL     1      -8.009   7.084  -5.792  0.00  0.00    -0.011 C 
ATOM     21  C   UNL     1      -8.284   7.357  -4.312  0.00  0.00    +0.022 C 
ATOM     22  C   UNL     1      -6.970   7.710  -3.609  0.00  0.00    +0.108 C 
ATOM     23  N   UNL     1      -5.999   6.635  -3.853  0.00  0.00    -0.300 N 
ATOM     24  C   UNL     1      -5.723   6.234  -5.240  0.00  0.00    +0.108 C 
ATOM     25  C   UNL     1      -7.056   5.894  -5.924  0.00  0.00    +0.022 C 
ATOM     26  C   UNL     1      -5.369   6.032  -2.826  0.00  0.00    +0.234 C 
ATOM     27  O   UNL     1      -5.602   6.375  -1.686  0.00  0.00    -0.274 OA
ENDBRANCH  18  26
ENDBRANCH   1  18
TORSDOF 3
