REMARK  Name = ZINC40084860
REMARK  19 active torsions:
REMARK  status: ('A' for Active; 'I' for Inactive)
REMARK    1  A    between atoms: C_1  and  C_2
REMARK    2  A    between atoms: C_2  and  C_3
REMARK    3  A    between atoms: C_3  and  C_4
REMARK    4  A    between atoms: C_4  and  C_5
REMARK    5  A    between atoms: C_5  and  C_6
REMARK    6  A    between atoms: C_6  and  O_7
REMARK    7  A    between atoms: O_7  and  C_8
REMARK    8  A    between atoms: C_11  and  C_14
REMARK    9  A    between atoms: C_16  and  C_25
REMARK   10  A    between atoms: N_20  and  C_21
REMARK   11  A    between atoms: C_21  and  C_22
REMARK   12  A    between atoms: C_22  and  O_23
REMARK   13  A    between atoms: C_25  and  C_27
REMARK   14  A    between atoms: C_30  and  O_34
REMARK   15  A    between atoms: C_32  and  C_33
REMARK   16  A    between atoms: O_34  and  C_35
REMARK   17  A    between atoms: C_35  and  C_36
REMARK   18  A    between atoms: C_36  and  C_37
REMARK   19  A    between atoms: C_36  and  C_38
REMARK                            x       y       z     vdW  Elec       q    Type
REMARK                         _______ _______ _______ _____ _____    ______ ____
ROOT
ATOM      1  C   UNL     1       2.583  -9.797  -4.535  0.00  0.00    +0.145 C 
ATOM      2  C   UNL     1       1.510 -10.519  -5.316  0.00  0.00    +0.076 C 
ATOM      3  C   UNL     1       2.139 -11.215  -6.292  0.00  0.00    +0.249 C 
ATOM      4  C   UNL     1       3.596 -10.984  -6.191  0.00  0.00    +0.288 C 
ATOM      5  O   UNL     1       4.431 -11.470  -6.927  0.00  0.00    -0.266 OA
ATOM      6  N   UNL     1       3.860 -10.155  -5.163  0.00  0.00    -0.281 N 
ATOM      7  O   UNL     1       1.532 -11.999  -7.212  0.00  0.00    -0.282 OA
ENDROOT
BRANCH   1  11
ATOM      8  C   UNL     1       1.969  -5.574  -4.756  0.00  0.00    +0.121 A 
ATOM      9  C   UNL     1       1.746  -6.246  -3.564  0.00  0.00    +0.046 A 
ATOM     10  C   UNL     1       1.945  -7.612  -3.495  0.00  0.00    +0.009 A 
ATOM     11  C   UNL     1       2.366  -8.307  -4.613  0.00  0.00    -0.022 A 
ATOM     12  C   UNL     1       2.590  -7.639  -5.803  0.00  0.00    +0.009 A 
ATOM     13  C   UNL     1       2.386  -6.275  -5.878  0.00  0.00    +0.046 A 
BRANCH   8  14
ATOM     14  O   UNL     1       1.774  -4.230  -4.827  0.00  0.00    -0.492 OA
BRANCH  14  15
ATOM     15  C   UNL     1       1.345  -3.574  -3.632  0.00  0.00    +0.229 C 
BRANCH  15  16
ATOM     16  C   UNL     1       1.180  -2.077  -3.905  0.00  0.00    +0.041 C 
BRANCH  16  17
ATOM     17  C   UNL     1       0.720  -1.374  -2.626  0.00  0.00    +0.003 C 
BRANCH  17  18
ATOM     18  C   UNL     1       0.555   0.122  -2.898  0.00  0.00    -0.000 C 
BRANCH  18  20
ATOM     19  C   UNL     1      -0.070   2.322  -1.891  0.00  0.00    +0.004 C 
ATOM     20  C   UNL     1       0.095   0.826  -1.619  0.00  0.00    -0.003 C 
ENDBRANCH  18  20
ENDBRANCH  17  18
ENDBRANCH  16  17
ENDBRANCH  15  16
ENDBRANCH  14  15
ENDBRANCH   8  14
ENDBRANCH   1  11
BRANCH   2  21
ATOM     21  C   UNL     1       0.066 -10.475  -5.066  0.00  0.00    +0.195 C 
ATOM     22  O   UNL     1      -0.700 -11.042  -5.823  0.00  0.00    -0.287 OA
BRANCH  21  23
ATOM     23  C   UNL     1      -0.458  -9.743  -3.896  0.00  0.00    +0.025 A 
ATOM     24  C   UNL     1      -1.121  -8.525  -4.071  0.00  0.00    +0.015 A 
ATOM     25  C   UNL     1      -1.609  -7.845  -2.978  0.00  0.00    +0.046 A 
ATOM     26  C   UNL     1      -1.442  -8.369  -1.700  0.00  0.00    +0.121 A 
ATOM     27  C   UNL     1      -0.783  -9.580  -1.522  0.00  0.00    +0.049 A 
ATOM     28  C   UNL     1      -0.298 -10.269  -2.611  0.00  0.00    -0.036 A 
ATOM     29  C   UNL     1       0.410 -11.585  -2.417  0.00  0.00    +0.044 C 
BRANCH  26  30
ATOM     30  O   UNL     1      -1.924  -7.697  -0.625  0.00  0.00    -0.492 OA
BRANCH  30  31
ATOM     31  C   UNL     1      -2.591  -6.458  -0.880  0.00  0.00    +0.232 C 
BRANCH  31  32
ATOM     32  C   UNL     1      -3.061  -5.851   0.443  0.00  0.00    +0.020 C 
ATOM     33  C   UNL     1      -1.845  -5.487   1.298  0.00  0.00    +0.010 C 
ATOM     34  C   UNL     1      -3.881  -4.590   0.163  0.00  0.00    +0.010 C 
ENDBRANCH  31  32
ENDBRANCH  30  31
ENDBRANCH  26  30
ENDBRANCH  21  23
ENDBRANCH   2  21
BRANCH   6  35
ATOM     35  C   UNL     1       5.186  -9.691  -4.746  0.00  0.00    +0.137 C 
BRANCH  35  36
ATOM     36  C   UNL     1       5.765 -10.663  -3.716  0.00  0.00    +0.175 C 
BRANCH  36  37
ATOM     37  O   UNL     1       5.985 -11.934  -4.331  0.00  0.00    -0.393 OA
ATOM     38  H   UNL     1       6.352 -12.601  -3.735  0.00  0.00    +0.209 HD
ENDBRANCH  36  37
ENDBRANCH  35  36
ENDBRANCH   6  35
TORSDOF 15
