REMARK  Name = ZINC09596696
REMARK  8 active torsions:
REMARK  status: ('A' for Active; 'I' for Inactive)
REMARK    1  A    between atoms: C_4  and  S_7
REMARK    2  A    between atoms: S_7  and  N_10
REMARK    3  A    between atoms: N_10  and  C_11
REMARK    4  A    between atoms: C_15  and  C_17
REMARK    5  A    between atoms: N_19  and  C_20
REMARK    6  A    between atoms: C_20  and  C_21
REMARK    7  A    between atoms: C_21  and  C_23
REMARK    8  A    between atoms: C_21  and  N_28
REMARK                            x       y       z     vdW  Elec       q    Type
REMARK                         _______ _______ _______ _____ _____    ______ ____
ROOT
ATOM      1  C   UNL     1       3.449  -2.143   2.135  0.00  0.00    +0.049 A 
ATOM      2  C   UNL     1       2.098  -2.268   1.831  0.00  0.00    +0.024 A 
ATOM      3  C   UNL     1       1.308  -3.162   2.528  0.00  0.00    +0.003 A 
ATOM      4  C   UNL     1       1.855  -3.937   3.531  0.00  0.00    +0.013 A 
ATOM      5  C   UNL     1       3.210  -3.819   3.844  0.00  0.00    +0.038 A 
ATOM      6  C   UNL     1       4.009  -2.920   3.137  0.00  0.00    +0.037 A 
ENDROOT
BRANCH   5   7
ATOM      7  C   UNL     1       3.798  -4.648   4.918  0.00  0.00    +0.244 C 
ATOM      8  O   UNL     1       4.978  -4.544   5.189  0.00  0.00    -0.270 OA
ATOM      9  N   UNL     1       3.025  -5.519   5.596  0.00  0.00    -0.312 N 
ATOM     10  H   UNL     1       2.083  -5.603   5.380  0.00  0.00    +0.149 HD
BRANCH   9  11
ATOM     11  C   UNL     1       3.608  -6.341   6.660  0.00  0.00    +0.097 C 
BRANCH  11  12
ATOM     12  C   UNL     1       2.502  -7.141   7.351  0.00  0.00    +0.016 C 
BRANCH  12  13
ATOM     13  N   UNL     1       3.099  -8.054   8.335  0.00  0.00    +0.387 N 
ATOM     14  C   UNL     1       2.055  -8.940   8.911  0.00  0.00    -0.078 C 
ATOM     15  C   UNL     1       2.869 -10.145   9.445  0.00  0.00    -0.020 C 
ATOM     16  C   UNL     1       3.972 -10.319   8.376  0.00  0.00    -0.020 C 
ATOM     17  C   UNL     1       4.071  -8.951   7.674  0.00  0.00    -0.078 C 
ATOM     18  H   UNL     1       3.553  -7.528   9.067  0.00  0.00    -0.081 HD
ENDBRANCH  12  13
BRANCH  12  19
ATOM     19  C   UNL     1       1.559  -6.196   8.049  0.00  0.00    +0.093 A 
ATOM     20  C   UNL     1       0.362  -5.793   7.586  0.00  0.00    +0.043 A 
ATOM     21  C   UNL     1      -0.178  -4.916   8.554  0.00  0.00    +0.041 A 
ATOM     22  C   UNL     1       0.721  -4.835   9.551  0.00  0.00    +0.195 A 
ATOM     23  O   UNL     1       1.769  -5.617   9.243  0.00  0.00    -0.469 OA
ENDBRANCH  12  19
ENDBRANCH  11  12
ENDBRANCH   9  11
ENDBRANCH   5   7
BRANCH   1  24
ATOM     24  N   UNL     1       4.243  -1.237   1.427  0.00  0.00    -0.216 N 
ATOM     25  H   UNL     1       4.516  -0.404   1.842  0.00  0.00    +0.174 HD
BRANCH  24  26
ATOM     26  S   UNL     1       4.720  -1.587  -0.120  0.00  0.00    +0.072 S 
ATOM     27  O   UNL     1       5.547  -0.512  -0.543  0.00  0.00    -0.150 OA
ATOM     28  O   UNL     1       3.549  -1.972  -0.828  0.00  0.00    -0.150 OA
BRANCH  26  32
ATOM     29  C   UNL     1       7.368  -5.252   0.090  0.00  0.00    +0.000 A 
ATOM     30  C   UNL     1       5.995  -5.395   0.008  0.00  0.00    +0.002 A 
ATOM     31  C   UNL     1       5.187  -4.276  -0.056  0.00  0.00    +0.029 A 
ATOM     32  C   UNL     1       5.750  -3.014  -0.037  0.00  0.00    +0.108 A 
ATOM     33  C   UNL     1       7.123  -2.871   0.045  0.00  0.00    +0.029 A 
ATOM     34  C   UNL     1       7.932  -3.990   0.108  0.00  0.00    +0.002 A 
ENDBRANCH  26  32
ENDBRANCH  24  26
ENDBRANCH   1  24
TORSDOF 8
