REMARK  Name = ZINC20367363
REMARK  8 active torsions:
REMARK  status: ('A' for Active; 'I' for Inactive)
REMARK    1  A    between atoms: C_1  and  C_2
REMARK    2  A    between atoms: C_5  and  C_8
REMARK    3  A    between atoms: C_8  and  O_9
REMARK    4  A    between atoms: O_9  and  C_10
REMARK    5  A    between atoms: C_13  and  C_16
REMARK    6  A    between atoms: C_19  and  C_30
REMARK    7  A    between atoms: C_25  and  N_29
REMARK    8  A    between atoms: C_26  and  C_27
REMARK                            x       y       z     vdW  Elec       q    Type
REMARK                         _______ _______ _______ _____ _____    ______ ____
ROOT
ATOM      1  C   UNL     1       2.185 -10.432  -0.076  0.00  0.00    +0.102 C 
ATOM      2  C   UNL     1       3.098 -10.754   1.079  0.00  0.00    +0.054 A 
ATOM      3  C   UNL     1       2.827 -10.740   2.451  0.00  0.00    +0.100 A 
ATOM      4  N   UNL     1       3.929 -11.090   3.086  0.00  0.00    -0.171 NA
ATOM      5  N   UNL     1       4.929 -11.336   2.132  0.00  0.00    -0.246 N 
ATOM      6  H   UNL     1       5.841 -11.610   2.320  0.00  0.00    +0.192 HD
ATOM      7  C   UNL     1       4.400 -11.126   0.909  0.00  0.00    +0.223 A 
ATOM      8  O   UNL     1       4.975 -11.239  -0.314  0.00  0.00    -0.423 OA
ATOM      9  C   UNL     1       4.162 -11.241  -1.389  0.00  0.00    +0.200 C 
ATOM     10  C   UNL     1       2.859 -10.882  -1.348  0.00  0.00    +0.098 C 
ENDROOT
BRANCH   3  11
ATOM     11  C   UNL     1       1.529 -10.392   3.082  0.00  0.00    +0.003 A 
ATOM     12  C   UNL     1       1.498  -9.589   4.220  0.00  0.00    +0.011 A 
ATOM     13  C   UNL     1       0.289  -9.268   4.803  0.00  0.00    +0.020 A 
ATOM     14  C   UNL     1      -0.892  -9.742   4.258  0.00  0.00    +0.041 A 
ATOM     15  C   UNL     1      -0.866 -10.539   3.126  0.00  0.00    +0.020 A 
ATOM     16  C   UNL     1       0.338 -10.861   2.534  0.00  0.00    +0.011 A 
ATOM     17 CL   UNL     1      -2.409  -9.335   4.995  0.00  0.00    -0.084 Cl
ENDBRANCH   3  11
BRANCH   1  21
ATOM     18  C   UNL     1       1.480  -6.220  -0.227  0.00  0.00    +0.121 A 
ATOM     19  C   UNL     1       0.411  -7.101  -0.148  0.00  0.00    +0.046 A 
ATOM     20  C   UNL     1       0.641  -8.463  -0.100  0.00  0.00    +0.008 A 
ATOM     21  C   UNL     1       1.936  -8.947  -0.129  0.00  0.00    -0.034 A 
ATOM     22  C   UNL     1       3.003  -8.071  -0.207  0.00  0.00    +0.008 A 
ATOM     23  C   UNL     1       2.777  -6.709  -0.262  0.00  0.00    +0.046 A 
BRANCH  18  24
ATOM     24  O   UNL     1       1.255  -4.881  -0.275  0.00  0.00    -0.487 OA
BRANCH  24  25
ATOM     25  C   UNL     1      -0.107  -4.449  -0.235  0.00  0.00    +0.264 C 
BRANCH  25  30
ATOM     26  C   UNL     1      -0.310   1.321  -0.475  0.00  0.00    +0.044 C 
ATOM     27  C   UNL     1      -0.257  -0.184  -0.413  0.00  0.00    -0.050 A 
ATOM     28  C   UNL     1      -0.283  -0.926  -1.579  0.00  0.00    +0.004 A 
ATOM     29  C   UNL     1      -0.234  -2.306  -1.521  0.00  0.00    +0.007 A 
ATOM     30  C   UNL     1      -0.159  -2.944  -0.297  0.00  0.00    -0.010 A 
ATOM     31  C   UNL     1      -0.131  -2.203   0.869  0.00  0.00    +0.007 A 
ATOM     32  C   UNL     1      -0.175  -0.822   0.811  0.00  0.00    +0.004 A 
ENDBRANCH  25  30
ENDBRANCH  24  25
ENDBRANCH  18  24
ENDBRANCH   1  21
BRANCH   9  33
ATOM     33  N   UNL     1       4.687 -11.631  -2.596  0.00  0.00    -0.328 N 
ATOM     34  H   UNL     1       5.618 -11.894  -2.657  0.00  0.00    +0.145 HD
ATOM     35  H   UNL     1       4.126 -11.643  -3.388  0.00  0.00    +0.145 HD
ENDBRANCH   9  33
BRANCH  10  36
ATOM     36  C   UNL     1       2.090 -10.930  -2.556  0.00  0.00    +0.101 C 
ATOM     37  N   UNL     1       1.481 -10.967  -3.514  0.00  0.00    -0.191 NA
ENDBRANCH  10  36
TORSDOF 7
