REMARK  Name = ZINC02915857
REMARK  12 active torsions:
REMARK  status: ('A' for Active; 'I' for Inactive)
REMARK    1  A    between atoms: C_1  and  C_2
REMARK    2  A    between atoms: C_3  and  C_28
REMARK    3  A    between atoms: C_14  and  C_18
REMARK    4  A    between atoms: C_15  and  N_17
REMARK    5  A    between atoms: C_18  and  O_20
REMARK    6  A    between atoms: O_20  and  C_21
REMARK    7  A    between atoms: C_21  and  C_22
REMARK    8  A    between atoms: C_28  and  O_30
REMARK    9  A    between atoms: O_30  and  C_31
REMARK   10  A    between atoms: C_31  and  C_32
REMARK   11  A    between atoms: C_31  and  C_33
REMARK   12  A    between atoms: C_31  and  C_34
REMARK                            x       y       z     vdW  Elec       q    Type
REMARK                         _______ _______ _______ _____ _____    ______ ____
ROOT
ATOM      1  C   UNL     1       2.676   5.747   2.145  0.00  0.00    +0.087 C 
ATOM      2  C   UNL     1       1.888   5.104   1.033  0.00  0.00    +0.116 C 
ATOM      3  C   UNL     1       1.277   3.934   1.266  0.00  0.00    +0.098 C 
ATOM      4  C   UNL     1       0.482   3.255   0.189  0.00  0.00    +0.145 C 
ATOM      5  C   UNL     1      -0.995   3.370   0.468  0.00  0.00    -0.002 A 
ATOM      6  C   UNL     1      -1.848   4.444   0.593  0.00  0.00    +0.007 A 
ATOM      7  C   UNL     1      -3.190   4.234   0.857  0.00  0.00    +0.000 A 
ATOM      8  C   UNL     1      -3.670   2.944   0.994  0.00  0.00    +0.002 A 
ATOM      9  C   UNL     1      -2.818   1.866   0.870  0.00  0.00    +0.023 A 
ATOM     10  C   UNL     1      -1.467   2.069   0.600  0.00  0.00    +0.038 A 
ATOM     11  N   UNL     1      -0.421   1.158   0.440  0.00  0.00    -0.284 N 
ATOM     12  C   UNL     1       0.752   1.768   0.194  0.00  0.00    +0.237 C 
ATOM     13  O   UNL     1       1.822   1.228   0.012  0.00  0.00    -0.274 OA
ATOM     14  C   UNL     1       0.811   3.839  -1.155  0.00  0.00    +0.117 C 
ATOM     15  C   UNL     1       1.459   5.031  -1.247  0.00  0.00    +0.195 C 
ATOM     16  O   UNL     1       1.822   5.723  -0.155  0.00  0.00    -0.446 OA
ATOM     17  H   UNL     1      -0.529   0.196   0.496  0.00  0.00    +0.155 HD
ENDROOT
BRANCH  15  18
ATOM     18  N   UNL     1       1.750   5.538  -2.485  0.00  0.00    -0.329 N 
ATOM     19  H   UNL     1       1.974   4.939  -3.215  0.00  0.00    +0.145 HD
ATOM     20  H   UNL     1       1.733   6.496  -2.633  0.00  0.00    +0.145 HD
ENDBRANCH  15  18
BRANCH  14  21
ATOM     21  C   UNL     1       0.446   3.151  -2.323  0.00  0.00    +0.342 C 
ATOM     22  O   UNL     1       0.616   3.668  -3.413  0.00  0.00    -0.245 OA
BRANCH  21  23
ATOM     23  O   UNL     1      -0.094   1.917  -2.238  0.00  0.00    -0.456 OA
BRANCH  23  24
ATOM     24  C   UNL     1      -0.442   1.275  -3.467  0.00  0.00    +0.268 C 
BRANCH  24  25
ATOM     25  C   UNL     1      -1.026  -0.084  -3.177  0.00  0.00    -0.010 A 
ATOM     26  C   UNL     1      -0.200  -1.190  -3.107  0.00  0.00    +0.007 A 
ATOM     27  C   UNL     1      -0.735  -2.436  -2.836  0.00  0.00    +0.000 A 
ATOM     28  C   UNL     1      -2.097  -2.576  -2.645  0.00  0.00    +0.000 A 
ATOM     29  C   UNL     1      -2.923  -1.471  -2.720  0.00  0.00    +0.000 A 
ATOM     30  C   UNL     1      -2.388  -0.224  -2.986  0.00  0.00    +0.007 A 
ENDBRANCH  24  25
ENDBRANCH  23  24
ENDBRANCH  21  23
ENDBRANCH  14  21
BRANCH   3  31
ATOM     31  C   UNL     1       1.382   3.332   2.543  0.00  0.00    +0.341 C 
ATOM     32  O   UNL     1       2.110   3.820   3.388  0.00  0.00    -0.245 OA
BRANCH  31  33
ATOM     33  O   UNL     1       0.676   2.218   2.824  0.00  0.00    -0.456 OA
BRANCH  33  34
ATOM     34  C   UNL     1       0.830   1.664   4.132  0.00  0.00    +0.106 C 
ATOM     35  C   UNL     1       0.401   2.696   5.177  0.00  0.00    +0.055 C 
ATOM     36  C   UNL     1      -0.042   0.414   4.263  0.00  0.00    +0.055 C 
ATOM     37  C   UNL     1       2.296   1.289   4.358  0.00  0.00    +0.055 C 
ENDBRANCH  33  34
ENDBRANCH  31  33
ENDBRANCH   3  31
TORSDOF 8
