REMARK  Name = ZINC20693521
REMARK  10 active torsions:
REMARK  status: ('A' for Active; 'I' for Inactive)
REMARK    1  A    between atoms: C_1  and  C_2
REMARK    2  A    between atoms: C_2  and  C_3
REMARK    3  A    between atoms: C_3  and  C_5
REMARK    4  A    between atoms: C_3  and  N_6
REMARK    5  A    between atoms: N_6  and  S_7
REMARK    6  A    between atoms: S_7  and  C_10
REMARK    7  A    between atoms: C_23  and  C_26
REMARK    8  A    between atoms: C_29  and  O_34
REMARK    9  A    between atoms: C_30  and  O_32
REMARK   10  A    between atoms: O_32  and  C_33
REMARK                            x       y       z     vdW  Elec       q    Type
REMARK                         _______ _______ _______ _____ _____    ______ ____
ROOT
ATOM      1  C   UNL     1       7.383   4.509  -0.861  0.00  0.00    +0.106 A 
ATOM      2  C   UNL     1       6.888   3.813  -1.949  0.00  0.00    +0.030 A 
ATOM      3  C   UNL     1       5.569   3.405  -1.958  0.00  0.00    +0.025 A 
ATOM      4  C   UNL     1       4.745   3.693  -0.877  0.00  0.00    +0.031 A 
ATOM      5  C   UNL     1       5.238   4.387   0.218  0.00  0.00    -0.018 A 
ATOM      6  C   UNL     1       6.565   4.794   0.213  0.00  0.00    +0.034 A 
ATOM      7  C   UNL     1       4.391   4.712   1.407  0.00  0.00    +0.049 C 
ATOM      8  C   UNL     1       3.998   6.170   1.424  0.00  0.00    -0.023 C 
ATOM      9  C   UNL     1       2.780   6.306   1.890  0.00  0.00    -0.030 C 
ATOM     10  C   UNL     1       2.196   4.954   2.253  0.00  0.00    +0.033 C 
ATOM     11  C   UNL     1       3.048   3.957   1.413  0.00  0.00    +0.029 C 
ATOM     12  C   UNL     1       2.458   3.932  -0.000  0.00  0.00    +0.105 C 
ATOM     13  N   UNL     1       3.410   3.275  -0.901  0.00  0.00    -0.336 N 
ATOM     14  H   UNL     1       3.069   2.475  -1.574  0.00  0.00    +0.147 HD
ENDROOT
BRANCH  12  15
ATOM     15  C   UNL     1       1.160   3.166   0.008  0.00  0.00    -0.023 A 
ATOM     16  C   UNL     1       1.175   1.783   0.000  0.00  0.00    +0.009 A 
ATOM     17  C   UNL     1      -0.013   1.076   0.008  0.00  0.00    +0.049 A 
ATOM     18  C   UNL     1      -1.222   1.752   0.017  0.00  0.00    +0.158 A 
ATOM     19  C   UNL     1      -1.237   3.144   0.030  0.00  0.00    +0.162 A 
ATOM     20  C   UNL     1      -0.043   3.847   0.023  0.00  0.00    +0.054 A 
BRANCH  19  21
ATOM     21  O   UNL     1      -2.421   3.812   0.044  0.00  0.00    -0.491 OA
ATOM     22  C   UNL     1      -2.361   5.240   0.051  0.00  0.00    +0.277 C 
ENDBRANCH  19  21
BRANCH  18  23
ATOM     23  O   UNL     1      -2.391   1.058   0.019  0.00  0.00    -0.503 OA
ATOM     24  H   UNL     1      -3.350   1.596   0.027  0.00  0.00    +0.292 HD
ENDBRANCH  18  23
ENDBRANCH  12  15
BRANCH   1  25
ATOM     25  S   UNL     1       9.065   5.034  -0.847  0.00  0.00    +0.059 S 
ATOM     26  O   UNL     1       9.430   5.189   0.518  0.00  0.00    -0.153 OA
ATOM     27  O   UNL     1       9.767   4.171  -1.730  0.00  0.00    -0.153 OA
BRANCH  25  28
ATOM     28  N   UNL     1       9.112   6.544  -1.524  0.00  0.00    -0.187 NA
ATOM     29  H   UNL     1       9.500   6.663  -2.546  0.00  0.00    +0.148 HD
BRANCH  28  30
ATOM     30  C   UNL     1       8.446   7.667  -0.858  0.00  0.00    +0.073 C 
ATOM     31  C   UNL     1       9.459   8.421   0.005  0.00  0.00    +0.025 C 
BRANCH  30  33
ATOM     32  C   UNL     1       6.766   7.896  -2.693  0.00  0.00    +0.005 C 
ATOM     33  C   UNL     1       7.868   8.614  -1.912  0.00  0.00    +0.017 C 
ENDBRANCH  30  33
ENDBRANCH  28  30
ENDBRANCH  25  28
ENDBRANCH   1  25
TORSDOF 7
