REMARK  Name = ZINC44940217
REMARK  6 active torsions:
REMARK  status: ('A' for Active; 'I' for Inactive)
REMARK    1  A    between atoms: C_15  and  C_17
REMARK    2  A    between atoms: C_23  and  C_25
REMARK    3  A    between atoms: N_27  and  C_28
REMARK    4  A    between atoms: C_28  and  C_29
REMARK    5  A    between atoms: C_29  and  O_30
REMARK    6  A    between atoms: O_30  and  C_31
REMARK                            x       y       z     vdW  Elec       q    Type
REMARK                         _______ _______ _______ _____ _____    ______ ____
ROOT
ATOM      1  C   UNL     1       4.499  -5.557   1.690  0.00  0.00    +0.087 C 
ATOM      2  C   UNL     1       4.706  -4.332   2.582  0.00  0.00    +0.013 C 
ATOM      3  C   UNL     1       6.106  -4.380   3.198  0.00  0.00    +0.001 C 
ATOM      4  C   UNL     1       6.249  -5.652   4.037  0.00  0.00    +0.001 C 
ATOM      5  C   UNL     1       6.042  -6.878   3.146  0.00  0.00    +0.013 C 
ATOM      6  C   UNL     1       4.642  -6.829   2.529  0.00  0.00    +0.087 C 
ENDROOT
BRANCH   1  21
ATOM      7  C   UNL     1       3.257  -4.270  -6.444  0.00  0.00    +0.001 A 
ATOM      8  C   UNL     1       1.923  -4.571  -6.684  0.00  0.00    +0.002 A 
ATOM      9  C   UNL     1       1.051  -4.773  -5.637  0.00  0.00    +0.026 A 
ATOM     10  C   UNL     1       1.508  -4.677  -4.327  0.00  0.00    +0.047 A 
ATOM     11  C   UNL     1       2.862  -4.372  -4.089  0.00  0.00    +0.003 A 
ATOM     12  C   UNL     1       3.728  -4.170  -5.166  0.00  0.00    +0.010 A 
ATOM     13  C   UNL     1       3.016  -4.346  -2.637  0.00  0.00    -0.016 A 
ATOM     14  C   UNL     1       1.811  -4.619  -2.103  0.00  0.00    +0.038 A 
ATOM     15  N   UNL     1       0.899  -4.821  -3.099  0.00  0.00    -0.356 N 
ATOM     16  H   UNL     1      -0.037  -5.034  -2.963  0.00  0.00    +0.166 HD
ATOM     17  C   UNL     1       1.554  -4.677  -0.613  0.00  0.00    +0.161 C 
ATOM     18  N   UNL     1       2.863  -4.668   0.061  0.00  0.00    -0.295 N 
ATOM     19  C   UNL     1       3.883  -3.718  -0.407  0.00  0.00    +0.113 C 
ATOM     20  C   UNL     1       4.271  -4.073  -1.848  0.00  0.00    +0.056 C 
ATOM     21  C   UNL     1       3.121  -5.509   1.082  0.00  0.00    +0.220 C 
ATOM     22  O   UNL     1       2.243  -6.228   1.512  0.00  0.00    -0.275 OA
ENDBRANCH   1  21
BRANCH   6  23
ATOM     23  C   UNL     1       3.609  -6.825   3.626  0.00  0.00    +0.217 C 
ATOM     24  O   UNL     1       2.835  -5.898   3.727  0.00  0.00    -0.275 OA
ATOM     25  N   UNL     1       3.546  -7.854   4.495  0.00  0.00    -0.312 N 
ATOM     26  H   UNL     1       4.166  -8.596   4.415  0.00  0.00    +0.149 HD
BRANCH  25  27
ATOM     27  C   UNL     1       2.542  -7.850   5.562  0.00  0.00    +0.145 C 
BRANCH  27  28
ATOM     28  C   UNL     1       2.685  -9.122   6.401  0.00  0.00    +0.248 C 
BRANCH  28  29
ATOM     29  O   UNL     1       3.948  -9.111   7.070  0.00  0.00    -0.489 OA
BRANCH  29  30
ATOM     30  C   UNL     1       4.235 -10.177   7.863  0.00  0.00    +0.139 A 
ATOM     31  C   UNL     1       3.323 -11.214   7.990  0.00  0.00    +0.047 A 
ATOM     32  C   UNL     1       3.618 -12.297   8.796  0.00  0.00    +0.004 A 
ATOM     33  C   UNL     1       4.820 -12.347   9.477  0.00  0.00    +0.002 A 
ATOM     34  C   UNL     1       5.731 -11.315   9.354  0.00  0.00    +0.023 A 
ATOM     35  C   UNL     1       5.444 -10.232   8.543  0.00  0.00    +0.083 A 
ATOM     36 CL   UNL     1       6.591  -8.939   8.383  0.00  0.00    -0.080 Cl
ENDBRANCH  29  30
ENDBRANCH  28  29
ENDBRANCH  27  28
ENDBRANCH  25  27
ENDBRANCH   6  23
TORSDOF 6
