REMARK  Name = ZINC63708328
REMARK  10 active torsions:
REMARK  status: ('A' for Active; 'I' for Inactive)
REMARK    1  A    between atoms: C_1  and  C_2
REMARK    2  A    between atoms: C_5  and  N_9
REMARK    3  A    between atoms: C_10  and  C_12
REMARK    4  A    between atoms: C_12  and  S_13
REMARK    5  A    between atoms: S_13  and  C_14
REMARK    6  A    between atoms: C_26  and  C_28
REMARK    7  A    between atoms: C_28  and  C_29
REMARK    8  A    between atoms: C_29  and  C_30
REMARK    9  A    between atoms: C_31  and  C_37
REMARK   10  A    between atoms: C_34  and  C_36
REMARK                            x       y       z     vdW  Elec       q    Type
REMARK                         _______ _______ _______ _____ _____    ______ ____
ROOT
ATOM      1  C   UNL     1       0.594  -8.765   2.622  0.00  0.00    +0.248 C 
ATOM      2  N   UNL     1       1.856  -9.029   1.920  0.00  0.00    -0.356 N 
ATOM      3  C   UNL     1       1.842  -9.701   0.777  0.00  0.00    +0.048 A 
ATOM      4  C   UNL     1       3.043  -9.966   0.084  0.00  0.00    +0.026 A 
ATOM      5  C   UNL     1       3.006 -10.657  -1.087  0.00  0.00    +0.002 A 
ATOM      6  C   UNL     1       1.806 -11.115  -1.625  0.00  0.00    +0.001 A 
ATOM      7  C   UNL     1       0.614 -10.892  -1.007  0.00  0.00    +0.013 A 
ATOM      8  C   UNL     1       0.580 -10.184   0.207  0.00  0.00    +0.038 A 
ATOM      9  C   UNL     1      -0.644  -9.944   0.862  0.00  0.00    +0.128 C 
ATOM     10  N   UNL     1      -0.658  -9.252   2.044  0.00  0.00    -0.204 N 
ATOM     11  N   UNL     1      -1.999  -9.176   2.441  0.00  0.00    -0.249 N 
ATOM     12  C   UNL     1      -2.718  -9.816   1.492  0.00  0.00    +0.090 C 
ATOM     13  N   UNL     1      -1.909 -10.267   0.568  0.00  0.00    -0.332 N 
ATOM     14  H   UNL     1      -2.344  -8.748   3.240  0.00  0.00    +0.171 HD
ATOM     15  H   UNL     1       2.696  -8.714   2.290  0.00  0.00    +0.162 HD
ATOM     16  H   UNL     1      -2.187 -10.761  -0.219  0.00  0.00    +0.168 HD
ENDROOT
BRANCH   1  17
ATOM     17  S   UNL     1       0.443  -6.968   2.817  0.00  0.00    -0.106 S 
BRANCH  17  18
ATOM     18  C   UNL     1       0.306  -6.353   1.116  0.00  0.00    +0.168 C 
BRANCH  18  20
ATOM     19  N   UNL     1       0.057  -4.171  -0.023  0.00  0.00    -0.285 N 
ATOM     20  C   UNL     1       0.174  -4.852   1.134  0.00  0.00    +0.227 C 
ATOM     21  O   UNL     1       0.172  -4.256   2.191  0.00  0.00    -0.275 OA
ATOM     22  H   UNL     1      -0.018  -4.652  -0.863  0.00  0.00    +0.155 HD
BRANCH  19  27
ATOM     23  C   UNL     1       0.013   1.503   0.016  0.00  0.00    +0.047 C 
ATOM     24  C   UNL     1       0.024  -0.004   0.005  0.00  0.00    -0.015 A 
ATOM     25  C   UNL     1       0.778  -0.695   0.935  0.00  0.00    +0.008 A 
ATOM     26  C   UNL     1       0.791  -2.076   0.928  0.00  0.00    +0.024 A 
ATOM     27  C   UNL     1       0.045  -2.772  -0.014  0.00  0.00    +0.036 A 
ATOM     28  C   UNL     1      -0.713  -2.078  -0.947  0.00  0.00    +0.062 A 
ATOM     29  C   UNL     1      -0.726  -0.694  -0.932  0.00  0.00    +0.128 A 
ATOM     30  F   UNL     1      -1.467  -0.016  -1.836  0.00  0.00    -0.205 F 
ENDBRANCH  19  27
ENDBRANCH  18  20
ENDBRANCH  17  18
ENDBRANCH   1  17
BRANCH  12  31
ATOM     31  C   UNL     1      -4.215  -9.988   1.500  0.00  0.00    +0.075 C 
BRANCH  31  32
ATOM     32  C   UNL     1      -4.867  -8.807   0.778  0.00  0.00    +0.042 C 
BRANCH  32  33
ATOM     33  C   UNL     1      -6.364  -8.979   0.786  0.00  0.00    -0.021 C 
ATOM     34  C   UNL     1      -7.246  -8.465   1.646  0.00  0.00    +0.061 C 
ATOM     35  N   UNL     1      -8.504  -8.843   1.327  0.00  0.00    -0.159 NA
ATOM     36  N   UNL     1      -8.584  -9.568   0.332  0.00  0.00    -0.180 NA
ATOM     37  C   UNL     1      -7.221  -9.771  -0.186  0.00  0.00    +0.153 C 
ATOM     38  C   UNL     1      -6.847 -11.254  -0.152  0.00  0.00    +0.039 C 
ATOM     39  C   UNL     1      -6.888  -7.583   2.814  0.00  0.00    +0.067 C 
ENDBRANCH  32  33
ENDBRANCH  31  32
ENDBRANCH  12  31
TORSDOF 7
