REMARK  Name = ZINC67103509
REMARK  5 active torsions:
REMARK  status: ('A' for Active; 'I' for Inactive)
REMARK    1  A    between atoms: C_1  and  C_2
REMARK    2  A    between atoms: C_2  and  C_26
REMARK    3  A    between atoms: N_13  and  N_14
REMARK    4  A    between atoms: C_15  and  C_17
REMARK    5  A    between atoms: C_17  and  C_18
REMARK                            x       y       z     vdW  Elec       q    Type
REMARK                         _______ _______ _______ _____ _____    ______ ____
ROOT
ATOM      1  C   UNL     1      -0.018   1.524   0.002  0.00  0.00    +0.015 C 
ATOM      2  C   UNL     1       0.003  -0.006  -0.005  0.00  0.00    +0.012 C 
ATOM      3  C   UNL     1       0.736  -0.504  -1.256  0.00  0.00    +0.172 C 
ATOM      4  O   UNL     1       0.863  -1.927  -1.184  0.00  0.00    -0.348 OA
ATOM      5  C   UNL     1       1.555  -2.386  -0.021  0.00  0.00    +0.173 C 
ATOM      6  C   UNL     1       2.980  -1.829  -0.023  0.00  0.00    +0.084 C 
ATOM      7  C   UNL     1       3.710  -2.298   1.240  0.00  0.00    +0.114 C 
ATOM      8  N   UNL     1       3.635  -3.764   1.313  0.00  0.00    -0.284 N 
ATOM      9  C   UNL     1       2.317  -4.408   1.234  0.00  0.00    +0.114 C 
ATOM     10  C   UNL     1       1.602  -3.916  -0.029  0.00  0.00    +0.084 C 
ATOM     11  C   UNL     1       4.753  -4.503   1.450  0.00  0.00    +0.319 C 
ATOM     12  O   UNL     1       4.672  -5.707   1.601  0.00  0.00    -0.251 OA
ATOM     13  N   UNL     1       5.962  -3.908   1.418  0.00  0.00    -0.218 N 
ATOM     14  O   UNL     1       0.870  -1.938   1.151  0.00  0.00    -0.348 OA
ATOM     15  C   UNL     1       0.743  -0.515   1.236  0.00  0.00    +0.172 C 
ATOM     16  C   UNL     1      -1.431  -0.538  -0.002  0.00  0.00    +0.015 C 
ATOM     17  H   UNL     1       6.026  -2.942   1.371  0.00  0.00    +0.174 HD
ENDROOT
BRANCH  13  18
ATOM     18  N   UNL     1       7.127  -4.686   1.453  0.00  0.00    -0.233 N 
ATOM     19  C   UNL     1       8.334  -4.090   1.524  0.00  0.00    +0.229 C 
ATOM     20  O   UNL     1       8.411  -2.880   1.557  0.00  0.00    -0.274 OA
ATOM     21  H   UNL     1       7.065  -5.654   1.427  0.00  0.00    +0.173 HD
BRANCH  19  22
ATOM     22  C   UNL     1       9.586  -4.927   1.562  0.00  0.00    +0.101 C 
BRANCH  22  23
ATOM     23  C   UNL     1      10.809  -4.011   1.641  0.00  0.00    -0.002 C 
ATOM     24  C   UNL     1      10.912  -3.186   0.357  0.00  0.00    +0.004 C 
ATOM     25  C   UNL     1      12.135  -2.270   0.436  0.00  0.00    +0.000 C 
ATOM     26  C   UNL     1      13.398  -3.118   0.600  0.00  0.00    +0.000 C 
ATOM     27  C   UNL     1      13.295  -3.943   1.884  0.00  0.00    +0.000 C 
ATOM     28  C   UNL     1      12.072  -4.859   1.804  0.00  0.00    +0.004 C 
ENDBRANCH  22  23
ENDBRANCH  19  22
ENDBRANCH  13  18
TORSDOF 3
