REMARK  Name = ZINC11847488
REMARK  4 active torsions:
REMARK  status: ('A' for Active; 'I' for Inactive)
REMARK    1  A    between atoms: C_1  and  C_2
REMARK    2  A    between atoms: C_2  and  S_3
REMARK    3  A    between atoms: S_3  and  C_4
REMARK    4  A    between atoms: C_8  and  C_11
REMARK                            x       y       z     vdW  Elec       q    Type
REMARK                         _______ _______ _______ _____ _____    ______ ____
ROOT
ATOM      1  C   UNL     1      -2.013   2.433   3.419  0.00  0.00    +0.213 A 
ATOM      2  N   UNL     1      -0.666   2.248   3.521  0.00  0.00    -0.180 NA
ATOM      3  C   UNL     1       0.010   1.812   2.433  0.00  0.00    +0.295 A 
ATOM      4  O   UNL     1       1.215   1.632   2.476  0.00  0.00    -0.264 OA
ATOM      5  C   UNL     1      -0.718   1.572   1.248  0.00  0.00    +0.126 A 
ATOM      6  N   UNL     1      -2.014   1.780   1.234  0.00  0.00    -0.146 NA
ATOM      7  N   UNL     1      -2.639   2.189   2.279  0.00  0.00    -0.122 NA
ATOM      8  C   UNL     1      -0.013   1.086   0.008  0.00  0.00    +0.073 C 
ENDROOT
BRANCH   1   9
ATOM      9  S   UNL     1      -2.927   3.000   4.815  0.00  0.00    -0.085 S 
BRANCH   9  11
ATOM     10  C   UNL     1      -5.584   3.530   5.162  0.00  0.00    +0.016 C 
ATOM     11  C   UNL     1      -4.590   3.052   4.102  0.00  0.00    +0.074 C 
ENDBRANCH   9  11
ENDBRANCH   1   9
TORSDOF 2
