REMARK  Name = ZINC38558193
REMARK  9 active torsions:
REMARK  status: ('A' for Active; 'I' for Inactive)
REMARK    1  A    between atoms: C_1  and  C_2
REMARK    2  A    between atoms: C_2  and  C_3
REMARK    3  A    between atoms: C_2  and  C_4
REMARK    4  A    between atoms: C_7  and  C_10
REMARK    5  A    between atoms: C_12  and  C_24
REMARK    6  A    between atoms: N_26  and  C_27
REMARK    7  A    between atoms: C_27  and  C_28
REMARK    8  A    between atoms: C_28  and  C_29
REMARK    9  A    between atoms: C_29  and  C_30
REMARK                            x       y       z     vdW  Elec       q    Type
REMARK                         _______ _______ _______ _____ _____    ______ ____
ROOT
ATOM      1  C   UNL     1      -5.389  -1.994   0.043  0.00  0.00    +0.076 C 
ATOM      2  N   UNL     1      -6.172  -1.771   1.074  0.00  0.00    -0.244 NA
ATOM      3  C   UNL     1      -7.479  -2.073   1.111  0.00  0.00    +0.126 C 
ATOM      4  C   UNL     1      -8.184  -2.387  -0.053  0.00  0.00    +0.039 C 
ATOM      5  C   UNL     1      -7.420  -2.566  -1.198  0.00  0.00    -0.008 C 
ATOM      6  C   UNL     1      -7.689  -2.558  -2.540  0.00  0.00    +0.004 A 
ATOM      7  C   UNL     1      -8.902  -2.620  -3.264  0.00  0.00    +0.010 A 
ATOM      8  C   UNL     1      -8.814  -2.538  -4.623  0.00  0.00    +0.001 A 
ATOM      9  C   UNL     1      -7.606  -2.400  -5.307  0.00  0.00    +0.002 A 
ATOM     10  C   UNL     1      -6.394  -2.355  -4.689  0.00  0.00    +0.026 A 
ATOM     11  C   UNL     1      -6.392  -2.455  -3.269  0.00  0.00    +0.044 A 
ATOM     12  N   UNL     1      -5.386  -2.501  -2.432  0.00  0.00    -0.372 N 
ATOM     13  C   UNL     1      -5.917  -2.762  -1.116  0.00  0.00    +0.160 C 
ATOM     14  H   UNL     1      -4.450  -2.379  -2.657  0.00  0.00    +0.161 HD
ENDROOT
BRANCH   1  18
ATOM     15  C   UNL     1      -1.412  -0.524   0.011  0.00  0.00    -0.045 A 
ATOM     16  C   UNL     1      -1.740  -1.640  -0.741  0.00  0.00    +0.004 A 
ATOM     17  C   UNL     1      -3.030  -2.124  -0.736  0.00  0.00    +0.010 A 
ATOM     18  C   UNL     1      -4.011  -1.485   0.032  0.00  0.00    -0.001 A 
ATOM     19  C   UNL     1      -3.671  -0.357   0.790  0.00  0.00    +0.010 A 
ATOM     20  C   UNL     1      -2.374   0.110   0.779  0.00  0.00    +0.004 A 
BRANCH  15  22
ATOM     21  C   UNL     1       0.951  -1.090   0.505  0.00  0.00    +0.012 C 
ATOM     22  C   UNL     1       0.001  -0.002   0.000  0.00  0.00    +0.013 C 
ATOM     23  C   UNL     1       0.388   0.391  -1.427  0.00  0.00    +0.012 C 
ENDBRANCH  15  22
ENDBRANCH   1  18
BRANCH   3  24
ATOM     24  C   UNL     1      -8.187  -2.074   2.410  0.00  0.00    +0.262 C 
ATOM     25  O   UNL     1      -9.370  -2.345   2.457  0.00  0.00    -0.269 OA
ATOM     26  N   UNL     1      -7.519  -1.774   3.542  0.00  0.00    -0.310 N 
ATOM     27  H   UNL     1      -6.574  -1.557   3.504  0.00  0.00    +0.149 HD
BRANCH  26  28
ATOM     28  C   UNL     1      -8.220  -1.774   4.828  0.00  0.00    +0.105 C 
BRANCH  28  29
ATOM     29  C   UNL     1      -7.240  -1.403   5.943  0.00  0.00    +0.023 C 
BRANCH  29  30
ATOM     30  C   UNL     1      -7.971  -1.404   7.287  0.00  0.00    +0.036 C 
BRANCH  30  31
ATOM     31  C   UNL     1      -7.006  -1.038   8.385  0.00  0.00    -0.047 A 
ATOM     32  C   UNL     1      -6.288  -2.027   9.031  0.00  0.00    +0.003 A 
ATOM     33  C   UNL     1      -5.403  -1.691  10.039  0.00  0.00    +0.000 A 
ATOM     34  C   UNL     1      -5.235  -0.367  10.399  0.00  0.00    +0.000 A 
ATOM     35  C   UNL     1      -5.953   0.622   9.751  0.00  0.00    +0.000 A 
ATOM     36  C   UNL     1      -6.835   0.286   8.741  0.00  0.00    +0.003 A 
ENDBRANCH  30  31
ENDBRANCH  29  30
ENDBRANCH  28  29
ENDBRANCH  26  28
ENDBRANCH   3  24
TORSDOF 7
