REMARK  Name = ZINC47346912
REMARK  4 active torsions:
REMARK  status: ('A' for Active; 'I' for Inactive)
REMARK    1  A    between atoms: C_1  and  C_2
REMARK    2  A    between atoms: C_3  and  C_11
REMARK    3  A    between atoms: C_7  and  N_8
REMARK    4  A    between atoms: C_11  and  N_12
REMARK                            x       y       z     vdW  Elec       q    Type
REMARK                         _______ _______ _______ _____ _____    ______ ____
ROOT
ATOM      1  N   UNL     1       0.428   0.720  -2.958  0.00  0.00    -0.220 N 
ATOM      2  C   UNL     1       0.774   1.982  -2.628  0.00  0.00    +0.247 C 
ATOM      3  O   UNL     1       0.202   2.723  -1.857  0.00  0.00    -0.273 OA
ATOM      4  C   UNL     1       2.024   2.278  -3.423  0.00  0.00    +0.113 C 
ATOM      5  C   UNL     1       1.844   3.464  -4.327  0.00  0.00    +0.035 C 
ATOM      6  C   UNL     1       2.594   3.302  -5.667  0.00  0.00    +0.003 C 
ATOM      7  C   UNL     1       3.998   2.689  -5.492  0.00  0.00    +0.000 C 
ATOM      8  C   UNL     1       4.726   3.249  -4.302  0.00  0.00    +0.000 C 
ATOM      9  C   UNL     1       4.488   2.314  -3.100  0.00  0.00    +0.003 C 
ATOM     10  C   UNL     1       3.199   2.544  -2.461  0.00  0.00    +0.035 C 
ATOM     11  N   UNL     1       2.269   1.044  -4.178  0.00  0.00    -0.285 N 
ATOM     12  C   UNL     1       1.285   0.188  -3.838  0.00  0.00    +0.310 C 
ATOM     13  O   UNL     1       1.185  -0.938  -4.282  0.00  0.00    -0.252 OA
ATOM     14  H   UNL     1       2.997   0.875  -4.796  0.00  0.00    +0.151 HD
ENDROOT
BRANCH   1  15
ATOM     15  C   UNL     1      -0.737   0.018  -2.415  0.00  0.00    +0.153 C 
BRANCH  15  18
ATOM     16  C   UNL     1      -0.526   1.450   0.086  0.00  0.00    +0.046 C 
ATOM     17  C   UNL     1      -0.241  -0.030   0.038  0.00  0.00    -0.016 A 
ATOM     18  C   UNL     1      -0.341  -0.715  -1.158  0.00  0.00    -0.025 A 
ATOM     19  C   UNL     1      -0.080  -2.071  -1.202  0.00  0.00    +0.005 A 
ATOM     20  C   UNL     1       0.283  -2.743  -0.050  0.00  0.00    +0.003 A 
ATOM     21  C   UNL     1       0.384  -2.058   1.147  0.00  0.00    +0.033 A 
ATOM     22  C   UNL     1       0.127  -0.700   1.190  0.00  0.00    +0.129 A 
BRANCH  22  23
ATOM     23  N   UNL     1       0.241   0.035   2.470  0.00  0.00    +0.057 N 
ATOM     24  O   UNL     1       0.674   1.163   2.482  0.00  0.00    -0.126 OA
ATOM     25  O   UNL     1      -0.099  -0.494   3.502  0.00  0.00    -0.126 OA
ENDBRANCH  22  23
ENDBRANCH  15  18
ENDBRANCH   1  15
TORSDOF 3
