REMARK  Name = ZINC09312261
REMARK  15 active torsions:
REMARK  status: ('A' for Active; 'I' for Inactive)
REMARK    1  A    between atoms: C_1  and  C_2
REMARK    2  A    between atoms: C_2  and  N_73
REMARK    3  A    between atoms: C_3  and  C_4
REMARK    4  A    between atoms: C_3  and  N_73
REMARK    5  A    between atoms: C_5  and  C_6
REMARK    6  A    between atoms: C_5  and  N_73
REMARK    7  A    between atoms: C_6  and  C_7
REMARK    8  A    between atoms: C_7  and  N_8
REMARK    9  A    between atoms: C_9  and  C_29
REMARK   10  A    between atoms: C_12  and  C_13
REMARK   11  A    between atoms: C_12  and  O_24
REMARK   12  A    between atoms: C_20  and  C_23
REMARK   13  A    between atoms: C_32  and  O_35
REMARK   14  A    between atoms: O_35  and  C_36
REMARK   15  A    between atoms: C_36  and  C_37
REMARK                            x       y       z     vdW  Elec       q    Type
REMARK                         _______ _______ _______ _____ _____    ______ ____
ROOT
ATOM      1  N   UNL     1       6.352  -4.345   3.956  0.00  0.00    -0.284 N 
ATOM      2  C   UNL     1       6.521  -2.985   3.435  0.00  0.00    +0.144 C 
ATOM      3  C   UNL     1       5.264  -2.658   2.663  0.00  0.00    +0.071 C 
ATOM      4  C   UNL     1       4.981  -1.481   1.998  0.00  0.00    +0.133 C 
ATOM      5  C   UNL     1       4.440  -3.789   2.762  0.00  0.00    +0.249 C 
ATOM      6  O   UNL     1       3.332  -3.911   2.272  0.00  0.00    -0.282 OA
ATOM      7  C   UNL     1       5.155  -4.815   3.568  0.00  0.00    +0.288 C 
ATOM      8  O   UNL     1       4.719  -5.915   3.839  0.00  0.00    -0.266 OA
ENDROOT
BRANCH   4   9
ATOM      9  C   UNL     1       3.716  -1.338   1.261  0.00  0.00    +0.017 A 
ATOM     10  C   UNL     1       2.859  -0.264   1.529  0.00  0.00    +0.015 A 
ATOM     11  C   UNL     1       1.677  -0.136   0.842  0.00  0.00    +0.046 A 
ATOM     12  C   UNL     1       1.316  -1.073  -0.129  0.00  0.00    +0.124 A 
ATOM     13  C   UNL     1       2.176  -2.135  -0.398  0.00  0.00    -0.002 A 
ATOM     14  C   UNL     1       3.358  -2.277   0.284  0.00  0.00    +0.019 A 
ATOM     15  C   UNL     1       1.534  -2.956  -1.500  0.00  0.00    +0.083 C 
ATOM     16  C   UNL     1       0.458  -1.983  -2.037  0.00  0.00    +0.175 C 
ATOM     17  O   UNL     1       0.202  -1.135  -0.906  0.00  0.00    -0.488 OA
ATOM     18  C   UNL     1       1.001  -1.169  -3.213  0.00  0.00    +0.052 C 
ENDBRANCH   4   9
BRANCH   2  19
ATOM     19  C   UNL     1       6.694  -2.014   4.575  0.00  0.00    -0.022 A 
ATOM     20  C   UNL     1       5.952  -2.168   5.731  0.00  0.00    +0.009 A 
ATOM     21  C   UNL     1       6.112  -1.283   6.780  0.00  0.00    +0.046 A 
ATOM     22  C   UNL     1       7.010  -0.232   6.667  0.00  0.00    +0.121 A 
ATOM     23  C   UNL     1       7.749  -0.075   5.503  0.00  0.00    +0.046 A 
ATOM     24  C   UNL     1       7.589  -0.967   4.460  0.00  0.00    +0.009 A 
BRANCH  22  25
ATOM     25  O   UNL     1       7.166   0.644   7.694  0.00  0.00    -0.488 OA
BRANCH  25  26
ATOM     26  C   UNL     1       6.373   0.422   8.862  0.00  0.00    +0.256 C 
BRANCH  26  27
ATOM     27  C   UNL     1       6.679   1.483   9.887  0.00  0.00    +0.006 C 
ATOM     28  C   UNL     1       5.702   2.075  10.528  0.00  0.00    +0.007 C 
ENDBRANCH  26  27
ENDBRANCH  25  26
ENDBRANCH  22  25
ENDBRANCH   2  19
BRANCH   4  29
ATOM     29  O   UNL     1       5.865  -0.461   2.025  0.00  0.00    -0.506 OA
ATOM     30  H   UNL     1       5.504   0.308   1.497  0.00  0.00    +0.292 HD
ENDBRANCH   4  29
BRANCH   1  31
ATOM     31  C   UNL     1       7.331  -5.073   4.767  0.00  0.00    +0.107 C 
BRANCH  31  32
ATOM     32  C   UNL     1       7.074  -4.793   6.249  0.00  0.00    +0.000 C 
BRANCH  32  33
ATOM     33  C   UNL     1       8.096  -5.554   7.096  0.00  0.00    -0.077 C 
BRANCH  33  34
ATOM     34  N   UNL     1       7.848  -5.257   8.523  0.00  0.00    +0.379 N 
ATOM     35  H   UNL     1       7.809  -4.239   8.650  0.00  0.00    -0.082 HD
BRANCH  34  37
ATOM     36  C   UNL     1       6.594  -7.367   8.813  0.00  0.00    -0.017 C 
ATOM     37  C   UNL     1       6.559  -5.843   8.944  0.00  0.00    -0.082 C 
ENDBRANCH  34  37
BRANCH  34  38
ATOM     38  C   UNL     1       8.945  -5.802   9.350  0.00  0.00    -0.082 C 
ATOM     39  C   UNL     1       8.857  -5.189  10.749  0.00  0.00    -0.017 C 
ENDBRANCH  34  38
ENDBRANCH  33  34
ENDBRANCH  32  33
ENDBRANCH  31  32
ENDBRANCH   1  31
TORSDOF 12
