REMARK  Name = ZINC20820247
REMARK  8 active torsions:
REMARK  status: ('A' for Active; 'I' for Inactive)
REMARK    1  A    between atoms: C_1  and  C_2
REMARK    2  A    between atoms: C_2  and  C_4
REMARK    3  A    between atoms: C_2  and  O_18
REMARK    4  A    between atoms: C_9  and  C_12
REMARK    5  A    between atoms: O_18  and  C_19
REMARK    6  A    between atoms: C_19  and  C_21
REMARK    7  A    between atoms: C_21  and  N_22
REMARK    8  A    between atoms: C_23  and  C_25
REMARK                            x       y       z     vdW  Elec       q    Type
REMARK                         _______ _______ _______ _____ _____    ______ ____
ROOT
ATOM      1  O   UNL     1       1.623   3.305   0.004  0.00  0.00    -0.451 OA
ENDROOT
BRANCH   1   3
ATOM      2  C   UNL     1       3.483   3.895  -1.453  0.00  0.00    +0.062 C 
ATOM      3  C   UNL     1       3.010   3.736  -0.007  0.00  0.00    +0.259 C 
BRANCH   3   4
ATOM      4  C   UNL     1       3.132   5.056   0.710  0.00  0.00    +0.259 C 
ATOM      5  O   UNL     1       2.147   5.582   1.183  0.00  0.00    -0.271 OA
ATOM      6  N   UNL     1       4.335   5.652   0.825  0.00  0.00    -0.262 N 
ATOM      7  C   UNL     1       4.447   6.869   1.485  0.00  0.00    +0.165 A 
ATOM      8  N   UNL     1       5.521   7.606   1.702  0.00  0.00    -0.225 NA
ATOM      9  C   UNL     1       5.446   8.754   2.358  0.00  0.00    +0.080 A 
ATOM     10  C   UNL     1       4.233   9.185   2.819  0.00  0.00    +0.076 A 
ATOM     11  S   UNL     1       3.175   7.857   2.260  0.00  0.00    -0.060 S 
ATOM     12  H   UNL     1       5.228   5.175   0.395  0.00  0.00    +0.157 HD
BRANCH   9  13
ATOM     13  C   UNL     1       6.666   9.565   2.590  0.00  0.00    +0.001 A 
ATOM     14  C   UNL     1       6.582  10.775   3.276  0.00  0.00    +0.010 A 
ATOM     15  C   UNL     1       7.722  11.522   3.494  0.00  0.00    +0.001 A 
ATOM     16  C   UNL     1       8.944  11.078   3.023  0.00  0.00    +0.000 A 
ATOM     17  C   UNL     1       9.033   9.880   2.337  0.00  0.00    +0.001 A 
ATOM     18  C   UNL     1       7.901   9.121   2.118  0.00  0.00    +0.010 A 
ENDBRANCH   9  13
ENDBRANCH   3   4
ENDBRANCH   1   3
BRANCH   1  19
ATOM     19  C   UNL     1       1.396   1.982  -0.001  0.00  0.00    +0.325 C 
ATOM     20  O   UNL     1       2.325   1.210  -0.014  0.00  0.00    -0.249 OA
BRANCH  19  21
ATOM     21  C   UNL     1      -0.018   1.461   0.010  0.00  0.00    +0.225 C 
BRANCH  21  22
ATOM     22  N   UNL     1       0.002  -0.004   0.002  0.00  0.00    -0.304 N 
ATOM     23  C   UNL     1      -1.156  -0.694   0.009  0.00  0.00    +0.220 C 
ATOM     24  O   UNL     1      -2.214  -0.102   0.023  0.00  0.00    -0.275 OA
ATOM     25  H   UNL     1       0.962  -0.541  -0.010  0.00  0.00    +0.149 HD
BRANCH  23  26
ATOM     26  C   UNL     1      -1.135  -2.201   0.001  0.00  0.00    +0.048 C 
ATOM     27  C   UNL     1      -0.419  -2.694  -1.258  0.00  0.00    +0.019 C 
ATOM     28  C   UNL     1      -0.399  -4.224  -1.266  0.00  0.00    -0.009 C 
ATOM     29  C   UNL     1      -1.834  -4.753  -1.255  0.00  0.00    +0.007 C 
ATOM     30  C   UNL     1      -2.550  -4.260   0.004  0.00  0.00    -0.009 C 
ATOM     31  C   UNL     1      -2.571  -2.730   0.012  0.00  0.00    +0.019 C 
ATOM     32  C   UNL     1      -1.810  -4.767   1.243  0.00  0.00    +0.007 C 
ATOM     33  C   UNL     1      -0.375  -4.237   1.232  0.00  0.00    -0.009 C 
ATOM     34  C   UNL     1       0.342  -4.731  -0.027  0.00  0.00    +0.007 C 
ATOM     35  C   UNL     1      -0.395  -2.707   1.241  0.00  0.00    +0.019 C 
ENDBRANCH  23  26
ENDBRANCH  21  22
ENDBRANCH  19  21
ENDBRANCH   1  19
TORSDOF 7
