REMARK  Name = ZINC20103323
REMARK  5 active torsions:
REMARK  status: ('A' for Active; 'I' for Inactive)
REMARK    1  A    between atoms: C_1  and  C_2
REMARK    2  A    between atoms: C_2  and  C_3
REMARK    3  A    between atoms: C_8  and  N_9
REMARK    4  A    between atoms: C_10  and  C_12
REMARK    5  A    between atoms: C_12  and  C_13
REMARK                            x       y       z     vdW  Elec       q    Type
REMARK                         _______ _______ _______ _____ _____    ______ ____
ROOT
ATOM      1  C   UNL     1       6.439  -0.408   0.894  0.00  0.00    +0.178 C 
ATOM      2  C   UNL     1       6.786  -1.881   0.808  0.00  0.00    +0.260 C 
ATOM      3  O   UNL     1       6.357  -2.688   0.006  0.00  0.00    -0.272 OA
ATOM      4  N   UNL     1       7.652  -2.110   1.785  0.00  0.00    -0.149 NA
ATOM      5  C   UNL     1       7.927  -1.022   2.496  0.00  0.00    +0.184 C 
ATOM      6  N   UNL     1       7.243   0.062   2.033  0.00  0.00    -0.261 N 
ATOM      7  C   UNL     1       7.566   1.169   2.805  0.00  0.00    +0.058 A 
ATOM      8  C   UNL     1       7.166   2.499   2.775  0.00  0.00    +0.025 A 
ATOM      9  C   UNL     1       7.673   3.391   3.698  0.00  0.00    +0.002 A 
ATOM     10  C   UNL     1       8.579   2.966   4.655  0.00  0.00    +0.002 A 
ATOM     11  C   UNL     1       8.982   1.647   4.695  0.00  0.00    +0.025 A 
ATOM     12  C   UNL     1       8.479   0.741   3.771  0.00  0.00    +0.055 A 
ATOM     13  N   UNL     1       8.688  -0.626   3.561  0.00  0.00    -0.287 N 
ATOM     14  H   UNL     1       9.276  -1.197   4.080  0.00  0.00    +0.155 HD
ENDROOT
BRANCH   1  15
ATOM     15  C   UNL     1       4.947  -0.219   1.171  0.00  0.00    +0.128 C 
BRANCH  15  17
ATOM     16  N   UNL     1       2.824  -0.373  -0.089  0.00  0.00    -0.285 N 
ATOM     17  C   UNL     1       4.159  -0.558  -0.067  0.00  0.00    +0.219 C 
ATOM     18  O   UNL     1       4.725  -0.999  -1.045  0.00  0.00    -0.275 OA
ATOM     19  H   UNL     1       2.381   0.052   0.662  0.00  0.00    +0.155 HD
BRANCH  16  25
ATOM     20  C   UNL     1       0.856  -0.196  -1.478  0.00  0.00    -0.026 A 
ATOM     21  C   UNL     1       0.123  -0.610  -2.573  0.00  0.00    +0.005 A 
ATOM     22  C   UNL     1       0.602  -1.621  -3.385  0.00  0.00    +0.000 A 
ATOM     23  C   UNL     1       1.816  -2.222  -3.103  0.00  0.00    +0.002 A 
ATOM     24  C   UNL     1       2.553  -1.813  -2.009  0.00  0.00    +0.023 A 
ATOM     25  C   UNL     1       2.077  -0.793  -1.195  0.00  0.00    +0.037 A 
BRANCH  20  27
ATOM     26  C   UNL     1       0.925   2.244  -1.043  0.00  0.00    +0.009 C 
ATOM     27  C   UNL     1       0.333   0.907  -0.594  0.00  0.00    +0.033 C 
ENDBRANCH  20  27
ENDBRANCH  16  25
ENDBRANCH  15  17
ENDBRANCH   1  15
TORSDOF 4
