REMARK  Name = ZINC41354394
REMARK  8 active torsions:
REMARK  status: ('A' for Active; 'I' for Inactive)
REMARK    1  A    between atoms: C_1  and  C_2
REMARK    2  A    between atoms: C_2  and  O_3
REMARK    3  A    between atoms: O_3  and  C_4
REMARK    4  A    between atoms: C_9  and  C_10
REMARK    5  A    between atoms: C_12  and  O_13
REMARK    6  A    between atoms: C_22  and  C_24
REMARK    7  A    between atoms: C_30  and  O_33
REMARK    8  A    between atoms: O_33  and  C_34
REMARK                            x       y       z     vdW  Elec       q    Type
REMARK                         _______ _______ _______ _____ _____    ______ ____
ROOT
ATOM      1  C   UNL     1       1.452  -1.888  -3.887  0.00  0.00    +0.143 A 
ATOM      2  C   UNL     1       1.038  -0.571  -3.822  0.00  0.00    +0.093 A 
ATOM      3  C   UNL     1       1.540   0.359  -4.732  0.00  0.00    +0.131 A 
ATOM      4  C   UNL     1       2.471  -0.086  -5.705  0.00  0.00    +0.059 A 
ATOM      5  C   UNL     1       3.009   0.807  -6.645  0.00  0.00    +0.017 A 
ATOM      6  C   UNL     1       3.900   0.364  -7.570  0.00  0.00    +0.024 A 
ATOM      7  C   UNL     1       4.288  -0.988  -7.593  0.00  0.00    +0.037 A 
ATOM      8  C   UNL     1       3.760  -1.888  -6.663  0.00  0.00    +0.070 A 
ATOM      9  C   UNL     1       2.853  -1.445  -5.718  0.00  0.00    +0.141 A 
ATOM     10  O   UNL     1       2.338  -2.299  -4.808  0.00  0.00    -0.454 OA
ATOM     11  N   UNL     1       5.178  -1.421  -8.522  0.00  0.00    -0.279 N 
ATOM     12  C   UNL     1       5.768  -2.603  -8.378  0.00  0.00    +0.284 C 
ATOM     13  O   UNL     1       5.604  -3.246  -7.351  0.00  0.00    -0.266 OA
ATOM     14  H   UNL     1       5.384  -0.867  -9.291  0.00  0.00    +0.155 HD
ENDROOT
BRANCH  12  15
ATOM     15  C   UNL     1       6.619  -3.139  -9.456  0.00  0.00    +0.191 A 
ATOM     16  C   UNL     1       7.263  -4.332  -9.421  0.00  0.00    +0.063 A 
ATOM     17  C   UNL     1       7.978  -4.445 -10.694  0.00  0.00    +0.025 A 
ATOM     18  C   UNL     1       8.808  -5.415 -11.262  0.00  0.00    +0.012 A 
ATOM     19  C   UNL     1       9.335  -5.214 -12.506  0.00  0.00    +0.004 A 
ATOM     20  C   UNL     1       9.052  -4.053 -13.212  0.00  0.00    +0.049 A 
ATOM     21  C   UNL     1       8.233  -3.080 -12.669  0.00  0.00    +0.163 A 
ATOM     22  C   UNL     1       7.685  -3.265 -11.400  0.00  0.00    +0.177 A 
ATOM     23  O   UNL     1       6.869  -2.520 -10.628  0.00  0.00    -0.447 OA
BRANCH  21  24
ATOM     24  O   UNL     1       7.963  -1.947 -13.370  0.00  0.00    -0.491 OA
ATOM     25  C   UNL     1       8.559  -1.826 -14.663  0.00  0.00    +0.277 C 
ENDBRANCH  21  24
ENDBRANCH  12  15
BRANCH   1  31
ATOM     26  C   UNL     1       1.216  -4.224  -3.051  0.00  0.00    +0.131 A 
ATOM     27  C   UNL     1       0.709  -5.130  -2.131  0.00  0.00    +0.046 A 
ATOM     28  C   UNL     1      -0.094  -4.690  -1.097  0.00  0.00    +0.004 A 
ATOM     29  C   UNL     1      -0.399  -3.345  -0.968  0.00  0.00    +0.001 A 
ATOM     30  C   UNL     1       0.097  -2.430  -1.871  0.00  0.00    +0.015 A 
ATOM     31  C   UNL     1       0.915  -2.860  -2.921  0.00  0.00    +0.059 A 
BRANCH  26  32
ATOM     32  O   UNL     1       2.004  -4.654  -4.068  0.00  0.00    -0.492 OA
BRANCH  32  34
ATOM     33  C   UNL     1       3.166  -6.350  -5.338  0.00  0.00    +0.048 C 
ATOM     34  C   UNL     1       2.267  -6.057  -4.136  0.00  0.00    +0.226 C 
ENDBRANCH  32  34
ENDBRANCH  26  32
ENDBRANCH   1  31
BRANCH   3  35
ATOM     35  O   UNL     1       1.150   1.651  -4.687  0.00  0.00    -0.506 OA
ATOM     36  H   UNL     1       0.514   1.846  -3.986  0.00  0.00    +0.292 HD
ENDBRANCH   3  35
TORSDOF 6
