REMARK  Name = ZINC15553622
REMARK  8 active torsions:
REMARK  status: ('A' for Active; 'I' for Inactive)
REMARK    1  A    between atoms: N_8  and  C_10
REMARK    2  A    between atoms: C_12  and  C_31
REMARK    3  A    between atoms: C_15  and  O_16
REMARK    4  A    between atoms: O_16  and  C_17
REMARK    5  A    between atoms: C_17  and  C_18
REMARK    6  A    between atoms: N_20  and  C_21
REMARK    7  A    between atoms: C_31  and  C_32
REMARK    8  A    between atoms: C_32  and  O_33
REMARK                            x       y       z     vdW  Elec       q    Type
REMARK                         _______ _______ _______ _____ _____    ______ ____
ROOT
ATOM      1  C   UNL     1       1.683   1.380   4.169  0.00  0.00    +0.128 A 
ATOM      2  C   UNL     1       1.011   1.839   3.045  0.00  0.00    +0.037 A 
ATOM      3  C   UNL     1       0.000   1.080   2.488  0.00  0.00    -0.043 A 
ATOM      4  C   UNL     1      -0.349  -0.134   3.051  0.00  0.00    +0.007 A 
ATOM      5  C   UNL     1       0.319  -0.600   4.167  0.00  0.00    +0.048 A 
ATOM      6  C   UNL     1       1.335   0.154   4.733  0.00  0.00    +0.148 A 
ENDROOT
BRANCH   1  14
ATOM      7  C   UNL     1       5.823   5.035   6.017  0.00  0.00    +0.002 A 
ATOM      8  C   UNL     1       6.012   4.059   6.996  0.00  0.00    +0.002 A 
ATOM      9  C   UNL     1       5.262   2.927   7.030  0.00  0.00    +0.032 A 
ATOM     10  C   UNL     1       4.269   2.725   6.057  0.00  0.00    +0.113 A 
ATOM     11  C   UNL     1       4.069   3.753   5.025  0.00  0.00    +0.113 A 
ATOM     12  C   UNL     1       4.880   4.901   5.048  0.00  0.00    +0.032 A 
ATOM     13  N   UNL     1       3.086   3.288   4.271  0.00  0.00    -0.147 NA
ATOM     14  N   UNL     1       2.709   2.147   4.735  0.00  0.00    -0.146 N 
ATOM     15  N   UNL     1       3.373   1.791   5.779  0.00  0.00    -0.147 NA
ENDBRANCH   1  14
BRANCH   6  16
ATOM     16  O   UNL     1       1.989  -0.300   5.834  0.00  0.00    -0.481 OA
BRANCH  16  17
ATOM     17  C   UNL     1       1.578  -1.564   6.357  0.00  0.00    +0.324 C 
BRANCH  17  18
ATOM     18  C   UNL     1       2.410  -1.901   7.568  0.00  0.00    +0.251 C 
ATOM     19  O   UNL     1       3.269  -1.134   7.946  0.00  0.00    -0.272 OA
ATOM     20  N   UNL     1       2.198  -3.055   8.231  0.00  0.00    -0.307 N 
ATOM     21  H   UNL     1       1.510  -3.669   7.929  0.00  0.00    +0.149 HD
BRANCH  20  22
ATOM     22  C   UNL     1       3.006  -3.383   9.408  0.00  0.00    +0.035 C 
ATOM     23  C   UNL     1       4.482  -3.450   9.011  0.00  0.00    +0.029 C 
ATOM     24  C   UNL     1       5.326  -3.792  10.241  0.00  0.00    -0.008 C 
ATOM     25  C   UNL     1       4.886  -5.146  10.801  0.00  0.00    +0.007 C 
ATOM     26  C   UNL     1       3.410  -5.079  11.198  0.00  0.00    -0.008 C 
ATOM     27  C   UNL     1       2.566  -4.737   9.968  0.00  0.00    +0.029 C 
ATOM     28  C   UNL     1       3.218  -3.999  12.265  0.00  0.00    +0.007 C 
ATOM     29  C   UNL     1       3.658  -2.645  11.705  0.00  0.00    -0.008 C 
ATOM     30  C   UNL     1       5.134  -2.712  11.307  0.00  0.00    +0.007 C 
ATOM     31  C   UNL     1       2.814  -2.303  10.475  0.00  0.00    +0.029 C 
ENDBRANCH  20  22
ENDBRANCH  17  18
ENDBRANCH  16  17
ENDBRANCH   6  16
BRANCH   3  32
ATOM     32  C   UNL     1      -0.729   1.579   1.267  0.00  0.00    +0.063 C 
BRANCH  32  33
ATOM     33  C   UNL     1      -0.013   1.086   0.008  0.00  0.00    +0.160 C 
BRANCH  33  34
ATOM     34  O   UNL     1      -0.704   1.559  -1.150  0.00  0.00    -0.395 OA
ATOM     35  H   UNL     1      -0.304   1.284  -1.986  0.00  0.00    +0.209 HD
ENDBRANCH  33  34
ENDBRANCH  32  33
ENDBRANCH   3  32
TORSDOF 8
