REMARK  Name = ZINC40428611
REMARK  5 active torsions:
REMARK  status: ('A' for Active; 'I' for Inactive)
REMARK    1  A    between atoms: C_6  and  N_7
REMARK    2  A    between atoms: C_8  and  O_20
REMARK    3  A    between atoms: C_10  and  C_12
REMARK    4  A    between atoms: O_20  and  C_21
REMARK    5  A    between atoms: C_22  and  N_28
REMARK                            x       y       z     vdW  Elec       q    Type
REMARK                         _______ _______ _______ _____ _____    ______ ____
ROOT
ATOM      1  N   UNL     1      -1.206  -0.722   0.008  0.00  0.00    -0.199 N 
ATOM      2  C   UNL     1      -1.456  -1.867  -0.682  0.00  0.00    +0.226 A 
ATOM      3  C   UNL     1      -2.712  -2.275  -0.366  0.00  0.00    +0.098 A 
ATOM      4  C   UNL     1      -3.248  -1.347   0.549  0.00  0.00    +0.100 A 
ATOM      5  N   UNL     1      -2.339  -0.421   0.774  0.00  0.00    -0.163 NA
ENDROOT
BRANCH   1  11
ATOM      6  C   UNL     1      -0.071   1.411  -0.043  0.00  0.00    +0.031 A 
ATOM      7  C   UNL     1       1.098   2.146  -0.086  0.00  0.00    +0.043 A 
ATOM      8  C   UNL     1       2.322   1.500  -0.121  0.00  0.00    +0.159 A 
ATOM      9  C   UNL     1       2.376   0.113  -0.113  0.00  0.00    +0.160 A 
ATOM     10  C   UNL     1       1.208  -0.624  -0.070  0.00  0.00    +0.069 A 
ATOM     11  C   UNL     1      -0.020   0.024  -0.035  0.00  0.00    +0.072 A 
ATOM     12  F   UNL     1       3.571  -0.516  -0.147  0.00  0.00    -0.202 F 
ATOM     13  F   UNL     1       3.464   2.220  -0.163  0.00  0.00    -0.202 F 
ENDBRANCH   1  11
BRANCH   4  14
ATOM     14  C   UNL     1      -4.599  -1.407   1.157  0.00  0.00    +0.038 A 
ATOM     15  C   UNL     1      -5.463  -2.454   0.840  0.00  0.00    +0.016 A 
ATOM     16  C   UNL     1      -6.719  -2.506   1.408  0.00  0.00    +0.039 A 
ATOM     17  C   UNL     1      -7.124  -1.520   2.294  0.00  0.00    +0.126 A 
ATOM     18  C   UNL     1      -6.271  -0.476   2.613  0.00  0.00    +0.077 A 
ATOM     19  C   UNL     1      -5.008  -0.419   2.054  0.00  0.00    +0.135 A 
ATOM     20  F   UNL     1      -4.173   0.595   2.369  0.00  0.00    -0.205 F 
ATOM     21  F   UNL     1      -8.355  -1.575   2.847  0.00  0.00    -0.205 F 
ENDBRANCH   4  14
BRANCH   2  22
ATOM     22  O   UNL     1      -0.603  -2.491  -1.534  0.00  0.00    -0.418 OA
BRANCH  22  23
ATOM     23  C   UNL     1      -1.069  -3.554  -2.237  0.00  0.00    +0.248 A 
ATOM     24  C   UNL     1      -0.204  -4.315  -3.031  0.00  0.00    +0.125 A 
ATOM     25  C   UNL     1      -0.733  -5.394  -3.730  0.00  0.00    +0.157 A 
ATOM     26  N   UNL     1      -2.027  -5.660  -3.620  0.00  0.00    -0.222 NA
ATOM     27  C   UNL     1      -2.810  -4.921  -2.862  0.00  0.00    +0.226 A 
ATOM     28  N   UNL     1      -2.351  -3.892  -2.178  0.00  0.00    -0.199 NA
ATOM     29 CL   UNL     1       0.287  -6.377  -4.732  0.00  0.00    -0.060 Cl
BRANCH  24  30
ATOM     30  N   UNL     1       1.157  -3.998  -3.119  0.00  0.00    -0.351 N 
ATOM     31  H   UNL     1       1.512  -3.242  -2.626  0.00  0.00    +0.143 HD
ATOM     32  H   UNL     1       1.745  -4.535  -3.674  0.00  0.00    +0.143 HD
ENDBRANCH  24  30
ENDBRANCH  22  23
ENDBRANCH   2  22
TORSDOF 5
