REMARK  Name = ZINC39561041
REMARK  7 active torsions:
REMARK  status: ('A' for Active; 'I' for Inactive)
REMARK    1  A    between atoms: C_6  and  C_26
REMARK    2  A    between atoms: C_7  and  N_9
REMARK    3  A    between atoms: C_10  and  C_12
REMARK    4  A    between atoms: C_12  and  O_13
REMARK    5  A    between atoms: O_13  and  C_14
REMARK    6  A    between atoms: C_14  and  C_16
REMARK    7  A    between atoms: C_18  and  N_24
REMARK                            x       y       z     vdW  Elec       q    Type
REMARK                         _______ _______ _______ _____ _____    ______ ____
ROOT
ATOM      1  C   UNL     1       3.069  -4.689   5.102  0.00  0.00    +0.328 C 
ENDROOT
BRANCH   1   3
ATOM      2  N   UNL     1       1.958  -3.300   3.383  0.00  0.00    -0.276 N 
ATOM      3  C   UNL     1       2.879  -3.390   4.363  0.00  0.00    +0.255 C 
ATOM      4  O   UNL     1       3.556  -2.425   4.649  0.00  0.00    -0.272 OA
ATOM      5  H   UNL     1       1.417  -4.072   3.154  0.00  0.00    +0.155 HD
BRANCH   2  12
ATOM      6  C   UNL     1      -0.019   1.526   0.010  0.00  0.00    +0.005 C 
ATOM      7  C   UNL     1       1.414   2.067  -0.000  0.00  0.00    +0.005 C 
ATOM      8  C   UNL     1       2.067   1.773   1.358  0.00  0.00    +0.043 C 
ATOM      9  C   UNL     1       1.810   0.338   1.702  0.00  0.00    -0.004 A 
ATOM     10  C   UNL     1       0.907  -0.485   1.127  0.00  0.00    -0.018 A 
ATOM     11  C   UNL     1       0.893  -1.829   1.677  0.00  0.00    +0.084 A 
ATOM     12  C   UNL     1       1.783  -2.103   2.702  0.00  0.00    +0.090 A 
ATOM     13  S   UNL     1       2.603  -0.656   2.932  0.00  0.00    -0.077 S 
ATOM     14  C   UNL     1       0.002  -0.004   0.002  0.00  0.00    +0.037 C 
BRANCH  11  15
ATOM     15  C   UNL     1      -0.004  -2.829   1.181  0.00  0.00    +0.102 C 
ATOM     16  N   UNL     1      -0.716  -3.622   0.788  0.00  0.00    -0.191 NA
ENDBRANCH  11  15
ENDBRANCH   2  12
ENDBRANCH   1   3
BRANCH   1  17
ATOM     17  O   UNL     1       4.095  -4.533   6.085  0.00  0.00    -0.451 OA
BRANCH  17  18
ATOM     18  C   UNL     1       4.389  -5.610   6.838  0.00  0.00    +0.360 C 
ATOM     19  O   UNL     1       3.792  -6.654   6.665  0.00  0.00    -0.243 OA
BRANCH  18  20
ATOM     20  C   UNL     1       5.440  -5.522   7.875  0.00  0.00    +0.169 A 
ATOM     21  C   UNL     1       5.743  -6.641   8.646  0.00  0.00    +0.095 A 
ATOM     22  C   UNL     1       6.738  -6.542   9.620  0.00  0.00    +0.067 A 
ATOM     23  C   UNL     1       7.388  -5.320   9.780  0.00  0.00    +0.100 A 
ATOM     24  C   UNL     1       7.029  -4.251   8.973  0.00  0.00    +0.150 A 
ATOM     25  N   UNL     1       6.090  -4.377   8.059  0.00  0.00    -0.226 NA
ATOM     26 CL   UNL     1       7.835  -2.725   9.166  0.00  0.00    -0.060 Cl
ATOM     27 CL   UNL     1       8.633  -5.137  10.976  0.00  0.00    -0.078 Cl
ATOM     28 CL   UNL     1       4.897  -8.137   8.400  0.00  0.00    -0.079 Cl
BRANCH  22  29
ATOM     29  N   UNL     1       7.072  -7.638  10.414  0.00  0.00    -0.356 N 
ATOM     30  H   UNL     1       6.611  -8.483  10.293  0.00  0.00    +0.142 HD
ATOM     31  H   UNL     1       7.765  -7.555  11.087  0.00  0.00    +0.142 HD
ENDBRANCH  22  29
ENDBRANCH  18  20
ENDBRANCH  17  18
ENDBRANCH   1  17
TORSDOF 7
