REMARK  Name = ZINC59170589
REMARK  8 active torsions:
REMARK  status: ('A' for Active; 'I' for Inactive)
REMARK    1  A    between atoms: C_1  and  C_2
REMARK    2  A    between atoms: C_2  and  O_3
REMARK    3  A    between atoms: O_3  and  C_4
REMARK    4  A    between atoms: C_8  and  N_10
REMARK    5  A    between atoms: C_11  and  C_13
REMARK    6  A    between atoms: N_27  and  C_28
REMARK    7  A    between atoms: C_31  and  S_34
REMARK    8  A    between atoms: S_34  and  N_37
REMARK                            x       y       z     vdW  Elec       q    Type
REMARK                         _______ _______ _______ _____ _____    ______ ____
ROOT
ATOM      1  C   UNL     1       3.177  -6.074  -4.928  0.00  0.00    +0.098 A 
ATOM      2  C   UNL     1       3.282  -7.449  -5.114  0.00  0.00    +0.030 A 
ATOM      3  C   UNL     1       4.015  -7.915  -6.226  0.00  0.00    +0.026 A 
ATOM      4  C   UNL     1       3.984  -9.330  -6.604  0.00  0.00    -0.007 A 
ATOM      5  C   UNL     1       3.251 -10.268  -5.873  0.00  0.00    +0.009 A 
ATOM      6  C   UNL     1       3.250 -11.576  -6.261  0.00  0.00    +0.001 A 
ATOM      7  C   UNL     1       3.972 -11.989  -7.377  0.00  0.00    +0.001 A 
ATOM      8  C   UNL     1       4.697 -11.099  -8.111  0.00  0.00    +0.008 A 
ATOM      9  C   UNL     1       4.719  -9.745  -7.740  0.00  0.00    -0.017 A 
ATOM     10  C   UNL     1       5.457  -8.797  -8.475  0.00  0.00    +0.012 A 
ATOM     11  C   UNL     1       5.484  -7.491  -8.107  0.00  0.00    +0.047 A 
ATOM     12  C   UNL     1       4.783  -7.027  -6.991  0.00  0.00    +0.138 A 
ATOM     13  O   UNL     1       4.864  -5.723  -6.632  0.00  0.00    -0.439 OA
ATOM     14  C   UNL     1       3.813  -5.209  -5.941  0.00  0.00    +0.212 A 
ATOM     15  N   UNL     1       3.380  -3.985  -6.161  0.00  0.00    -0.325 N 
ATOM     16  H   UNL     1       2.563  -3.676  -5.738  0.00  0.00    +0.169 HD
ENDROOT
BRANCH  15  17
ATOM     17  C   UNL     1       4.081  -3.150  -6.985  0.00  0.00    +0.042 A 
ATOM     18  C   UNL     1       5.471  -3.061  -6.877  0.00  0.00    +0.027 A 
ATOM     19  C   UNL     1       6.172  -2.217  -7.712  0.00  0.00    +0.030 A 
ATOM     20  C   UNL     1       5.502  -1.459  -8.656  0.00  0.00    +0.105 A 
ATOM     21  C   UNL     1       4.126  -1.542  -8.770  0.00  0.00    +0.030 A 
ATOM     22  C   UNL     1       3.412  -2.386  -7.945  0.00  0.00    +0.027 A 
BRANCH  20  23
ATOM     23  S   UNL     1       6.406  -0.383  -9.719  0.00  0.00    +0.056 S 
ATOM     24  O   UNL     1       5.498   0.623 -10.147  0.00  0.00    -0.153 OA
ATOM     25  O   UNL     1       7.621  -0.077  -9.049  0.00  0.00    -0.153 OA
BRANCH  23  26
ATOM     26  N   UNL     1       6.815  -1.255 -11.066  0.00  0.00    -0.204 NA
ATOM     27  H   UNL     1       6.548  -2.184 -11.142  0.00  0.00    +0.144 HD
ATOM     28  H   UNL     1       7.322  -0.836 -11.780  0.00  0.00    +0.144 HD
ENDBRANCH  23  26
ENDBRANCH  20  23
ENDBRANCH  15  17
BRANCH   1  30
ATOM     29  N   UNL     1       2.491  -4.180  -3.548  0.00  0.00    -0.281 N 
ATOM     30  C   UNL     1       2.457  -5.508  -3.777  0.00  0.00    +0.253 C 
ATOM     31  O   UNL     1       1.831  -6.238  -3.032  0.00  0.00    -0.270 OA
ATOM     32  H   UNL     1       2.944  -3.591  -4.172  0.00  0.00    +0.155 HD
BRANCH  29  37
ATOM     33  C   UNL     1       1.813  -2.034  -0.637  0.00  0.00    +0.122 A 
ATOM     34  C   UNL     1       0.643  -2.607  -0.158  0.00  0.00    +0.046 A 
ATOM     35  C   UNL     1       0.092  -3.698  -0.803  0.00  0.00    +0.005 A 
ATOM     36  C   UNL     1       0.702  -4.221  -1.927  0.00  0.00    +0.023 A 
ATOM     37  C   UNL     1       1.873  -3.651  -2.411  0.00  0.00    +0.037 A 
ATOM     38  C   UNL     1       2.425  -2.552  -1.768  0.00  0.00    +0.069 A 
BRANCH  33  39
ATOM     39  O   UNL     1       2.354  -0.961  -0.003  0.00  0.00    -0.492 OA
BRANCH  39  41
ATOM     40  C   UNL     1       2.421   0.723   1.730  0.00  0.00    +0.048 C 
ATOM     41  C   UNL     1       1.669  -0.479   1.156  0.00  0.00    +0.225 C 
ENDBRANCH  39  41
ENDBRANCH  33  39
ENDBRANCH  29  37
ENDBRANCH   1  30
TORSDOF 7
