REMARK  Name = ZINC08382548
REMARK  8 active torsions:
REMARK  status: ('A' for Active; 'I' for Inactive)
REMARK    1  A    between atoms: C_3  and  C_6
REMARK    2  A    between atoms: C_10  and  C_21
REMARK    3  A    between atoms: C_11  and  O_20
REMARK    4  A    between atoms: C_15  and  N_19
REMARK    5  A    between atoms: C_16  and  C_17
REMARK    6  A    between atoms: N_22  and  C_23
REMARK    7  A    between atoms: C_26  and  S_29
REMARK    8  A    between atoms: S_29  and  N_32
REMARK                            x       y       z     vdW  Elec       q    Type
REMARK                         _______ _______ _______ _____ _____    ______ ____
ROOT
ATOM      1  C   UNL     1      -1.208  -0.902   0.009  0.00  0.00    +0.134 C 
ATOM      2  C   UNL     1      -1.208  -1.750  -1.235  0.00  0.00    +0.011 A 
ATOM      3  C   UNL     1      -1.586  -1.187  -2.435  0.00  0.00    +0.021 A 
ATOM      4  C   UNL     1      -1.593  -1.959  -3.601  0.00  0.00    +0.035 A 
ATOM      5  C   UNL     1      -1.212  -3.310  -3.542  0.00  0.00    +0.129 A 
ATOM      6  C   UNL     1      -0.835  -3.863  -2.332  0.00  0.00    +0.092 A 
ATOM      7  C   UNL     1      -0.832  -3.087  -1.178  0.00  0.00    +0.138 A 
ATOM      8  O   UNL     1      -0.460  -3.652  -0.004  0.00  0.00    -0.441 OA
ATOM      9  C   UNL     1      -0.807  -3.076   1.159  0.00  0.00    +0.199 C 
ATOM     10  C   UNL     1      -1.173  -1.774   1.232  0.00  0.00    +0.101 C 
ENDROOT
BRANCH   1  13
ATOM     11  C   UNL     1       1.331   1.769  -0.001  0.00  0.00    +0.041 A 
ATOM     12  C   UNL     1      -0.016   1.341   0.009  0.00  0.00    +0.045 A 
ATOM     13  C   UNL     1       0.002  -0.004   0.002  0.00  0.00    +0.117 A 
ATOM     14  O   UNL     1       1.282  -0.411  -0.012  0.00  0.00    -0.467 OA
ATOM     15  C   UNL     1       2.092   0.660  -0.014  0.00  0.00    +0.195 A 
ENDBRANCH   1  13
BRANCH   9  16
ATOM     16  N   UNL     1      -0.791  -3.829   2.306  0.00  0.00    -0.328 N 
ATOM     17  H   UNL     1      -1.040  -3.427   3.153  0.00  0.00    +0.145 HD
ATOM     18  H   UNL     1      -0.532  -4.763   2.270  0.00  0.00    +0.145 HD
ENDBRANCH   9  16
BRANCH  10  19
ATOM     19  C   UNL     1      -1.534  -1.218   2.502  0.00  0.00    +0.101 C 
ATOM     20  N   UNL     1      -1.820  -0.777   3.509  0.00  0.00    -0.191 NA
ENDBRANCH  10  19
BRANCH   5  21
ATOM     21  O   UNL     1      -1.214  -4.069  -4.667  0.00  0.00    -0.506 OA
ATOM     22  H   UNL     1      -2.053  -4.519  -4.836  0.00  0.00    +0.292 HD
ENDBRANCH   5  21
BRANCH   4  23
ATOM     23  C   UNL     1      -1.996  -1.361  -4.881  0.00  0.00    +0.123 C 
ATOM     24  N   UNL     1      -2.002  -2.085  -5.966  0.00  0.00    -0.255 NA
BRANCH  24  25
ATOM     25  C   UNL     1      -2.377  -1.528  -7.158  0.00  0.00    +0.064 A 
ATOM     26  C   UNL     1      -3.515  -0.721  -7.228  0.00  0.00    +0.029 A 
ATOM     27  C   UNL     1      -3.885  -0.158  -8.432  0.00  0.00    +0.030 A 
ATOM     28  C   UNL     1      -3.138  -0.400  -9.571  0.00  0.00    +0.105 A 
ATOM     29  C   UNL     1      -2.013  -1.203  -9.510  0.00  0.00    +0.030 A 
ATOM     30  C   UNL     1      -1.628  -1.768  -8.312  0.00  0.00    +0.029 A 
BRANCH  28  31
ATOM     31  S   UNL     1      -3.621   0.318 -11.106  0.00  0.00    +0.056 S 
ATOM     32  O   UNL     1      -4.394   1.468 -10.791  0.00  0.00    -0.153 OA
ATOM     33  O   UNL     1      -2.452   0.383 -11.910  0.00  0.00    -0.153 OA
BRANCH  31  34
ATOM     34  N   UNL     1      -4.646  -0.753 -11.845  0.00  0.00    -0.204 NA
ATOM     35  H   UNL     1      -4.865  -1.593 -11.412  0.00  0.00    +0.144 HD
ATOM     36  H   UNL     1      -5.026  -0.540 -12.712  0.00  0.00    +0.144 HD
ENDBRANCH  31  34
ENDBRANCH  28  31
ENDBRANCH  24  25
ENDBRANCH   4  23
TORSDOF 8
