REMARK  Name = ZINC39796047
REMARK  10 active torsions:
REMARK  status: ('A' for Active; 'I' for Inactive)
REMARK    1  A    between atoms: C_1  and  C_2
REMARK    2  A    between atoms: C_2  and  O_3
REMARK    3  A    between atoms: O_3  and  C_4
REMARK    4  A    between atoms: C_7  and  C_10
REMARK    5  A    between atoms: N_12  and  C_13
REMARK    6  A    between atoms: C_13  and  C_15
REMARK    7  A    between atoms: C_13  and  C_18
REMARK    8  A    between atoms: C_15  and  C_16
REMARK    9  A    between atoms: C_15  and  C_17
REMARK   10  A    between atoms: C_23  and  C_26
REMARK                            x       y       z     vdW  Elec       q    Type
REMARK                         _______ _______ _______ _____ _____    ______ ____
ROOT
ATOM      1  C   UNL     1       2.078  -8.277   4.652  0.00  0.00    +0.236 C 
ATOM      2  O   UNL     1       2.270  -7.488   5.553  0.00  0.00    -0.274 OA
ATOM      3  N   UNL     1       2.184  -9.601   4.880  0.00  0.00    -0.296 N 
ATOM      4  C   UNL     1       2.526 -10.122   6.215  0.00  0.00    +0.113 C 
ATOM      5  C   UNL     1       1.347 -10.960   6.713  0.00  0.00    +0.054 C 
ATOM      6  C   UNL     1       0.864 -11.879   5.629  0.00  0.00    -0.043 C 
ATOM      7  C   UNL     1       1.128 -11.713   4.338  0.00  0.00    -0.004 C 
ATOM      8  C   UNL     1       1.958 -10.581   3.809  0.00  0.00    +0.135 C 
ENDROOT
BRANCH   6   9
ATOM      9  C   UNL     1       0.082 -12.990   6.005  0.00  0.00    -0.016 C 
ATOM     10  C   UNL     1      -0.404 -13.284   7.273  0.00  0.00    +0.003 A 
ATOM     11  C   UNL     1      -0.288 -12.622   8.518  0.00  0.00    +0.010 A 
ATOM     12  C   UNL     1      -0.880 -13.151   9.617  0.00  0.00    +0.001 A 
ATOM     13  C   UNL     1      -1.609 -14.343   9.557  0.00  0.00    +0.002 A 
ATOM     14  C   UNL     1      -1.762 -15.030   8.400  0.00  0.00    +0.026 A 
ATOM     15  C   UNL     1      -1.171 -14.541   7.204  0.00  0.00    +0.043 A 
ATOM     16  N   UNL     1      -1.172 -15.012   5.976  0.00  0.00    -0.380 N 
ATOM     17  C   UNL     1      -0.409 -14.107   5.111  0.00  0.00    +0.149 C 
ATOM     18  H   UNL     1      -1.612 -15.828   5.688  0.00  0.00    +0.160 HD
ENDBRANCH   6   9
BRANCH   1  19
ATOM     19  C   UNL     1       1.720  -7.776   3.276  0.00  0.00    +0.162 C 
BRANCH  19  22
ATOM     20  C   UNL     1       0.911  -5.658   2.384  0.00  0.00    +0.245 C 
ATOM     21  O   UNL     1       0.274  -6.283   1.558  0.00  0.00    -0.270 OA
ATOM     22  N   UNL     1       1.667  -6.312   3.288  0.00  0.00    -0.300 N 
ATOM     23  H   UNL     1       2.176  -5.814   3.946  0.00  0.00    +0.150 HD
BRANCH  20  27
ATOM     24  C   UNL     1       0.757  -1.414   2.418  0.00  0.00    +0.121 A 
ATOM     25  C   UNL     1       0.028  -2.127   1.473  0.00  0.00    +0.046 A 
ATOM     26  C   UNL     1       0.075  -3.503   1.459  0.00  0.00    +0.016 A 
ATOM     27  C   UNL     1       0.858  -4.183   2.395  0.00  0.00    +0.037 A 
ATOM     28  C   UNL     1       1.590  -3.463   3.343  0.00  0.00    +0.016 A 
ATOM     29  C   UNL     1       1.542  -2.087   3.348  0.00  0.00    +0.046 A 
BRANCH  24  30
ATOM     30  O   UNL     1       0.708  -0.058   2.429  0.00  0.00    -0.492 OA
BRANCH  30  32
ATOM     31  C   UNL     1      -0.046   2.088   1.613  0.00  0.00    +0.048 C 
ATOM     32  C   UNL     1      -0.118   0.569   1.446  0.00  0.00    +0.225 C 
ENDBRANCH  30  32
ENDBRANCH  24  30
ENDBRANCH  20  27
ENDBRANCH  19  22
BRANCH  19  33
ATOM     33  C   UNL     1       2.778  -8.241   2.273  0.00  0.00    +0.012 C 
ATOM     34  C   UNL     1       2.415  -7.732   0.876  0.00  0.00    +0.009 C 
ATOM     35  C   UNL     1       4.144  -7.684   2.679  0.00  0.00    +0.009 C 
ENDBRANCH  19  33
ENDBRANCH   1  19
TORSDOF 7
