REMARK  Name = ZINC11096313
REMARK  16 active torsions:
REMARK  status: ('A' for Active; 'I' for Inactive)
REMARK    1  A    between atoms: C_1  and  C_2
REMARK    2  A    between atoms: C_3  and  N_15
REMARK    3  A    between atoms: N_6  and  C_9
REMARK    4  A    between atoms: N_7  and  C_8
REMARK    5  A    between atoms: C_16  and  C_18
REMARK    6  A    between atoms: C_18  and  C_20
REMARK    7  A    between atoms: C_18  and  N_71
REMARK    8  A    between atoms: C_21  and  C_23
REMARK    9  A    between atoms: C_21  and  C_33
REMARK   10  A    between atoms: C_21  and  N_71
REMARK   11  A    between atoms: C_26  and  C_29
REMARK   12  A    between atoms: C_29  and  C_30
REMARK   13  A    between atoms: C_29  and  C_31
REMARK   14  A    between atoms: C_29  and  C_32
REMARK   15  A    between atoms: C_33  and  C_34
REMARK   16  A    between atoms: C_33  and  C_35
REMARK                            x       y       z     vdW  Elec       q    Type
REMARK                         _______ _______ _______ _____ _____    ______ ____
ROOT
ATOM      1  C   UNL     1      -3.145   6.314  -0.124  0.00  0.00    +0.014 C 
ATOM      2  C   UNL     1      -2.707   7.104   1.110  0.00  0.00    -0.004 C 
ENDROOT
BRANCH   1   4
ATOM      3  N   UNL     1      -1.308   4.667   0.059  0.00  0.00    -0.281 N 
ATOM      4  C   UNL     1      -2.633   4.900  -0.023  0.00  0.00    +0.203 C 
ATOM      5  O   UNL     1      -3.414   3.971  -0.016  0.00  0.00    -0.277 OA
ATOM      6  H   UNL     1      -0.680   5.402  -0.023  0.00  0.00    +0.155 HD
BRANCH   3   9
ATOM      7  C   UNL     1       0.508   3.809   2.379  0.00  0.00    +0.067 C 
ATOM      8  C   UNL     1      -0.035   2.941   1.273  0.00  0.00    +0.059 A 
ATOM      9  C   UNL     1      -0.835   3.356   0.265  0.00  0.00    +0.121 A 
ATOM     10  C   UNL     1      -1.112   2.191  -0.576  0.00  0.00    +0.293 A 
ATOM     11  O   UNL     1      -1.794   2.171  -1.585  0.00  0.00    -0.264 OA
ATOM     12  N   UNL     1      -0.470   1.143  -0.019  0.00  0.00    -0.216 N 
ATOM     13  N   UNL     1       0.200   1.600   1.121  0.00  0.00    -0.282 N 
ATOM     14  C   UNL     1       1.022   0.776   2.010  0.00  0.00    +0.171 C 
BRANCH  12  15
ATOM     15  C   UNL     1      -0.469  -0.170  -0.501  0.00  0.00    +0.067 A 
ATOM     16  C   UNL     1      -1.667  -0.788  -0.839  0.00  0.00    +0.028 A 
ATOM     17  C   UNL     1      -1.662  -2.083  -1.320  0.00  0.00    +0.002 A 
ATOM     18  C   UNL     1      -0.468  -2.767  -1.456  0.00  0.00    +0.000 A 
ATOM     19  C   UNL     1       0.725  -2.157  -1.115  0.00  0.00    +0.002 A 
ATOM     20  C   UNL     1       0.728  -0.860  -0.639  0.00  0.00    +0.028 A 
ENDBRANCH  12  15
ENDBRANCH   3   9
ENDBRANCH   1   4
BRANCH   1  21
ATOM     21  N   UNL     1      -4.618   6.291  -0.197  0.00  0.00    +0.391 N 
ATOM     22  H   UNL     1      -5.004   6.310   0.754  0.00  0.00    -0.084 HD
ATOM     23  H   UNL     1      -4.921   5.433  -0.673  0.00  0.00    -0.084 HD
BRANCH  21  24
ATOM     24  C   UNL     1      -5.111   7.463  -0.946  0.00  0.00    -0.037 C 
BRANCH  24  25
ATOM     25  C   UNL     1      -5.330   8.611   0.005  0.00  0.00    -0.061 A 
ATOM     26  C   UNL     1      -5.875   8.380   1.254  0.00  0.00    +0.002 A 
ATOM     27  C   UNL     1      -6.071   9.432   2.128  0.00  0.00    +0.004 A 
ATOM     28  C   UNL     1      -5.732  10.718   1.749  0.00  0.00    -0.042 A 
ATOM     29  C   UNL     1      -5.192  10.950   0.498  0.00  0.00    +0.004 A 
ATOM     30  C   UNL     1      -4.991   9.896  -0.374  0.00  0.00    +0.002 A 
BRANCH  28  31
ATOM     31  C   UNL     1      -5.952  11.867   2.700  0.00  0.00    -0.013 C 
ATOM     32  C   UNL     1      -6.910  12.877   2.066  0.00  0.00    +0.015 C 
ATOM     33  C   UNL     1      -6.556  11.341   4.004  0.00  0.00    +0.015 C 
ATOM     34  C   UNL     1      -4.614  12.547   2.995  0.00  0.00    +0.015 C 
ENDBRANCH  28  31
ENDBRANCH  24  25
BRANCH  24  35
ATOM     35  C   UNL     1      -6.434   7.104  -1.625  0.00  0.00    -0.027 C 
ATOM     36  C   UNL     1      -6.188   6.031  -2.687  0.00  0.00    +0.006 C 
ATOM     37  C   UNL     1      -7.416   6.570  -0.580  0.00  0.00    +0.006 C 
ENDBRANCH  24  35
ENDBRANCH  21  24
ENDBRANCH   1  21
TORSDOF 8
