REMARK  Name = ZINC15959813
REMARK  8 active torsions:
REMARK  status: ('A' for Active; 'I' for Inactive)
REMARK    1  A    between atoms: C_1  and  C_2
REMARK    2  A    between atoms: C_4  and  C_40
REMARK    3  A    between atoms: C_13  and  C_16
REMARK    4  A    between atoms: C_16  and  C_17
REMARK    5  A    between atoms: C_20  and  O_23
REMARK    6  A    between atoms: N_26  and  C_29
REMARK    7  A    between atoms: C_29  and  C_30
REMARK    8  A    between atoms: C_30  and  C_31
REMARK                            x       y       z     vdW  Elec       q    Type
REMARK                         _______ _______ _______ _____ _____    ______ ____
ROOT
ATOM      1  C   UNL     1      -0.018   1.503   0.010  0.00  0.00    +0.044 C 
ATOM      2  C   UNL     1       0.002  -0.004   0.002  0.00  0.00    -0.050 A 
ATOM      3  C   UNL     1       0.006  -0.691  -1.199  0.00  0.00    +0.008 A 
ATOM      4  C   UNL     1       0.025  -2.070  -1.212  0.00  0.00    -0.029 A 
ATOM      5  C   UNL     1       0.039  -2.782  -0.015  0.00  0.00    +0.042 A 
ATOM      6  C   UNL     1       0.035  -2.081   1.187  0.00  0.00    +0.004 A 
ATOM      7  C   UNL     1       0.023  -0.704   1.195  0.00  0.00    +0.011 A 
ATOM      8  C   UNL     1       0.053  -3.122   2.269  0.00  0.00    +0.136 C 
ATOM      9  C   UNL     1       1.277  -2.969   3.181  0.00  0.00    +0.122 C 
ATOM     10  C   UNL     1       0.763  -3.364   4.594  0.00  0.00    +0.107 C 
ATOM     11  C   UNL     1      -0.718  -3.743   4.386  0.00  0.00    +0.072 C 
ATOM     12  N   UNL     1      -1.124  -3.008   3.151  0.00  0.00    -0.295 NA
ATOM     13  C   UNL     1       0.858  -2.072   5.373  0.00  0.00    +0.227 C 
ATOM     14  O   UNL     1       0.543  -1.931   6.535  0.00  0.00    -0.275 OA
ATOM     15  N   UNL     1       1.345  -1.110   4.581  0.00  0.00    -0.241 N 
ATOM     16  C   UNL     1       1.628  -1.504   3.318  0.00  0.00    +0.228 C 
ATOM     17  O   UNL     1       2.084  -0.808   2.438  0.00  0.00    -0.275 OA
ATOM     18  C   UNL     1       0.069  -4.440   1.545  0.00  0.00    +0.243 C 
ATOM     19  O   UNL     1       0.089  -5.543   2.048  0.00  0.00    -0.273 OA
ATOM     20  N   UNL     1       0.059  -4.157   0.228  0.00  0.00    -0.283 N 
ATOM     21  C   UNL     1       0.028  -2.808  -2.526  0.00  0.00    +0.045 C 
ATOM     22  H   UNL     1      -1.336  -2.042   3.347  0.00  0.00    +0.124 HD
ATOM     23  H   UNL     1       0.064  -4.830  -0.470  0.00  0.00    +0.155 HD
ENDROOT
BRANCH  11  24
ATOM     24  C   UNL     1      -1.560  -3.271   5.572  0.00  0.00    +0.054 C 
BRANCH  24  25
ATOM     25  C   UNL     1      -2.977  -3.757   5.408  0.00  0.00    -0.046 A 
ATOM     26  C   UNL     1      -3.900  -2.980   4.733  0.00  0.00    +0.007 A 
ATOM     27  C   UNL     1      -5.199  -3.423   4.581  0.00  0.00    +0.045 A 
ATOM     28  C   UNL     1      -5.578  -4.650   5.106  0.00  0.00    +0.117 A 
ATOM     29  C   UNL     1      -4.650  -5.428   5.783  0.00  0.00    +0.045 A 
ATOM     30  C   UNL     1      -3.351  -4.983   5.928  0.00  0.00    +0.007 A 
BRANCH  28  31
ATOM     31  O   UNL     1      -6.856  -5.088   4.959  0.00  0.00    -0.507 OA
ATOM     32  H   UNL     1      -7.003  -5.609   4.158  0.00  0.00    +0.292 HD
ENDBRANCH  28  31
ENDBRANCH  24  25
ENDBRANCH  11  24
BRANCH  15  33
ATOM     33  C   UNL     1       1.561   0.263   5.045  0.00  0.00    +0.121 C 
BRANCH  33  34
ATOM     34  C   UNL     1       2.978   0.394   5.607  0.00  0.00    +0.054 C 
BRANCH  34  35
ATOM     35  C   UNL     1       3.201   1.806   6.084  0.00  0.00    -0.046 A 
ATOM     36  C   UNL     1       3.701   2.758   5.215  0.00  0.00    +0.004 A 
ATOM     37  C   UNL     1       3.905   4.054   5.652  0.00  0.00    +0.000 A 
ATOM     38  C   UNL     1       3.609   4.397   6.958  0.00  0.00    +0.000 A 
ATOM     39  C   UNL     1       3.108   3.446   7.826  0.00  0.00    +0.000 A 
ATOM     40  C   UNL     1       2.900   2.151   7.388  0.00  0.00    +0.004 A 
ENDBRANCH  34  35
ENDBRANCH  33  34
ENDBRANCH  15  33
TORSDOF 6
