REMARK  Name = ZINC12928674
REMARK  9 active torsions:
REMARK  status: ('A' for Active; 'I' for Inactive)
REMARK    1  A    between atoms: C_4  and  O_27
REMARK    2  A    between atoms: C_5  and  C_7
REMARK    3  A    between atoms: C_7  and  N_8
REMARK    4  A    between atoms: C_9  and  C_11
REMARK    5  A    between atoms: C_11  and  N_56
REMARK    6  A    between atoms: C_14  and  C_17
REMARK    7  A    between atoms: N_19  and  C_20
REMARK    8  A    between atoms: C_25  and  O_26
REMARK    9  A    between atoms: O_27  and  C_28
REMARK                            x       y       z     vdW  Elec       q    Type
REMARK                         _______ _______ _______ _____ _____    ______ ____
ROOT
ATOM      1  C   UNL     1      -7.087   2.976   4.212  0.00  0.00    -0.077 C 
ATOM      2  C   UNL     1      -8.258   3.956   4.097  0.00  0.00    -0.006 C 
ATOM      3  C   UNL     1      -9.496   3.208   3.595  0.00  0.00    +0.072 C 
ATOM      4  C   UNL     1      -9.175   2.551   2.249  0.00  0.00    -0.006 C 
ATOM      5  C   UNL     1      -7.978   1.612   2.418  0.00  0.00    -0.077 C 
ATOM      6  N   UNL     1      -6.814   2.397   2.879  0.00  0.00    +0.385 N 
ATOM      7  H   UNL     1      -6.642   3.160   2.214  0.00  0.00    -0.081 HD
ENDROOT
BRANCH   3   8
ATOM      8  C   UNL     1     -10.635   4.179   3.423  0.00  0.00    +0.220 C 
ATOM      9  O   UNL     1     -11.142   4.332   2.331  0.00  0.00    -0.275 OA
ATOM     10  N   UNL     1     -11.091   4.878   4.481  0.00  0.00    -0.282 N 
ATOM     11  H   UNL     1     -10.730   4.709   5.365  0.00  0.00    +0.155 HD
BRANCH  10  12
ATOM     12  C   UNL     1     -12.087   5.848   4.304  0.00  0.00    +0.075 A 
ATOM     13  C   UNL     1     -13.080   5.660   3.354  0.00  0.00    +0.027 A 
ATOM     14  C   UNL     1     -14.061   6.618   3.181  0.00  0.00    +0.002 A 
ATOM     15  C   UNL     1     -14.055   7.765   3.953  0.00  0.00    +0.004 A 
ATOM     16  C   UNL     1     -13.069   7.959   4.902  0.00  0.00    +0.047 A 
ATOM     17  C   UNL     1     -12.085   7.001   5.085  0.00  0.00    +0.138 A 
BRANCH  17  18
ATOM     18  O   UNL     1     -11.117   7.188   6.022  0.00  0.00    -0.505 OA
ATOM     19  H   UNL     1     -10.334   7.649   5.692  0.00  0.00    +0.292 HD
ENDBRANCH  17  18
ENDBRANCH  10  12
ENDBRANCH   3   8
BRANCH   6  20
ATOM     20  C   UNL     1      -5.616   1.535   2.940  0.00  0.00    +0.019 C 
BRANCH  20  22
ATOM     21  N   UNL     1      -3.184   1.840   3.278  0.00  0.00    -0.313 N 
ATOM     22  C   UNL     1      -4.408   2.399   3.198  0.00  0.00    +0.197 C 
ATOM     23  O   UNL     1      -4.538   3.597   3.334  0.00  0.00    -0.278 OA
ATOM     24  H   UNL     1      -3.081   0.881   3.169  0.00  0.00    +0.149 HD
BRANCH  21  25
ATOM     25  C   UNL     1      -2.011   2.680   3.529  0.00  0.00    +0.143 C 
BRANCH  25  30
ATOM     26  C   UNL     1       0.897   0.650   4.826  0.00  0.00    +0.001 A 
ATOM     27  C   UNL     1       1.492   0.231   3.651  0.00  0.00    +0.004 A 
ATOM     28  C   UNL     1       0.953   0.599   2.433  0.00  0.00    +0.046 A 
ATOM     29  C   UNL     1      -0.180   1.398   2.390  0.00  0.00    +0.135 A 
ATOM     30  C   UNL     1      -0.776   1.817   3.571  0.00  0.00    +0.012 A 
ATOM     31  C   UNL     1      -0.236   1.442   4.787  0.00  0.00    +0.009 A 
BRANCH  29  32
ATOM     32  O   UNL     1      -0.710   1.765   1.194  0.00  0.00    -0.405 OA
BRANCH  32  33
ATOM     33  C   UNL     1      -0.044   1.297   0.019  0.00  0.00    +0.575 C 
ATOM     34  F   UNL     1      -0.037  -0.102   0.013  0.00  0.00    -0.133 F 
ATOM     35  F   UNL     1       1.272   1.771   0.009  0.00  0.00    -0.133 F 
ATOM     36  F   UNL     1      -0.717   1.765  -1.115  0.00  0.00    -0.133 F 
ENDBRANCH  32  33
ENDBRANCH  29  32
ENDBRANCH  25  30
ENDBRANCH  21  25
ENDBRANCH  20  22
ENDBRANCH   6  20
TORSDOF 9
