REMARK  Name = ZINC35851682
REMARK  4 active torsions:
REMARK  status: ('A' for Active; 'I' for Inactive)
REMARK    1  A    between atoms: C_8  and  C_27
REMARK    2  A    between atoms: C_10  and  C_18
REMARK    3  A    between atoms: C_21  and  N_24
REMARK    4  A    between atoms: C_27  and  C_29
REMARK                            x       y       z     vdW  Elec       q    Type
REMARK                         _______ _______ _______ _____ _____    ______ ____
ROOT
ATOM      1  C   UNL     1      -0.467   1.372   0.603  0.00  0.00    +0.000 A 
ATOM      2  C   UNL     1       0.621   2.200   0.809  0.00  0.00    +0.002 A 
ATOM      3  C   UNL     1       1.901   1.685   0.795  0.00  0.00    +0.023 A 
ATOM      4  C   UNL     1       2.106   0.325   0.574  0.00  0.00    +0.039 A 
ATOM      5  C   UNL     1       1.004  -0.498   0.365  0.00  0.00    +0.004 A 
ATOM      6  C   UNL     1      -0.271   0.020   0.380  0.00  0.00    +0.008 A 
ATOM      7  C   UNL     1       1.555  -1.882   0.156  0.00  0.00    +0.137 C 
ATOM      8  C   UNL     1       1.012  -2.860   1.204  0.00  0.00    +0.103 C 
ATOM      9  C   UNL     1       0.359  -4.000   0.382  0.00  0.00    +0.050 C 
ATOM     10  C   UNL     1       1.060  -3.868  -0.987  0.00  0.00    +0.077 C 
ATOM     11  N   UNL     1       1.192  -2.401  -1.178  0.00  0.00    -0.271 NA
ATOM     12  C   UNL     1      -0.123  -1.800  -1.557  0.00  0.00    +0.155 C 
ATOM     13  S   UNL     1      -0.813  -3.098  -2.665  0.00  0.00    -0.144 S 
ATOM     14  C   UNL     1       0.208  -4.519  -2.091  0.00  0.00    +0.090 C 
ATOM     15  C   UNL     1       3.048  -1.726   0.280  0.00  0.00    +0.243 C 
ATOM     16  O   UNL     1       3.877  -2.606   0.185  0.00  0.00    -0.273 OA
ATOM     17  N   UNL     1       3.284  -0.422   0.517  0.00  0.00    -0.283 N 
ATOM     18  H   UNL     1       4.170  -0.045   0.634  0.00  0.00    +0.155 HD
ENDROOT
BRANCH   9  19
ATOM     19  C   UNL     1       0.643  -5.341   1.006  0.00  0.00    -0.042 A 
ATOM     20  C   UNL     1       1.949  -5.768   1.163  0.00  0.00    +0.006 A 
ATOM     21  C   UNL     1       2.210  -6.999   1.736  0.00  0.00    +0.033 A 
ATOM     22  C   UNL     1       1.165  -7.802   2.153  0.00  0.00    +0.126 A 
ATOM     23  C   UNL     1      -0.140  -7.375   1.998  0.00  0.00    +0.033 A 
ATOM     24  C   UNL     1      -0.401  -6.142   1.429  0.00  0.00    +0.006 A 
BRANCH  22  25
ATOM     25  N   UNL     1       1.444  -9.120   2.766  0.00  0.00    +0.056 N 
ATOM     26  O   UNL     1       2.586  -9.494   2.901  0.00  0.00    -0.126 OA
ATOM     27  O   UNL     1       0.531  -9.823   3.131  0.00  0.00    -0.126 OA
ENDBRANCH  22  25
ENDBRANCH   9  19
BRANCH   8  28
ATOM     28  C   UNL     1       2.136  -3.398   2.051  0.00  0.00    +0.169 C 
ATOM     29  O   UNL     1       3.182  -3.728   1.533  0.00  0.00    -0.292 OA
BRANCH  28  30
ATOM     30  C   UNL     1       1.964  -3.525   3.506  0.00  0.00    +0.018 A 
ATOM     31  C   UNL     1       0.757  -3.152   4.106  0.00  0.00    +0.014 A 
ATOM     32  C   UNL     1       0.603  -3.273   5.470  0.00  0.00    +0.039 A 
ATOM     33  C   UNL     1       1.642  -3.763   6.247  0.00  0.00    +0.123 A 
ATOM     34  C   UNL     1       2.841  -4.135   5.659  0.00  0.00    +0.039 A 
ATOM     35  C   UNL     1       3.006  -4.025   4.295  0.00  0.00    +0.014 A 
ATOM     36  F   UNL     1       1.485  -3.879   7.584  0.00  0.00    -0.205 F 
ENDBRANCH  28  30
ENDBRANCH   8  28
TORSDOF 4
