REMARK  Name = ZINC11675486
REMARK  8 active torsions:
REMARK  status: ('A' for Active; 'I' for Inactive)
REMARK    1  A    between atoms: C_1  and  C_2
REMARK    2  A    between atoms: C_2  and  C_3
REMARK    3  A    between atoms: C_2  and  C_4
REMARK    4  A    between atoms: C_2  and  C_5
REMARK    5  A    between atoms: C_8  and  O_28
REMARK    6  A    between atoms: C_9  and  N_11
REMARK    7  A    between atoms: C_12  and  C_14
REMARK    8  A    between atoms: C_14  and  N_15
REMARK                            x       y       z     vdW  Elec       q    Type
REMARK                         _______ _______ _______ _____ _____    ______ ____
ROOT
ATOM      1  N   UNL     1       2.356   3.900   0.001  0.00  0.00    -0.281 N 
ATOM      2  C   UNL     1       2.333   5.244  -0.094  0.00  0.00    +0.237 C 
ATOM      3  O   UNL     1       1.274   5.835  -0.082  0.00  0.00    -0.274 OA
ATOM      4  H   UNL     1       3.204   3.432   0.056  0.00  0.00    +0.155 HD
ENDROOT
BRANCH   1   9
ATOM      5  C   UNL     1      -1.151   2.998   0.654  0.00  0.00    -0.040 A 
ATOM      6  C   UNL     1      -1.221   1.755   0.053  0.00  0.00    +0.008 A 
ATOM      7  C   UNL     1      -0.106   1.214  -0.560  0.00  0.00    +0.047 A 
ATOM      8  C   UNL     1       1.084   1.923  -0.582  0.00  0.00    +0.138 A 
ATOM      9  C   UNL     1       1.155   3.178   0.019  0.00  0.00    +0.076 A 
ATOM     10  C   UNL     1       0.033   3.712   0.636  0.00  0.00    +0.031 A 
BRANCH   5  12
ATOM     11  C   UNL     1      -2.742   4.900   0.648  0.00  0.00    +0.015 C 
ATOM     12  C   UNL     1      -2.369   3.579   1.324  0.00  0.00    -0.013 C 
ATOM     13  C   UNL     1      -3.535   2.596   1.203  0.00  0.00    +0.015 C 
ATOM     14  C   UNL     1      -2.066   3.831   2.803  0.00  0.00    +0.015 C 
ENDBRANCH   5  12
BRANCH   8  15
ATOM     15  O   UNL     1       2.181   1.396  -1.188  0.00  0.00    -0.505 OA
ATOM     16  H   UNL     1       2.259   1.621  -2.125  0.00  0.00    +0.292 HD
ENDBRANCH   8  15
ENDBRANCH   1   9
BRANCH   2  17
ATOM     17  C   UNL     1       3.624   6.013  -0.215  0.00  0.00    +0.222 C 
BRANCH  17  18
ATOM     18  N   UNL     1       3.332   7.446  -0.303  0.00  0.00    -0.285 N 
ATOM     19  C   UNL     1       3.257   8.203   0.857  0.00  0.00    +0.059 A 
ATOM     20  C   UNL     1       3.451   7.638   2.108  0.00  0.00    +0.027 A 
ATOM     21  C   UNL     1       3.368   8.427   3.237  0.00  0.00    +0.002 A 
ATOM     22  C   UNL     1       3.091   9.782   3.134  0.00  0.00    +0.001 A 
ATOM     23  C   UNL     1       2.896  10.362   1.898  0.00  0.00    +0.015 A 
ATOM     24  C   UNL     1       2.977   9.577   0.751  0.00  0.00    +0.063 A 
ATOM     25  C   UNL     1       2.776  10.145  -0.594  0.00  0.00    +0.262 A 
ATOM     26  O   UNL     1       2.531  11.327  -0.741  0.00  0.00    -0.267 OA
ATOM     27  N   UNL     1       2.870   9.320  -1.659  0.00  0.00    -0.274 N 
ATOM     28  H   UNL     1       2.733   9.688  -2.578  0.00  0.00    +0.173 HD
ATOM     29  C   UNL     1       3.145   8.015  -1.506  0.00  0.00    +0.330 A 
ATOM     30  O   UNL     1       3.224   7.317  -2.498  0.00  0.00    -0.246 OA
ENDBRANCH  17  18
ENDBRANCH   2  17
TORSDOF 5
