REMARK  Name = ZINC35704924
REMARK  13 active torsions:
REMARK  status: ('A' for Active; 'I' for Inactive)
REMARK    1  A    between atoms: C_1  and  C_2
REMARK    2  A    between atoms: C_5  and  C_8
REMARK    3  A    between atoms: C_8  and  N_9
REMARK    4  A    between atoms: N_9  and  C_10
REMARK    5  A    between atoms: N_9  and  C_22
REMARK    6  A    between atoms: C_10  and  C_11
REMARK    7  A    between atoms: C_11  and  C_12
REMARK    8  A    between atoms: C_22  and  C_23
REMARK    9  A    between atoms: C_25  and  C_28
REMARK   10  A    between atoms: N_30  and  C_31
REMARK   11  A    between atoms: C_31  and  C_32
REMARK   12  A    between atoms: C_32  and  O_33
REMARK   13  A    between atoms: O_33  and  C_34
REMARK                            x       y       z     vdW  Elec       q    Type
REMARK                         _______ _______ _______ _____ _____    ______ ____
ROOT
ATOM      1  N   UNL     1       1.587  -4.636  -0.009  0.00  0.00    +0.388 N 
ATOM      2  H   UNL     1       2.086  -4.082  -0.688  0.00  0.00    -0.081 HD
ENDROOT
BRANCH   1   3
ATOM      3  C   UNL     1       0.145  -4.382  -0.134  0.00  0.00    -0.042 C 
BRANCH   3   8
ATOM      4  C   UNL     1      -2.677  -7.169   4.069  0.00  0.00    +0.044 C 
ATOM      5  C   UNL     1      -1.941  -6.442   2.973  0.00  0.00    -0.050 A 
ATOM      6  C   UNL     1      -1.564  -5.124   3.149  0.00  0.00    +0.003 A 
ATOM      7  C   UNL     1      -0.889  -4.457   2.144  0.00  0.00    +0.002 A 
ATOM      8  C   UNL     1      -0.590  -5.109   0.962  0.00  0.00    -0.064 A 
ATOM      9  C   UNL     1      -0.966  -6.428   0.786  0.00  0.00    +0.002 A 
ATOM     10  C   UNL     1      -1.637  -7.095   1.793  0.00  0.00    +0.003 A 
ENDBRANCH   3   8
ENDBRANCH   1   3
BRANCH   1  11
ATOM     11  C   UNL     1       2.033  -4.272   1.343  0.00  0.00    -0.073 C 
BRANCH  11  12
ATOM     12  C   UNL     1       1.897  -2.760   1.535  0.00  0.00    +0.019 C 
BRANCH  12  13
ATOM     13  C   UNL     1       2.352  -2.387   2.922  0.00  0.00    -0.024 A 
ATOM     14  C   UNL     1       1.573  -2.241   4.006  0.00  0.00    +0.087 A 
ATOM     15  N   UNL     1       2.338  -1.898   5.088  0.00  0.00    -0.360 N 
ATOM     16  H   UNL     1       1.998  -1.738   5.982  0.00  0.00    +0.165 HD
ATOM     17  C   UNL     1       3.661  -1.813   4.717  0.00  0.00    +0.047 A 
ATOM     18  C   UNL     1       3.729  -2.122   3.346  0.00  0.00    +0.003 A 
ATOM     19  C   UNL     1       4.962  -2.120   2.692  0.00  0.00    +0.010 A 
ATOM     20  C   UNL     1       6.099  -1.821   3.389  0.00  0.00    +0.001 A 
ATOM     21  C   UNL     1       6.038  -1.520   4.742  0.00  0.00    +0.002 A 
ATOM     22  C   UNL     1       4.830  -1.507   5.405  0.00  0.00    +0.026 A 
ENDBRANCH  12  13
ENDBRANCH  11  12
ENDBRANCH   1  11
BRANCH   1  23
ATOM     23  C   UNL     1       1.856  -6.060  -0.246  0.00  0.00    +0.019 C 
BRANCH  23  24
ATOM     24  C   UNL     1       1.512  -6.405  -1.672  0.00  0.00    +0.179 A 
ATOM     25  N   UNL     1       2.332  -6.347  -2.679  0.00  0.00    -0.210 NA
ATOM     26  C   UNL     1       1.666  -6.732  -3.801  0.00  0.00    +0.163 A 
ATOM     27  C   UNL     1       0.392  -7.030  -3.427  0.00  0.00    +0.230 A 
ATOM     28  O   UNL     1       0.315  -6.827  -2.102  0.00  0.00    -0.449 OA
BRANCH  26  29
ATOM     29  C   UNL     1       2.220  -6.811  -5.165  0.00  0.00    +0.266 C 
ATOM     30  O   UNL     1       1.515  -7.172  -6.087  0.00  0.00    -0.268 OA
ATOM     31  N   UNL     1       3.508  -6.482  -5.389  0.00  0.00    -0.308 N 
ATOM     32  H   UNL     1       4.070  -6.194  -4.653  0.00  0.00    +0.149 HD
BRANCH  31  33
ATOM     33  C   UNL     1       4.058  -6.561  -6.744  0.00  0.00    +0.132 C 
BRANCH  33  34
ATOM     34  C   UNL     1       5.528  -6.137  -6.723  0.00  0.00    +0.178 C 
BRANCH  34  35
ATOM     35  O   UNL     1       6.283  -7.075  -5.954  0.00  0.00    -0.381 OA
ATOM     36  C   UNL     1       7.677  -6.771  -5.870  0.00  0.00    +0.194 C 
ENDBRANCH  34  35
ENDBRANCH  33  34
ENDBRANCH  31  33
ENDBRANCH  26  29
ENDBRANCH  23  24
ENDBRANCH   1  23
TORSDOF 11
