REMARK  Name = ZINC40859138
REMARK  9 active torsions:
REMARK  status: ('A' for Active; 'I' for Inactive)
REMARK    1  A    between atoms: C_1  and  C_2
REMARK    2  A    between atoms: C_2  and  C_4
REMARK    3  A    between atoms: C_8  and  C_10
REMARK    4  A    between atoms: C_10  and  C_11
REMARK    5  A    between atoms: C_10  and  C_12
REMARK    6  A    between atoms: C_10  and  N_13
REMARK    7  A    between atoms: N_16  and  N_17
REMARK    8  A    between atoms: C_18  and  C_19
REMARK    9  A    between atoms: C_24  and  O_25
REMARK                            x       y       z     vdW  Elec       q    Type
REMARK                         _______ _______ _______ _____ _____    ______ ____
ROOT
ATOM      1  N   UNL     1      -3.245  -2.083   3.698  0.00  0.00    -0.289 N 
ATOM      2  C   UNL     1      -3.637  -2.409   4.946  0.00  0.00    +0.320 C 
ATOM      3  O   UNL     1      -4.639  -3.078   5.113  0.00  0.00    -0.251 OA
ATOM      4  N   UNL     1      -2.919  -1.993   6.008  0.00  0.00    -0.191 N 
ATOM      5  H   UNL     1      -2.446  -1.550   3.564  0.00  0.00    +0.151 HD
ATOM      6  H   UNL     1      -3.201  -2.227   6.906  0.00  0.00    +0.179 HD
ENDROOT
BRANCH   1   7
ATOM      7  C   UNL     1      -4.026  -2.535   2.544  0.00  0.00    +0.056 C 
ATOM      8  C   UNL     1      -5.448  -1.980   2.641  0.00  0.00    +0.036 C 
ATOM      9  C   UNL     1      -4.075  -4.064   2.528  0.00  0.00    +0.036 C 
BRANCH   7  14
ATOM     10  C   UNL     1      -1.416  -1.397   0.052  0.00  0.00    -0.022 A 
ATOM     11  C   UNL     1      -2.206  -1.130  -1.067  0.00  0.00    +0.008 A 
ATOM     12  C   UNL     1      -3.571  -1.321  -1.006  0.00  0.00    +0.001 A 
ATOM     13  C   UNL     1      -4.157  -1.775   0.163  0.00  0.00    +0.006 A 
ATOM     14  C   UNL     1      -3.379  -2.041   1.275  0.00  0.00    -0.024 A 
ATOM     15  C   UNL     1      -2.012  -1.860   1.225  0.00  0.00    +0.014 A 
BRANCH  10  17
ATOM     16  C   UNL     1       0.610   0.191  -0.192  0.00  0.00    +0.044 C 
ATOM     17  C   UNL     1       0.048  -1.195  -0.008  0.00  0.00    -0.050 C 
ATOM     18  C   UNL     1       0.865  -2.233   0.101  0.00  0.00    +0.012 C 
ENDBRANCH  10  17
ENDBRANCH   7  14
ENDBRANCH   1   7
BRANCH   4  19
ATOM     19  N   UNL     1      -1.765  -1.222   5.815  0.00  0.00    -0.186 NA
ATOM     20  C   UNL     1      -1.015  -0.912   6.827  0.00  0.00    +0.142 C 
BRANCH  20  21
ATOM     21  C   UNL     1      -1.224  -1.573   8.128  0.00  0.00    +0.037 A 
ATOM     22  C   UNL     1      -1.798  -2.844   8.186  0.00  0.00    +0.028 A 
ATOM     23  C   UNL     1      -1.990  -3.457   9.408  0.00  0.00    +0.019 A 
ATOM     24  C   UNL     1      -1.617  -2.815  10.577  0.00  0.00    +0.019 A 
ATOM     25  C   UNL     1      -1.048  -1.556  10.532  0.00  0.00    +0.047 A 
ATOM     26  C   UNL     1      -0.842  -0.930   9.314  0.00  0.00    +0.126 A 
ATOM     27 BR   UNL     1      -2.768  -5.179   9.486  0.00  0.00    -0.050 Br
BRANCH  26  28
ATOM     28  O   UNL     1      -0.277   0.304   9.268  0.00  0.00    -0.506 OA
ATOM     29  H   UNL     1      -0.916   1.029   9.237  0.00  0.00    +0.292 HD
ENDBRANCH  26  28
ENDBRANCH  20  21
ENDBRANCH   4  19
TORSDOF 6
