REMARK  Name = ZINC48035445
REMARK  9 active torsions:
REMARK  status: ('A' for Active; 'I' for Inactive)
REMARK    1  A    between atoms: C_1  and  C_2
REMARK    2  A    between atoms: C_2  and  C_3
REMARK    3  A    between atoms: C_3  and  C_4
REMARK    4  A    between atoms: C_4  and  C_5
REMARK    5  A    between atoms: C_4  and  C_18
REMARK    6  A    between atoms: C_5  and  N_6
REMARK    7  A    between atoms: C_7  and  C_9
REMARK    8  A    between atoms: C_9  and  N_10
REMARK    9  A    between atoms: C_13  and  C_15
REMARK                            x       y       z     vdW  Elec       q    Type
REMARK                         _______ _______ _______ _____ _____    ______ ____
ROOT
ATOM      1  N   UNL     1       1.229  -2.139  -1.104  0.00  0.00    -0.316 N 
ATOM      2  C   UNL     1       1.925  -2.378  -2.233  0.00  0.00    +0.196 C 
ATOM      3  O   UNL     1       3.012  -2.913  -2.173  0.00  0.00    -0.278 OA
ATOM      4  H   UNL     1       0.360  -1.710  -1.152  0.00  0.00    +0.149 HD
ENDROOT
BRANCH   1   5
ATOM      5  C   UNL     1       1.784  -2.526   0.195  0.00  0.00    +0.112 C 
BRANCH   5   6
ATOM      6  C   UNL     1       0.847  -2.058   1.310  0.00  0.00    +0.038 C 
BRANCH   6   7
ATOM      7  C   UNL     1       1.346  -2.575   2.635  0.00  0.00    -0.024 A 
ATOM      8  C   UNL     1       2.602  -2.217   3.088  0.00  0.00    +0.007 A 
ATOM      9  C   UNL     1       3.060  -2.691   4.303  0.00  0.00    +0.020 A 
ATOM     10  C   UNL     1       2.261  -3.524   5.067  0.00  0.00    +0.042 A 
ATOM     11  C   UNL     1       1.004  -3.882   4.614  0.00  0.00    +0.040 A 
ATOM     12  C   UNL     1       0.544  -3.404   3.400  0.00  0.00    +0.046 A 
ATOM     13 CL   UNL     1      -1.035  -3.848   2.834  0.00  0.00    -0.083 Cl
ATOM     14 CL   UNL     1       2.837  -4.119   6.593  0.00  0.00    -0.083 Cl
ENDBRANCH   6   7
BRANCH   6  15
ATOM     15  C   UNL     1       0.813  -0.529   1.340  0.00  0.00    +0.009 C 
BRANCH  15  17
ATOM     16  C   UNL     1      -0.346   1.462   2.306  0.00  0.00    +0.004 C 
ATOM     17  C   UNL     1      -0.221  -0.061   2.366  0.00  0.00    -0.003 C 
ENDBRANCH  15  17
ENDBRANCH   6  15
ENDBRANCH   5   6
ENDBRANCH   1   5
BRANCH   2  18
ATOM     18  C   UNL     1       1.354  -1.980  -3.569  0.00  0.00    +0.019 C 
BRANCH  18  19
ATOM     19  N   UNL     1       2.297  -2.345  -4.634  0.00  0.00    +0.386 N 
ATOM     20  C   UNL     1       2.379  -3.823  -4.761  0.00  0.00    -0.077 C 
ATOM     21  C   UNL     1       2.913  -4.026  -6.202  0.00  0.00    -0.008 C 
ATOM     22  C   UNL     1       2.203  -2.905  -6.995  0.00  0.00    +0.056 C 
ATOM     23  C   UNL     1       1.807  -1.854  -5.940  0.00  0.00    -0.066 C 
ATOM     24  H   UNL     1       3.210  -1.961  -4.438  0.00  0.00    -0.081 HD
BRANCH  22  25
ATOM     25  C   UNL     1       3.144  -2.303  -8.006  0.00  0.00    +0.212 C 
ATOM     26  O   UNL     1       3.437  -1.128  -7.937  0.00  0.00    -0.276 OA
ATOM     27  N   UNL     1       3.659  -3.070  -8.987  0.00  0.00    -0.329 N 
ATOM     28  H   UNL     1       3.424  -4.009  -9.043  0.00  0.00    +0.145 HD
ATOM     29  H   UNL     1       4.265  -2.682  -9.638  0.00  0.00    +0.145 HD
ENDBRANCH  22  25
ENDBRANCH  18  19
ENDBRANCH   2  18
TORSDOF 8
