REMARK  Name = ZINC38965581
REMARK  8 active torsions:
REMARK  status: ('A' for Active; 'I' for Inactive)
REMARK    1  A    between atoms: C_1  and  C_2
REMARK    2  A    between atoms: C_2  and  C_3
REMARK    3  A    between atoms: C_3  and  C_4
REMARK    4  A    between atoms: C_4  and  C_5
REMARK    5  A    between atoms: C_5  and  N_6
REMARK    6  A    between atoms: N_6  and  C_7
REMARK    7  A    between atoms: N_10  and  S_11
REMARK    8  A    between atoms: S_11  and  C_14
REMARK                            x       y       z     vdW  Elec       q    Type
REMARK                         _______ _______ _______ _____ _____    ______ ____
ROOT
ATOM      1  C   UNL     1       2.156  -4.500  -3.729  0.00  0.00    +0.219 C 
ATOM      2  C   UNL     1       1.269  -5.555  -4.350  0.00  0.00    +0.188 C 
ATOM      3  N   UNL     1       0.056  -5.265  -4.716  0.00  0.00    -0.110 NA
ATOM      4  N   UNL     1       1.753  -6.796  -4.519  0.00  0.00    -0.226 NA
ATOM      5  C   UNL     1       2.978  -7.115  -4.157  0.00  0.00    +0.089 A 
ATOM      6  C   UNL     1       3.456  -8.436  -4.350  0.00  0.00    +0.030 A 
ATOM      7  C   UNL     1       4.712  -8.768  -3.980  0.00  0.00    +0.002 A 
ATOM      8  C   UNL     1       5.601  -7.850  -3.396  0.00  0.00    +0.002 A 
ATOM      9  C   UNL     1       5.247  -6.566  -3.168  0.00  0.00    +0.027 A 
ATOM     10  C   UNL     1       3.895  -6.124  -3.542  0.00  0.00    +0.063 A 
ATOM     11  N   UNL     1       3.519  -4.893  -3.337  0.00  0.00    -0.362 N 
ATOM     12  H   UNL     1       4.124  -4.251  -2.935  0.00  0.00    +0.162 HD
ENDROOT
BRANCH   3  13
ATOM     13  S   UNL     1      -0.905  -6.430  -5.396  0.00  0.00    +0.102 S 
ATOM     14  O   UNL     1      -0.316  -6.766  -6.644  0.00  0.00    -0.146 OA
ATOM     15  O   UNL     1      -1.149  -7.397  -4.383  0.00  0.00    -0.146 OA
BRANCH  13  16
ATOM     16  C   UNL     1      -2.458  -5.679  -5.758  0.00  0.00    +0.132 A 
ATOM     17  C   UNL     1      -2.876  -5.554  -7.069  0.00  0.00    +0.050 A 
ATOM     18  C   UNL     1      -4.094  -4.964  -7.354  0.00  0.00    +0.043 A 
ATOM     19  C   UNL     1      -4.895  -4.499  -6.325  0.00  0.00    +0.021 A 
ATOM     20  C   UNL     1      -4.477  -4.624  -5.014  0.00  0.00    +0.023 A 
ATOM     21  C   UNL     1      -3.260  -5.219  -4.729  0.00  0.00    +0.068 A 
ATOM     22 CL   UNL     1      -2.739  -5.383  -3.081  0.00  0.00    -0.082 Cl
ATOM     23 CL   UNL     1      -4.619  -4.806  -9.001  0.00  0.00    -0.083 Cl
ENDBRANCH  13  16
ENDBRANCH   3  13
BRANCH   1  24
ATOM     24  N   UNL     1       1.475  -3.990  -2.532  0.00  0.00    -0.291 NA
ATOM     25  H   UNL     1       1.902  -4.350  -1.692  0.00  0.00    +0.124 HD
BRANCH  24  26
ATOM     26  C   UNL     1       1.455  -2.521  -2.524  0.00  0.00    +0.083 C 
BRANCH  26  27
ATOM     27  C   UNL     1       0.739  -2.027  -1.265  0.00  0.00    +0.015 C 
BRANCH  27  28
ATOM     28  C   UNL     1       0.718  -0.497  -1.257  0.00  0.00    +0.001 C 
BRANCH  28  30
ATOM     29  C   UNL     1      -0.019   1.526   0.010  0.00  0.00    +0.004 C 
ATOM     30  C   UNL     1       0.002  -0.004   0.002  0.00  0.00    -0.003 C 
ENDBRANCH  28  30
ENDBRANCH  27  28
ENDBRANCH  26  27
ENDBRANCH  24  26
ENDBRANCH   1  24
TORSDOF 7
