REMARK  Name = ZINC39231320
REMARK  7 active torsions:
REMARK  status: ('A' for Active; 'I' for Inactive)
REMARK    1  A    between atoms: C_1  and  C_2
REMARK    2  A    between atoms: C_2  and  C_3
REMARK    3  A    between atoms: C_2  and  C_4
REMARK    4  A    between atoms: C_2  and  C_5
REMARK    5  A    between atoms: C_8  and  N_11
REMARK    6  A    between atoms: C_12  and  C_14
REMARK    7  A    between atoms: C_16  and  O_41
REMARK                            x       y       z     vdW  Elec       q    Type
REMARK                         _______ _______ _______ _____ _____    ______ ____
ROOT
ATOM      1  C   UNL     1       5.625  -3.060  -4.992  0.00  0.00    +0.107 C 
ATOM      2  C   UNL     1       5.325  -2.112  -6.156  0.00  0.00    +0.127 C 
ATOM      3  C   UNL     1       6.046  -2.596  -7.415  0.00  0.00    +0.032 C 
ATOM      4  C   UNL     1       7.555  -2.640  -7.161  0.00  0.00    +0.004 C 
ATOM      5  C   UNL     1       7.841  -3.595  -6.002  0.00  0.00    -0.024 C 
ATOM      6  C   UNL     1       7.133  -3.090  -4.743  0.00  0.00    +0.004 C 
ATOM      7  C   UNL     1       7.458  -4.020  -3.572  0.00  0.00    -0.005 C 
ATOM      8  C   UNL     1       8.977  -4.077  -3.400  0.00  0.00    -0.020 C 
ATOM      9  C   UNL     1       9.339  -4.986  -2.253  0.00  0.00    +0.006 A 
ATOM     10  C   UNL     1      10.375  -5.856  -2.311  0.00  0.00    -0.022 A 
ATOM     11  C   UNL     1      10.422  -6.549  -1.044  0.00  0.00    +0.003 A 
ATOM     12  C   UNL     1      11.266  -7.542  -0.534  0.00  0.00    +0.010 A 
ATOM     13  C   UNL     1      11.012  -7.976   0.743  0.00  0.00    +0.001 A 
ATOM     14  C   UNL     1       9.973  -7.464   1.502  0.00  0.00    +0.002 A 
ATOM     15  C   UNL     1       9.123  -6.483   1.023  0.00  0.00    +0.026 A 
ATOM     16  C   UNL     1       9.356  -6.021  -0.271  0.00  0.00    +0.047 A 
ATOM     17  N   UNL     1       8.724  -5.082  -1.035  0.00  0.00    -0.359 N 
ATOM     18  H   UNL     1       7.955  -4.561  -0.756  0.00  0.00    +0.166 HD
ATOM     19  C   UNL     1      11.265  -6.005  -3.519  0.00  0.00    +0.019 C 
ATOM     20  C   UNL     1      11.032  -4.795  -4.435  0.00  0.00    -0.073 C 
ATOM     21  N   UNL     1       9.591  -4.601  -4.627  0.00  0.00    +0.386 N 
ATOM     22  C   UNL     1       9.346  -3.668  -5.737  0.00  0.00    -0.074 C 
ATOM     23  H   UNL     1       9.168  -5.489  -4.852  0.00  0.00    -0.081 HD
ENDROOT
BRANCH   1  25
ATOM     24  N   UNL     1       3.576  -2.464  -3.740  0.00  0.00    -0.312 N 
ATOM     25  C   UNL     1       4.919  -2.574  -3.752  0.00  0.00    +0.219 C 
ATOM     26  O   UNL     1       5.560  -2.282  -2.764  0.00  0.00    -0.275 OA
ATOM     27  H   UNL     1       3.063  -2.697  -4.530  0.00  0.00    +0.149 HD
BRANCH  24  31
ATOM     28  C   UNL     1       0.718  -0.497  -1.257  0.00  0.00    -0.005 C 
ATOM     29  C   UNL     1       0.739  -2.027  -1.265  0.00  0.00    +0.006 C 
ATOM     30  C   UNL     1       1.455  -2.521  -2.524  0.00  0.00    +0.022 C 
ATOM     31  C   UNL     1       2.890  -1.991  -2.535  0.00  0.00    +0.073 C 
ATOM     32  C   UNL     1       2.870  -0.461  -2.526  0.00  0.00    +0.022 C 
ATOM     33  C   UNL     1       2.154   0.032  -1.268  0.00  0.00    +0.006 C 
BRANCH  28  35
ATOM     34  C   UNL     1      -0.019   1.526   0.010  0.00  0.00    +0.011 C 
ATOM     35  C   UNL     1       0.002  -0.004   0.002  0.00  0.00    -0.035 C 
ATOM     36  C   UNL     1       0.742  -0.511   1.242  0.00  0.00    +0.011 C 
ATOM     37  C   UNL     1      -1.433  -0.534   0.013  0.00  0.00    +0.011 C 
ENDBRANCH  28  35
ENDBRANCH  24  31
ENDBRANCH   1  25
BRANCH   2  38
ATOM     38  O   UNL     1       5.776  -0.797  -5.826  0.00  0.00    -0.391 OA
ATOM     39  H   UNL     1       5.619  -0.141  -6.520  0.00  0.00    +0.210 HD
ENDBRANCH   2  38
TORSDOF 4
