REMARK  Name = ZINC22002818
REMARK  13 active torsions:
REMARK  status: ('A' for Active; 'I' for Inactive)
REMARK    1  A    between atoms: C_1  and  C_2
REMARK    2  A    between atoms: C_2  and  N_3
REMARK    3  A    between atoms: N_3  and  C_4
REMARK    4  A    between atoms: N_3  and  C_6
REMARK    5  A    between atoms: C_4  and  C_5
REMARK    6  A    between atoms: C_6  and  C_7
REMARK    7  A    between atoms: C_8  and  C_18
REMARK    8  A    between atoms: N_20  and  N_21
REMARK    9  A    between atoms: C_22  and  C_23
REMARK   10  A    between atoms: C_26  and  C_29
REMARK   11  A    between atoms: C_29  and  C_30
REMARK   12  A    between atoms: C_29  and  C_31
REMARK   13  A    between atoms: C_29  and  C_32
REMARK                            x       y       z     vdW  Elec       q    Type
REMARK                         _______ _______ _______ _____ _____    ______ ____
ROOT
ATOM      1  C   UNL     1      -0.429   5.483   0.097  0.00  0.00    +0.063 A 
ATOM      2  C   UNL     1       0.797   6.085   0.075  0.00  0.00    +0.170 A 
ATOM      3  N   UNL     1       1.742   5.128   0.098  0.00  0.00    -0.124 NA
ATOM      4  N   UNL     1       1.182   3.970   0.139  0.00  0.00    -0.058 NA
ATOM      5  N   UNL     1      -0.209   4.150   0.144  0.00  0.00    -0.194 N 
ATOM      6  C   UNL     1      -1.181   3.144   0.183  0.00  0.00    +0.240 A 
ATOM      7  C   UNL     1      -0.922   1.702   0.227  0.00  0.00    +0.206 A 
ATOM      8  N   UNL     1      -2.068   1.080   0.261  0.00  0.00    -0.032 NA
ATOM      9  O   UNL     1      -3.093   2.058   0.236  0.00  0.00    -0.239 OA
ATOM     10  N   UNL     1      -2.470   3.330   0.183  0.00  0.00    -0.027 NA
ATOM     11  N   UNL     1       0.332   1.100   0.237  0.00  0.00    -0.337 N 
ATOM     12  H   UNL     1       0.415   0.004   0.272  0.00  0.00    +0.144 HD
ATOM     13  H   UNL     1       1.240   1.720   0.211  0.00  0.00    +0.144 HD
ENDROOT
BRANCH   2  14
ATOM     14  C   UNL     1       1.043   7.538   0.026  0.00  0.00    +0.285 C 
ATOM     15  O   UNL     1       0.106   8.313   0.008  0.00  0.00    -0.267 OA
ATOM     16  N   UNL     1       2.306   8.007   0.002  0.00  0.00    -0.202 N 
ATOM     17  H   UNL     1       3.154   7.306   0.018  0.00  0.00    +0.178 HD
BRANCH  16  18
ATOM     18  N   UNL     1       2.540   9.388  -0.044  0.00  0.00    -0.187 NA
ATOM     19  C   UNL     1       3.756   9.840  -0.068  0.00  0.00    +0.138 C 
BRANCH  19  20
ATOM     20  C   UNL     1       4.002  11.293  -0.117  0.00  0.00    -0.005 A 
ATOM     21  C   UNL     1       2.928  12.186  -0.143  0.00  0.00    +0.010 A 
ATOM     22  C   UNL     1       3.166  13.544  -0.184  0.00  0.00    +0.005 A 
ATOM     23  C   UNL     1       4.464  14.022  -0.208  0.00  0.00    -0.042 A 
ATOM     24  C   UNL     1       5.533  13.144  -0.188  0.00  0.00    +0.005 A 
ATOM     25  C   UNL     1       5.310  11.783  -0.142  0.00  0.00    +0.010 A 
BRANCH  23  26
ATOM     26  C   UNL     1       4.715  15.508  -0.259  0.00  0.00    -0.013 C 
ATOM     27  C   UNL     1       5.502  15.849  -1.525  0.00  0.00    +0.015 C 
ATOM     28  C   UNL     1       3.378  16.251  -0.273  0.00  0.00    +0.015 C 
ATOM     29  C   UNL     1       5.521  15.930   0.972  0.00  0.00    +0.015 C 
ENDBRANCH  23  26
ENDBRANCH  19  20
ENDBRANCH  16  18
ENDBRANCH   2  14
BRANCH   1  30
ATOM     30  C   UNL     1      -1.769   6.172   0.077  0.00  0.00    -0.020 C 
BRANCH  30  31
ATOM     31  N   UNL     1      -2.277   6.294   1.450  0.00  0.00    +0.383 N 
ATOM     32  H   UNL     1      -2.157   5.318   1.944  0.00  0.00    -0.081 HD
BRANCH  31  34
ATOM     33  C   UNL     1      -1.890   7.206   3.690  0.00  0.00    -0.017 C 
ATOM     34  C   UNL     1      -1.502   7.283   2.212  0.00  0.00    -0.082 C 
ENDBRANCH  31  34
BRANCH  31  35
ATOM     35  C   UNL     1      -3.707   6.629   1.455  0.00  0.00    -0.082 C 
ATOM     36  C   UNL     1      -4.524   5.380   1.117  0.00  0.00    -0.017 C 
ENDBRANCH  31  35
ENDBRANCH  30  31
ENDBRANCH   1  30
TORSDOF 8
