REMARK  Name = ZINC40267554
REMARK  8 active torsions:
REMARK  status: ('A' for Active; 'I' for Inactive)
REMARK    1  A    between atoms: C_1  and  C_2
REMARK    2  A    between atoms: C_2  and  C_3
REMARK    3  A    between atoms: C_2  and  C_4
REMARK    4  A    between atoms: C_4  and  C_6
REMARK    5  A    between atoms: C_4  and  N_10
REMARK    6  A    between atoms: C_6  and  O_8
REMARK    7  A    between atoms: O_8  and  C_9
REMARK    8  A    between atoms: C_22  and  C_24
REMARK                            x       y       z     vdW  Elec       q    Type
REMARK                         _______ _______ _______ _____ _____    ______ ____
ROOT
ATOM      1  N   UNL     1       1.306   2.270   2.481  0.00  0.00    -0.286 N 
ATOM      2  C   UNL     1       2.154   1.415   1.875  0.00  0.00    +0.304 C 
ATOM      3  O   UNL     1       1.764   0.316   1.529  0.00  0.00    -0.253 OA
ATOM      4  N   UNL     1       3.432   1.778   1.652  0.00  0.00    -0.273 N 
ATOM      5  C   UNL     1       4.341   0.909   0.889  0.00  0.00    +0.116 C 
ATOM      6  C   UNL     1       5.476   0.437   1.806  0.00  0.00    +0.076 C 
ATOM      7  C   UNL     1       5.991   1.618   2.590  0.00  0.00    +0.066 A 
ATOM      8  C   UNL     1       5.317   2.776   2.755  0.00  0.00    +0.064 A 
ATOM      9  N   UNL     1       6.095   3.590   3.518  0.00  0.00    -0.346 N 
ATOM     10  H   UNL     1       5.879   4.491   3.807  0.00  0.00    +0.167 HD
ATOM     11  C   UNL     1       7.228   2.905   3.797  0.00  0.00    +0.197 A 
ATOM     12  N   UNL     1       7.156   1.726   3.237  0.00  0.00    -0.240 NA
ATOM     13  C   UNL     1       3.955   3.059   2.162  0.00  0.00    +0.156 C 
ATOM     14  H   UNL     1       1.631   3.122   2.812  0.00  0.00    +0.151 HD
ENDROOT
BRANCH  13  15
ATOM     15  C   UNL     1       4.077   4.049   1.033  0.00  0.00    -0.020 A 
ATOM     16  C   UNL     1       4.947   3.801  -0.013  0.00  0.00    +0.009 A 
ATOM     17  C   UNL     1       5.060   4.707  -1.049  0.00  0.00    +0.040 A 
ATOM     18  C   UNL     1       4.301   5.866  -1.041  0.00  0.00    +0.142 A 
ATOM     19  C   UNL     1       3.430   6.114   0.007  0.00  0.00    +0.076 A 
ATOM     20  C   UNL     1       3.315   5.202   1.041  0.00  0.00    +0.028 A 
ATOM     21 CL   UNL     1       2.478   7.566   0.020  0.00  0.00    -0.081 Cl
ATOM     22  F   UNL     1       4.412   6.753  -2.054  0.00  0.00    -0.204 F 
ENDBRANCH  13  15
BRANCH   1  23
ATOM     23  C   UNL     1      -0.106   1.914   2.638  0.00  0.00    +0.186 C 
BRANCH  23  25
ATOM     24  C   UNL     1       0.556  -0.202   3.790  0.00  0.00    +0.009 C 
ATOM     25  C   UNL     1      -0.282   1.073   3.904  0.00  0.00    +0.014 C 
ATOM     26  C   UNL     1       0.179   1.880   5.120  0.00  0.00    +0.009 C 
ENDBRANCH  23  25
BRANCH  23  27
ATOM     27  C   UNL     1      -0.931   3.170   2.750  0.00  0.00    +0.328 C 
ATOM     28  O   UNL     1      -0.395   4.252   2.704  0.00  0.00    -0.249 OA
BRANCH  27  29
ATOM     29  O   UNL     1      -2.263   3.087   2.902  0.00  0.00    -0.467 OA
ATOM     30  C   UNL     1      -2.982   4.317   3.002  0.00  0.00    +0.280 C 
ENDBRANCH  27  29
ENDBRANCH  23  27
ENDBRANCH   1  23
TORSDOF 5
