REMARK  Name = ZINC09102884
REMARK  10 active torsions:
REMARK  status: ('A' for Active; 'I' for Inactive)
REMARK    1  A    between atoms: C_1  and  C_2
REMARK    2  A    between atoms: C_2  and  C_4
REMARK    3  A    between atoms: C_2  and  N_64
REMARK    4  A    between atoms: C_7  and  S_16
REMARK    5  A    between atoms: N_8  and  C_9
REMARK    6  A    between atoms: S_16  and  C_17
REMARK    7  A    between atoms: C_17  and  C_18
REMARK    8  A    between atoms: N_20  and  C_21
REMARK    9  A    between atoms: C_31  and  N_64
REMARK   10  A    between atoms: C_32  and  N_64
REMARK                            x       y       z     vdW  Elec       q    Type
REMARK                         _______ _______ _______ _____ _____    ______ ____
ROOT
ATOM      1  C   UNL     1       1.202   1.746   0.000  0.00  0.00    +0.125 A 
ATOM      2  N   UNL     1      -0.015   1.281   0.009  0.00  0.00    -0.135 NA
ATOM      3  N   UNL     1       0.002  -0.004   0.002  0.00  0.00    -0.122 NA
ATOM      4  C   UNL     1       1.242  -0.434  -0.012  0.00  0.00    +0.197 A 
ATOM      5  N   UNL     1       2.049   0.670  -0.014  0.00  0.00    -0.275 N 
ENDROOT
BRANCH   5   6
ATOM      6  C   UNL     1       3.452   0.696  -0.028  0.00  0.00    +0.050 A 
ATOM      7  C   UNL     1       4.148   1.216   1.055  0.00  0.00    +0.028 A 
ATOM      8  C   UNL     1       5.529   1.235   1.041  0.00  0.00    +0.022 A 
ATOM      9  C   UNL     1       6.218   0.747  -0.055  0.00  0.00    +0.041 A 
ATOM     10  C   UNL     1       5.526   0.233  -1.137  0.00  0.00    +0.022 A 
ATOM     11  C   UNL     1       4.145   0.206  -1.126  0.00  0.00    +0.028 A 
ATOM     12 CL   UNL     1       7.954   0.780  -0.072  0.00  0.00    -0.084 Cl
ENDBRANCH   5   6
BRANCH   1  14
ATOM     13  C   UNL     1       1.365   3.797  -1.385  0.00  0.00    -0.005 C 
ATOM     14  C   UNL     1       1.603   3.199   0.003  0.00  0.00    -0.003 C 
BRANCH  14  17
ATOM     15  C   UNL     1       0.929   3.321   2.326  0.00  0.00    -0.096 C 
ATOM     16  C   UNL     1       1.163   5.349   1.025  0.00  0.00    -0.096 C 
ATOM     17  N   UNL     1       0.771   3.925   0.986  0.00  0.00    +0.382 N 
ATOM     18  H   UNL     1      -0.214   3.857   0.704  0.00  0.00    -0.082 HD
ENDBRANCH  14  17
ENDBRANCH   1  14
BRANCH   4  19
ATOM     19  S   UNL     1       1.768  -2.116  -0.027  0.00  0.00    -0.076 S 
BRANCH  19  20
ATOM     20  C   UNL     1       0.161  -2.948  -0.015  0.00  0.00    +0.173 C 
BRANCH  20  21
ATOM     21  C   UNL     1       0.367  -4.441  -0.026  0.00  0.00    +0.224 C 
ATOM     22  O   UNL     1       1.491  -4.897  -0.040  0.00  0.00    -0.275 OA
ATOM     23  N   UNL     1      -0.696  -5.269  -0.020  0.00  0.00    -0.309 N 
ATOM     24  H   UNL     1      -1.595  -4.904  -0.009  0.00  0.00    +0.149 HD
BRANCH  23  25
ATOM     25  C   UNL     1      -0.495  -6.720  -0.030  0.00  0.00    +0.035 C 
ATOM     26  C   UNL     1       0.277  -7.119  -1.289  0.00  0.00    +0.029 C 
ATOM     27  C   UNL     1       0.487  -8.634  -1.300  0.00  0.00    -0.008 C 
ATOM     28  C   UNL     1      -0.872  -9.338  -1.290  0.00  0.00    +0.007 C 
ATOM     29  C   UNL     1      -1.644  -8.938  -0.031  0.00  0.00    -0.008 C 
ATOM     30  C   UNL     1      -1.854  -7.423  -0.021  0.00  0.00    +0.029 C 
ATOM     31  C   UNL     1      -0.847  -9.351   1.208  0.00  0.00    +0.007 C 
ATOM     32  C   UNL     1       0.512  -8.648   1.198  0.00  0.00    -0.008 C 
ATOM     33  C   UNL     1       1.284  -9.047  -0.061  0.00  0.00    +0.007 C 
ATOM     34  C   UNL     1       0.302  -7.133   1.209  0.00  0.00    +0.029 C 
ENDBRANCH  23  25
ENDBRANCH  20  21
ENDBRANCH  19  20
ENDBRANCH   4  19
TORSDOF 7
