REMARK  Name = ZINC39380571
REMARK  8 active torsions:
REMARK  status: ('A' for Active; 'I' for Inactive)
REMARK    1  A    between atoms: C_1  and  O_2
REMARK    2  A    between atoms: O_2  and  C_3
REMARK    3  A    between atoms: C_8  and  C_13
REMARK    4  A    between atoms: C_15  and  C_19
REMARK    5  A    between atoms: C_19  and  N_20
REMARK    6  A    between atoms: N_20  and  C_21
REMARK    7  A    between atoms: C_21  and  C_22
REMARK    8  A    between atoms: C_27  and  C_28
REMARK                            x       y       z     vdW  Elec       q    Type
REMARK                         _______ _______ _______ _____ _____    ______ ____
ROOT
ATOM      1  C   UNL     1      -6.295  -4.611   0.041  0.00  0.00    +0.154 C 
ATOM      2  C   UNL     1      -6.617  -5.133   1.429  0.00  0.00    -0.039 C 
ATOM      3  C   UNL     1      -6.702  -6.455   1.263  0.00  0.00    +0.132 C 
ATOM      4  N   UNL     1      -6.476  -6.793  -0.026  0.00  0.00    -0.186 NA
ATOM      5  N   UNL     1      -6.244  -5.836  -0.775  0.00  0.00    -0.298 N 
ATOM      6  H   UNL     1      -6.062  -5.882  -1.727  0.00  0.00    +0.183 HD
ENDROOT
BRANCH   1  12
ATOM      7  C   UNL     1      -1.200  -0.637   0.010  0.00  0.00    +0.121 A 
ATOM      8  C   UNL     1      -2.378   0.117   0.020  0.00  0.00    +0.046 A 
ATOM      9  C   UNL     1      -3.595  -0.488   0.028  0.00  0.00    +0.012 A 
ATOM     10  C   UNL     1      -3.677  -1.891   0.026  0.00  0.00    -0.017 A 
ATOM     11  C   UNL     1      -4.919  -2.549   0.034  0.00  0.00    +0.014 A 
ATOM     12  C   UNL     1      -4.961  -3.909   0.032  0.00  0.00    -0.019 A 
ATOM     13  C   UNL     1      -3.789  -4.664   0.022  0.00  0.00    +0.006 A 
ATOM     14  C   UNL     1      -2.568  -4.061   0.014  0.00  0.00    +0.009 A 
ATOM     15  C   UNL     1      -2.485  -2.658   0.016  0.00  0.00    -0.014 A 
ATOM     16  C   UNL     1      -1.243  -2.002   0.003  0.00  0.00    +0.054 A 
BRANCH   7  18
ATOM     17  C   UNL     1      -0.017   1.425   0.010  0.00  0.00    +0.277 C 
ATOM     18  O   UNL     1       0.002  -0.004   0.002  0.00  0.00    -0.495 OA
ENDBRANCH   7  18
ENDBRANCH   1  12
BRANCH   2  19
ATOM     19  C   UNL     1      -6.798  -4.344   2.700  0.00  0.00    -0.047 C 
BRANCH  19  20
ATOM     20  N   UNL     1      -5.488  -4.106   3.320  0.00  0.00    +0.382 N 
ATOM     21  H   UNL     1      -5.051  -4.990   3.533  0.00  0.00    -0.085 HD
ATOM     22  H   UNL     1      -4.903  -3.587   2.682  0.00  0.00    -0.085 HD
BRANCH  20  23
ATOM     23  C   UNL     1      -5.665  -3.336   4.558  0.00  0.00    -0.067 C 
BRANCH  23  24
ATOM     24  C   UNL     1      -4.300  -3.088   5.204  0.00  0.00    +0.066 C 
ATOM     25  C   UNL     1      -3.476  -2.135   4.362  0.00  0.00    +0.115 C 
ATOM     26  N   UNL     1      -3.252  -1.101   5.106  0.00  0.00    -0.161 NA
ATOM     27  N   UNL     1      -3.823  -1.219   6.369  0.00  0.00    -0.153 NA
ATOM     28  C   UNL     1      -4.458  -2.353   6.521  0.00  0.00    +0.077 C 
BRANCH  28  29
ATOM     29  C   UNL     1      -5.176  -2.820   7.717  0.00  0.00    -0.001 A 
ATOM     30  C   UNL     1      -5.803  -4.070   7.717  0.00  0.00    +0.012 A 
ATOM     31  C   UNL     1      -6.474  -4.501   8.841  0.00  0.00    +0.039 A 
ATOM     32  C   UNL     1      -6.528  -3.698   9.970  0.00  0.00    +0.123 A 
ATOM     33  C   UNL     1      -5.908  -2.458   9.977  0.00  0.00    +0.039 A 
ATOM     34  C   UNL     1      -5.229  -2.017   8.861  0.00  0.00    +0.012 A 
ATOM     35  F   UNL     1      -7.188  -4.127  11.068  0.00  0.00    -0.205 F 
ENDBRANCH  28  29
ENDBRANCH  23  24
ENDBRANCH  20  23
ENDBRANCH  19  20
ENDBRANCH   2  19
TORSDOF 7
