REMARK  Name = ZINC59378731
REMARK  5 active torsions:
REMARK  status: ('A' for Active; 'I' for Inactive)
REMARK    1  A    between atoms: C_10  and  N_14
REMARK    2  A    between atoms: N_22  and  C_25
REMARK    3  A    between atoms: C_25  and  N_26
REMARK    4  A    between atoms: N_26  and  C_27
REMARK    5  A    between atoms: N_26  and  C_33
REMARK                            x       y       z     vdW  Elec       q    Type
REMARK                         _______ _______ _______ _____ _____    ______ ____
ROOT
ATOM      1  N   UNL     1       1.810  -5.846  -0.664  0.00  0.00    -0.242 NA
ATOM      2  C   UNL     1       1.895  -6.660   0.361  0.00  0.00    +0.135 C 
ATOM      3  C   UNL     1       2.961  -7.645   0.644  0.00  0.00    +0.027 A 
ATOM      4  C   UNL     1       4.128  -8.004  -0.026  0.00  0.00    +0.012 A 
ATOM      5  C   UNL     1       4.944  -8.985   0.500  0.00  0.00    +0.001 A 
ATOM      6  C   UNL     1       4.602  -9.609   1.688  0.00  0.00    +0.002 A 
ATOM      7  C   UNL     1       3.447  -9.261   2.360  0.00  0.00    +0.024 A 
ATOM      8  C   UNL     1       2.612  -8.274   1.847  0.00  0.00    +0.044 A 
ATOM      9  N   UNL     1       1.414  -7.745   2.315  0.00  0.00    -0.282 N 
ATOM     10  C   UNL     1       0.944  -6.791   1.493  0.00  0.00    +0.268 C 
ATOM     11  O   UNL     1      -0.078  -6.152   1.648  0.00  0.00    -0.268 OA
ENDROOT
BRANCH   1  21
ATOM     12  C   UNL     1      -4.212  -0.691  -1.333  0.00  0.00    +0.001 A 
ATOM     13  C   UNL     1      -3.391   0.371  -1.679  0.00  0.00    +0.004 A 
ATOM     14  C   UNL     1      -2.026   0.202  -1.774  0.00  0.00    +0.047 A 
ATOM     15  C   UNL     1      -1.459  -1.042  -1.524  0.00  0.00    +0.136 A 
ATOM     16  C   UNL     1      -2.292  -2.115  -1.174  0.00  0.00    +0.028 A 
ATOM     17  C   UNL     1      -3.668  -1.932  -1.080  0.00  0.00    +0.012 A 
ATOM     18  C   UNL     1      -1.397  -3.270  -0.978  0.00  0.00    +0.028 A 
ATOM     19  C   UNL     1      -1.604  -4.603  -0.627  0.00  0.00    +0.014 A 
ATOM     20  C   UNL     1      -0.545  -5.456  -0.523  0.00  0.00    +0.028 A 
ATOM     21  C   UNL     1       0.758  -4.994  -0.769  0.00  0.00    +0.068 A 
ATOM     22  C   UNL     1       0.975  -3.657  -1.121  0.00  0.00    +0.074 A 
ATOM     23  C   UNL     1      -0.100  -2.791  -1.228  0.00  0.00    +0.138 A 
ATOM     24  O   UNL     1      -0.180  -1.479  -1.544  0.00  0.00    -0.455 OA
ENDBRANCH   1  21
BRANCH   9  25
ATOM     25  C   UNL     1       0.751  -8.169   3.550  0.00  0.00    +0.039 C 
BRANCH  25  26
ATOM     26  N   UNL     1       1.665  -7.983   4.686  0.00  0.00    +0.394 N 
ATOM     27  H   UNL     1       2.544  -8.438   4.487  0.00  0.00    -0.079 HD
BRANCH  26  28
ATOM     28  C   UNL     1       1.893  -6.548   4.900  0.00  0.00    -0.066 C 
ATOM     29  C   UNL     1       0.547  -5.826   4.994  0.00  0.00    -0.015 C 
ATOM     30  C   UNL     1       0.784  -4.332   5.218  0.00  0.00    -0.002 C 
ATOM     31  C   UNL     1       1.588  -3.762   4.047  0.00  0.00    -0.000 C 
ATOM     32  C   UNL     1       2.934  -4.484   3.954  0.00  0.00    -0.002 C 
ATOM     33  C   UNL     1       2.697  -5.979   3.730  0.00  0.00    -0.015 C 
ENDBRANCH  26  28
BRANCH  26  34
ATOM     34  C   UNL     1       1.071  -8.571   5.894  0.00  0.00    -0.066 C 
ATOM     35  C   UNL     1       2.040  -8.412   7.067  0.00  0.00    -0.015 C 
ATOM     36  C   UNL     1       1.421  -9.024   8.326  0.00  0.00    -0.002 C 
ATOM     37  C   UNL     1       1.148 -10.511   8.088  0.00  0.00    -0.000 C 
ATOM     38  C   UNL     1       0.179 -10.670   6.915  0.00  0.00    -0.002 C 
ATOM     39  C   UNL     1       0.797 -10.058   5.656  0.00  0.00    -0.015 C 
ENDBRANCH  26  34
ENDBRANCH  25  26
ENDBRANCH   9  25
TORSDOF 5
