REMARK  Name = ZINC08711950
REMARK  6 active torsions:
REMARK  status: ('A' for Active; 'I' for Inactive)
REMARK    1  A    between atoms: C_4  and  C_7
REMARK    2  A    between atoms: C_7  and  C_8
REMARK    3  A    between atoms: C_7  and  N_70
REMARK    4  A    between atoms: C_19  and  C_21
REMARK    5  A    between atoms: C_26  and  C_40
REMARK    6  A    between atoms: C_29  and  C_32
REMARK                            x       y       z     vdW  Elec       q    Type
REMARK                         _______ _______ _______ _____ _____    ______ ____
ROOT
ATOM      1  C   UNL     1       6.625  -0.559   1.548  0.00  0.00    -0.058 C 
ATOM      2  C   UNL     1       5.954   0.817   1.626  0.00  0.00    +0.089 C 
ATOM      3  N   UNL     1       4.590   0.702   1.087  0.00  0.00    -0.300 N 
ATOM      4  C   UNL     1       3.720  -0.359   1.616  0.00  0.00    +0.089 C 
ATOM      5  C   UNL     1       4.481  -1.692   1.534  0.00  0.00    -0.058 C 
ATOM      6  C   UNL     1       4.147   1.551   0.139  0.00  0.00    +0.267 C 
ATOM      7  O   UNL     1       2.992   1.495  -0.236  0.00  0.00    -0.268 OA
ATOM      8  N   UNL     1       5.770  -1.544   2.244  0.00  0.00    +0.389 N 
ATOM      9  H   UNL     1       5.588  -1.212   3.199  0.00  0.00    -0.080 HD
ENDROOT
BRANCH   6  10
ATOM     10  C   UNL     1       5.066   2.549  -0.446  0.00  0.00    +0.149 A 
ATOM     11  C   UNL     1       4.773   3.415  -1.524  0.00  0.00    +0.078 A 
ATOM     12  C   UNL     1       5.868   4.166  -1.752  0.00  0.00    +0.119 A 
ATOM     13  N   UNL     1       6.830   3.800  -0.854  0.00  0.00    -0.238 N 
ATOM     14  N   UNL     1       6.304   2.788  -0.051  0.00  0.00    -0.164 NA
ATOM     15  C   UNL     1       8.163   4.407  -0.797  0.00  0.00    +0.215 C 
ATOM     16  C   UNL     1       8.122   5.761  -1.515  0.00  0.00    +0.063 C 
ATOM     17  C   UNL     1       7.475   5.600  -2.895  0.00  0.00    +0.104 C 
ATOM     18  N   UNL     1       6.078   5.162  -2.711  0.00  0.00    -0.322 N 
ATOM     19  H   UNL     1       5.348   5.542  -3.224  0.00  0.00    +0.148 HD
BRANCH  17  20
ATOM     20  C   UNL     1       7.500   6.920  -3.622  0.00  0.00    -0.026 A 
ATOM     21  C   UNL     1       8.456   7.156  -4.593  0.00  0.00    +0.007 A 
ATOM     22  C   UNL     1       8.479   8.366  -5.261  0.00  0.00    +0.022 A 
ATOM     23  C   UNL     1       7.546   9.342  -4.958  0.00  0.00    +0.059 A 
ATOM     24  C   UNL     1       6.589   9.105  -3.986  0.00  0.00    +0.060 A 
ATOM     25  C   UNL     1       6.564   7.891  -3.322  0.00  0.00    +0.027 A 
ATOM     26 CL   UNL     1       5.418  10.328  -3.605  0.00  0.00    -0.082 Cl
ATOM     27 CL   UNL     1       7.576  10.862  -5.796  0.00  0.00    -0.082 Cl
ENDBRANCH  17  20
BRANCH  15  28
ATOM     28  C   UNL     1       8.570   4.614   0.664  0.00  0.00    +0.412 C 
ATOM     29  F   UNL     1       8.593   3.379   1.321  0.00  0.00    -0.168 F 
ATOM     30  F   UNL     1       9.842   5.194   0.716  0.00  0.00    -0.168 F 
ATOM     31  F   UNL     1       7.647   5.458   1.290  0.00  0.00    -0.168 F 
ENDBRANCH  15  28
ENDBRANCH   6  10
BRANCH   8  32
ATOM     32  C   UNL     1       6.459  -2.850   2.314  0.00  0.00    -0.007 C 
BRANCH  32  36
ATOM     33  C   UNL     1      10.085  -2.381   4.522  0.00  0.00    +0.000 A 
ATOM     34  C   UNL     1      10.045  -3.229   3.432  0.00  0.00    +0.000 A 
ATOM     35  C   UNL     1       8.872  -3.381   2.717  0.00  0.00    +0.002 A 
ATOM     36  C   UNL     1       7.738  -2.684   3.093  0.00  0.00    -0.057 A 
ATOM     37  C   UNL     1       7.780  -1.831   4.180  0.00  0.00    +0.002 A 
ATOM     38  C   UNL     1       8.952  -1.684   4.898  0.00  0.00    +0.000 A 
ENDBRANCH  32  36
BRANCH  32  39
ATOM     39  C   UNL     1       5.566  -3.837   3.019  0.00  0.00    -0.057 A 
ATOM     40  C   UNL     1       4.830  -3.440   4.120  0.00  0.00    +0.002 A 
ATOM     41  C   UNL     1       4.006  -4.345   4.764  0.00  0.00    +0.000 A 
ATOM     42  C   UNL     1       3.926  -5.649   4.313  0.00  0.00    +0.000 A 
ATOM     43  C   UNL     1       4.666  -6.048   3.216  0.00  0.00    +0.000 A 
ATOM     44  C   UNL     1       5.486  -5.141   2.568  0.00  0.00    +0.002 A 
ENDBRANCH  32  39
ENDBRANCH   8  32
TORSDOF 6
