REMARK  Name = ZINC09429640
REMARK  8 active torsions:
REMARK  status: ('A' for Active; 'I' for Inactive)
REMARK    1  A    between atoms: C_1  and  C_2
REMARK    2  A    between atoms: C_2  and  C_3
REMARK    3  A    between atoms: C_3  and  C_5
REMARK    4  A    between atoms: C_3  and  N_6
REMARK    5  A    between atoms: C_11  and  C_28
REMARK    6  A    between atoms: C_28  and  C_29
REMARK    7  A    between atoms: C_29  and  C_30
REMARK    8  A    between atoms: C_29  and  C_31
REMARK                            x       y       z     vdW  Elec       q    Type
REMARK                         _______ _______ _______ _____ _____    ______ ____
ROOT
ATOM      1  N   UNL     1       2.063  -1.631  -1.332  0.00  0.00    -0.239 N 
ATOM      2  C   UNL     1       3.292  -1.829  -0.841  0.00  0.00    +0.224 C 
ATOM      3  O   UNL     1       3.758  -2.904  -0.533  0.00  0.00    -0.275 OA
ATOM      4  C   UNL     1       4.007  -0.502  -0.730  0.00  0.00    +0.073 C 
ATOM      5  C   UNL     1       4.207  -0.153   0.760  0.00  0.00    -0.057 C 
ATOM      6  C   UNL     1       2.617   1.373  -0.013  0.00  0.00    +0.050 C 
ATOM      7  C   UNL     1       2.953   0.519  -1.241  0.00  0.00    +0.088 C 
ATOM      8  C   UNL     1       1.768  -0.352  -1.594  0.00  0.00    +0.225 C 
ATOM      9  O   UNL     1       0.716   0.046  -2.045  0.00  0.00    -0.275 OA
ATOM     10  C   UNL     1       1.171   1.780   0.000  0.00  0.00    -0.027 A 
ATOM     11  C   UNL     1      -0.013   1.076   0.008  0.00  0.00    +0.019 A 
ATOM     12  C   UNL     1      -1.221   1.751   0.017  0.00  0.00    +0.018 A 
ATOM     13  C   UNL     1      -1.236   3.135   0.030  0.00  0.00    +0.017 A 
ATOM     14  C   UNL     1      -0.053   3.844   0.022  0.00  0.00    +0.024 A 
ATOM     15  C   UNL     1       1.167   3.172   0.007  0.00  0.00    +0.036 A 
ATOM     16  N   UNL     1       2.476   3.658  -0.004  0.00  0.00    -0.286 N 
ATOM     17  C   UNL     1       3.387   2.666  -0.015  0.00  0.00    +0.211 C 
ATOM     18  O   UNL     1       4.593   2.790  -0.026  0.00  0.00    -0.277 OA
ATOM     19 BR   UNL     1      -2.847   0.785   0.020  0.00  0.00    -0.050 Br
ATOM     20  H   UNL     1       2.704   4.601  -0.003  0.00  0.00    +0.155 HD
ATOM     21  N   UNL     1       2.976   0.549   1.128  0.00  0.00    +0.394 N 
ATOM     22  H   UNL     1       3.136   1.137   1.955  0.00  0.00    -0.083 HD
ATOM     23  H   UNL     1       2.229  -0.126   1.329  0.00  0.00    -0.083 HD
ENDROOT
BRANCH   1  24
ATOM     24  C   UNL     1       1.117  -2.725  -1.565  0.00  0.00    +0.081 C 
ATOM     25  C   UNL     1       1.719  -3.715  -2.565  0.00  0.00    +0.028 C 
BRANCH  24  27
ATOM     26  C   UNL     1       0.118  -2.488   0.712  0.00  0.00    +0.006 C 
ATOM     27  C   UNL     1       0.833  -3.444  -0.245  0.00  0.00    +0.019 C 
ENDBRANCH  24  27
ENDBRANCH   1  24
BRANCH   5  28
ATOM     28  C   UNL     1       4.390  -1.429   1.585  0.00  0.00    -0.012 C 
BRANCH  28  29
ATOM     29  C   UNL     1       4.635  -1.058   3.050  0.00  0.00    -0.019 C 
ATOM     30  C   UNL     1       4.694  -2.332   3.895  0.00  0.00    +0.007 C 
ATOM     31  C   UNL     1       5.960  -0.304   3.171  0.00  0.00    +0.007 C 
ENDBRANCH  28  29
ENDBRANCH   5  28
TORSDOF 4
