REMARK  Name = ZINC35993566
REMARK  15 active torsions:
REMARK  status: ('A' for Active; 'I' for Inactive)
REMARK    1  A    between atoms: C_1  and  C_2
REMARK    2  A    between atoms: C_2  and  C_4
REMARK    3  A    between atoms: C_2  and  N_15
REMARK    4  A    between atoms: N_15  and  C_16
REMARK    5  A    between atoms: C_16  and  C_17
REMARK    6  A    between atoms: C_17  and  C_18
REMARK    7  A    between atoms: C_18  and  C_19
REMARK    8  A    between atoms: C_19  and  C_20
REMARK    9  A    between atoms: C_20  and  C_21
REMARK   10  A    between atoms: C_21  and  C_22
REMARK   11  A    between atoms: C_22  and  C_23
REMARK   12  A    between atoms: C_23  and  N_24
REMARK   13  A    between atoms: N_24  and  C_25
REMARK   14  A    between atoms: C_25  and  C_27
REMARK   15  A    between atoms: C_25  and  C_28
REMARK                            x       y       z     vdW  Elec       q    Type
REMARK                         _______ _______ _______ _____ _____    ______ ____
ROOT
ATOM      1  C   UNL     1       0.539  -0.679  -6.147  0.00  0.00    -0.000 C 
ENDROOT
BRANCH   1   2
ATOM      2  C   UNL     1      -0.177  -0.186  -4.889  0.00  0.00    -0.002 C 
BRANCH   2   3
ATOM      3  C   UNL     1       0.630  -0.587  -3.652  0.00  0.00    -0.019 C 
BRANCH   3   4
ATOM      4  C   UNL     1      -0.086  -0.093  -2.394  0.00  0.00    -0.082 C 
BRANCH   4   5
ATOM      5  N   UNL     1       0.690  -0.478  -1.207  0.00  0.00    +0.383 N 
ATOM      6  H   UNL     1       1.608  -0.063  -1.256  0.00  0.00    -0.085 HD
ATOM      7  H   UNL     1       0.776  -1.482  -1.172  0.00  0.00    -0.085 HD
BRANCH   5   9
ATOM      8  C   UNL     1      -0.019   1.526   0.010  0.00  0.00    -0.010 C 
ATOM      9  C   UNL     1       0.002  -0.004   0.002  0.00  0.00    -0.030 C 
BRANCH   9  10
ATOM     10  C   UNL     1       0.742  -0.511   1.242  0.00  0.00    +0.197 C 
ATOM     11  C   UNL     1       0.888  -2.037   1.169  0.00  0.00    +0.272 C 
ATOM     12  O   UNL     1       1.595  -2.475   2.334  0.00  0.00    -0.485 OA
ATOM     13  C   UNL     1       2.712  -1.774   2.672  0.00  0.00    +0.162 A 
ATOM     14  C   UNL     1       3.632  -2.337   3.543  0.00  0.00    +0.049 A 
ATOM     15  C   UNL     1       4.769  -1.636   3.898  0.00  0.00    +0.004 A 
ATOM     16  C   UNL     1       4.992  -0.372   3.385  0.00  0.00    +0.004 A 
ATOM     17  C   UNL     1       4.080   0.195   2.515  0.00  0.00    +0.049 A 
ATOM     18  C   UNL     1       2.938  -0.504   2.154  0.00  0.00    +0.162 A 
ATOM     19  O   UNL     1       2.052   0.064   1.290  0.00  0.00    -0.483 OA
ENDBRANCH   9  10
ENDBRANCH   5   9
ENDBRANCH   4   5
ENDBRANCH   3   4
ENDBRANCH   2   3
ENDBRANCH   1   2
BRANCH   1  20
ATOM     20  C   UNL     1      -0.268  -0.279  -7.384  0.00  0.00    -0.000 C 
BRANCH  20  21
ATOM     21  C   UNL     1       0.448  -0.772  -8.643  0.00  0.00    -0.002 C 
BRANCH  21  22
ATOM     22  C   UNL     1      -0.359  -0.371  -9.879  0.00  0.00    -0.019 C 
BRANCH  22  23
ATOM     23  C   UNL     1       0.357  -0.865 -11.138  0.00  0.00    -0.082 C 
BRANCH  23  24
ATOM     24  N   UNL     1      -0.419  -0.480 -12.325  0.00  0.00    +0.383 N 
ATOM     25  H   UNL     1      -1.337  -0.895 -12.276  0.00  0.00    -0.085 HD
ATOM     26  H   UNL     1      -0.505   0.524 -12.359  0.00  0.00    -0.085 HD
BRANCH  24  27
ATOM     27  C   UNL     1       0.269  -0.954 -13.533  0.00  0.00    -0.030 C 
ATOM     28  C   UNL     1       0.290  -2.484 -13.542  0.00  0.00    -0.010 C 
BRANCH  27  29
ATOM     29  C   UNL     1      -0.471  -0.447 -14.773  0.00  0.00    +0.197 C 
ATOM     30  C   UNL     1      -0.508   1.087 -14.762  0.00  0.00    +0.272 C 
ATOM     31  O   UNL     1      -1.218   1.526 -15.925  0.00  0.00    -0.485 OA
ATOM     32  C   UNL     1      -2.390   0.893 -16.202  0.00  0.00    +0.162 A 
ATOM     33  C   UNL     1      -3.295   1.484 -17.071  0.00  0.00    +0.049 A 
ATOM     34  C   UNL     1      -4.488   0.852 -17.364  0.00  0.00    +0.004 A 
ATOM     35  C   UNL     1      -4.784  -0.371 -16.792  0.00  0.00    +0.004 A 
ATOM     36  C   UNL     1      -3.887  -0.965 -15.924  0.00  0.00    +0.049 A 
ATOM     37  C   UNL     1      -2.689  -0.335 -15.624  0.00  0.00    +0.162 A 
ATOM     38  O   UNL     1      -1.819  -0.929 -14.761  0.00  0.00    -0.483 OA
ENDBRANCH  27  29
ENDBRANCH  24  27
ENDBRANCH  23  24
ENDBRANCH  22  23
ENDBRANCH  21  22
ENDBRANCH  20  21
ENDBRANCH   1  20
TORSDOF 13
