REMARK  Name = ZINC36138992
REMARK  6 active torsions:
REMARK  status: ('A' for Active; 'I' for Inactive)
REMARK    1  A    between atoms: C_3  and  N_10
REMARK    2  A    between atoms: C_4  and  C_8
REMARK    3  A    between atoms: N_10  and  S_11
REMARK    4  A    between atoms: S_11  and  C_14
REMARK    5  A    between atoms: C_17  and  O_21
REMARK    6  A    between atoms: C_18  and  N_20
REMARK                            x       y       z     vdW  Elec       q    Type
REMARK                         _______ _______ _______ _____ _____    ______ ____
ROOT
ATOM      1  S   UNL     1       3.536   3.808  -0.013  0.00  0.00    +0.092 S 
ATOM      2  O   UNL     1       2.964   4.208  -1.251  0.00  0.00    -0.148 OA
ATOM      3  O   UNL     1       2.990   4.196   1.240  0.00  0.00    -0.148 OA
ENDROOT
BRANCH   1   4
ATOM      4  C   UNL     1       5.208   4.364  -0.027  0.00  0.00    +0.112 A 
ATOM      5  C   UNL     1       5.876   4.571   1.165  0.00  0.00    +0.032 A 
ATOM      6  C   UNL     1       7.188   5.007   1.161  0.00  0.00    +0.049 A 
ATOM      7  C   UNL     1       7.837   5.239  -0.041  0.00  0.00    +0.137 A 
ATOM      8  C   UNL     1       7.165   5.031  -1.243  0.00  0.00    +0.068 A 
ATOM      9  C   UNL     1       5.850   4.588  -1.231  0.00  0.00    +0.055 A 
BRANCH   8  10
ATOM     10  N   UNL     1       7.815   5.264  -2.461  0.00  0.00    -0.355 N 
ATOM     11  H   UNL     1       8.735   5.570  -2.468  0.00  0.00    +0.142 HD
ATOM     12  H   UNL     1       7.346   5.119  -3.297  0.00  0.00    +0.142 HD
ENDBRANCH   8  10
BRANCH   7  13
ATOM     13  O   UNL     1       9.128   5.668  -0.047  0.00  0.00    -0.505 OA
ATOM     14  H   UNL     1       9.780   4.955  -0.060  0.00  0.00    +0.292 HD
ENDBRANCH   7  13
ENDBRANCH   1   4
BRANCH   1  15
ATOM     15  N   UNL     1       3.571   2.152  -0.022  0.00  0.00    -0.096 NA
BRANCH  15  18
ATOM     16  C   UNL     1      -0.017   1.380   0.010  0.00  0.00    +0.005 A 
ATOM     17  C   UNL     1       1.164   2.096   0.002  0.00  0.00    +0.028 A 
ATOM     18  C   UNL     1       2.382   1.431  -0.013  0.00  0.00    +0.094 A 
ATOM     19  C   UNL     1       2.408   0.027  -0.021  0.00  0.00    +0.111 A 
ATOM     20  C   UNL     1       1.204  -0.685  -0.013  0.00  0.00    +0.143 A 
ATOM     21  C   UNL     1       0.002  -0.004   0.002  0.00  0.00    +0.040 A 
ATOM     22  F   UNL     1       1.217  -2.036  -0.021  0.00  0.00    -0.204 F 
BRANCH  19  23
ATOM     23  C   UNL     1       3.659  -0.670  -0.038  0.00  0.00    +0.104 C 
ATOM     24  N   UNL     1       4.651  -1.224  -0.051  0.00  0.00    -0.191 NA
ENDBRANCH  19  23
ENDBRANCH  15  18
ENDBRANCH   1  15
TORSDOF 6
