REMARK  Name = ZINC58123559
REMARK  6 active torsions:
REMARK  status: ('A' for Active; 'I' for Inactive)
REMARK    1  A    between atoms: C_4  and  N_9
REMARK    2  A    between atoms: C_5  and  C_7
REMARK    3  A    between atoms: C_10  and  C_12
REMARK    4  A    between atoms: C_12  and  N_13
REMARK    5  A    between atoms: N_16  and  C_19
REMARK    6  A    between atoms: C_24  and  O_25
REMARK                            x       y       z     vdW  Elec       q    Type
REMARK                         _______ _______ _______ _____ _____    ______ ____
ROOT
ATOM      1  N   UNL     1       7.198   0.331  -0.381  0.00  0.00    -0.291 NA
ATOM      2  C   UNL     1       7.093   1.107  -1.623  0.00  0.00    +0.104 C 
ATOM      3  C   UNL     1       8.133   2.232  -1.609  0.00  0.00    +0.120 C 
ATOM      4  N   UNL     1       9.456   1.641  -1.354  0.00  0.00    -0.325 N 
ATOM      5  C   UNL     1       9.606   0.740  -0.201  0.00  0.00    +0.120 C 
ATOM      6  C   UNL     1       8.507  -0.326  -0.272  0.00  0.00    +0.104 C 
ENDROOT
BRANCH   4   7
ATOM      7  C   UNL     1      10.544   1.930  -2.186  0.00  0.00    +0.072 A 
ATOM      8  C   UNL     1      11.372   3.006  -1.900  0.00  0.00    +0.027 A 
ATOM      9  C   UNL     1      12.446   3.289  -2.723  0.00  0.00    +0.002 A 
ATOM     10  C   UNL     1      12.698   2.502  -3.831  0.00  0.00    +0.004 A 
ATOM     11  C   UNL     1      11.877   1.427  -4.122  0.00  0.00    +0.047 A 
ATOM     12  C   UNL     1      10.802   1.134  -3.300  0.00  0.00    +0.138 A 
BRANCH  12  13
ATOM     13  O   UNL     1       9.997   0.075  -3.582  0.00  0.00    -0.505 OA
ATOM     14  H   UNL     1       9.249   0.291  -4.156  0.00  0.00    +0.292 HD
ENDBRANCH  12  13
ENDBRANCH   4   7
BRANCH   1  15
ATOM     15  C   UNL     1       6.107  -0.648  -0.278  0.00  0.00    +0.180 C 
BRANCH  15  17
ATOM     16  N   UNL     1       3.646  -0.623  -0.037  0.00  0.00    -0.283 N 
ATOM     17  C   UNL     1       4.792   0.077  -0.147  0.00  0.00    +0.231 C 
ATOM     18  O   UNL     1       4.766   1.289  -0.140  0.00  0.00    -0.274 OA
ATOM     19  H   UNL     1       3.671  -1.591   0.023  0.00  0.00    +0.155 HD
BRANCH  16  23
ATOM     20  C   UNL     1      -0.015   1.377   0.042  0.00  0.00    +0.001 A 
ATOM     21  C   UNL     1       1.105   1.945   0.627  0.00  0.00    +0.002 A 
ATOM     22  C   UNL     1       2.318   1.286   0.602  0.00  0.00    +0.024 A 
ATOM     23  C   UNL     1       2.422   0.045  -0.011  0.00  0.00    +0.051 A 
ATOM     24  C   UNL     1       1.290  -0.534  -0.604  0.00  0.00    +0.073 A 
ATOM     25  C   UNL     1       0.070   0.145  -0.571  0.00  0.00    +0.021 A 
BRANCH  24  26
ATOM     26  C   UNL     1       1.385  -1.814  -1.240  0.00  0.00    +0.101 C 
ATOM     27  N   UNL     1       1.460  -2.829  -1.744  0.00  0.00    -0.191 NA
ENDBRANCH  24  26
ENDBRANCH  16  23
ENDBRANCH  15  17
ENDBRANCH   1  15
TORSDOF 6
