REMARK  Name = ZINC15987218
REMARK  11 active torsions:
REMARK  status: ('A' for Active; 'I' for Inactive)
REMARK    1  A    between atoms: C_1  and  C_2
REMARK    2  A    between atoms: C_2  and  C_3
REMARK    3  A    between atoms: C_2  and  C_4
REMARK    4  A    between atoms: C_2  and  O_5
REMARK    5  A    between atoms: O_5  and  C_6
REMARK    6  A    between atoms: N_8  and  C_9
REMARK    7  A    between atoms: C_9  and  C_11
REMARK    8  A    between atoms: C_9  and  C_22
REMARK    9  A    between atoms: C_11  and  C_12
REMARK   10  A    between atoms: N_24  and  N_25
REMARK   11  A    between atoms: C_26  and  C_27
REMARK                            x       y       z     vdW  Elec       q    Type
REMARK                         _______ _______ _______ _____ _____    ______ ____
ROOT
ATOM      1  C   UNL     1      -0.019   1.526   0.010  0.00  0.00    +0.168 C 
ENDROOT
BRANCH   1   4
ATOM      2  C   UNL     1      -0.228   1.672   2.434  0.00  0.00    +0.401 C 
ATOM      3  O   UNL     1       0.770   0.987   2.532  0.00  0.00    -0.226 OA
ATOM      4  N   UNL     1      -0.704   1.998   1.216  0.00  0.00    -0.269 N 
ATOM      5  H   UNL     1      -1.501   2.546   1.137  0.00  0.00    +0.153 HD
BRANCH   2   6
ATOM      6  O   UNL     1      -0.858   2.107   3.541  0.00  0.00    -0.445 OA
BRANCH   6   8
ATOM      7  C   UNL     1       1.141   2.250   4.924  0.00  0.00    +0.055 C 
ATOM      8  C   UNL     1      -0.289   1.717   4.819  0.00  0.00    +0.107 C 
ATOM      9  C   UNL     1      -1.135   2.300   5.953  0.00  0.00    +0.055 C 
ATOM     10  C   UNL     1      -0.273   0.191   4.926  0.00  0.00    +0.055 C 
ENDBRANCH   6   8
ENDBRANCH   2   6
ENDBRANCH   1   4
BRANCH   1  11
ATOM     11  C   UNL     1       1.395   2.047  -0.000  0.00  0.00    +0.253 C 
ATOM     12  O   UNL     1       1.911   2.423   1.031  0.00  0.00    -0.272 OA
ATOM     13  N   UNL     1       2.087   2.097  -1.156  0.00  0.00    -0.205 N 
ATOM     14  H   UNL     1       1.674   1.796  -1.981  0.00  0.00    +0.177 HD
BRANCH  13  15
ATOM     15  N   UNL     1       3.401   2.582  -1.166  0.00  0.00    -0.188 NA
ATOM     16  C   UNL     1       4.067   2.629  -2.279  0.00  0.00    +0.138 C 
BRANCH  16  17
ATOM     17  C   UNL     1       5.450   3.139  -2.290  0.00  0.00    -0.003 A 
ATOM     18  C   UNL     1       6.041   3.579  -1.090  0.00  0.00    +0.011 A 
ATOM     19  C   UNL     1       7.314   4.048  -1.075  0.00  0.00    +0.030 A 
ATOM     20  C   UNL     1       8.059   4.109  -2.268  0.00  0.00    +0.089 A 
ATOM     21  C   UNL     1       7.472   3.675  -3.484  0.00  0.00    +0.090 A 
ATOM     22  C   UNL     1       6.156   3.188  -3.481  0.00  0.00    +0.039 A 
ATOM     23  N   UNL     1       8.180   3.735  -4.618  0.00  0.00    -0.252 NA
ATOM     24  C   UNL     1       9.411   4.195  -4.594  0.00  0.00    +0.131 A 
ATOM     25  C   UNL     1       9.987   4.623  -3.397  0.00  0.00    +0.131 A 
ATOM     26  N   UNL     1       9.312   4.574  -2.271  0.00  0.00    -0.252 NA
ENDBRANCH  16  17
ENDBRANCH  13  15
ENDBRANCH   1  11
BRANCH   1  27
ATOM     27  C   UNL     1       0.002  -0.004   0.002  0.00  0.00    +0.069 C 
BRANCH  27  28
ATOM     28  C   UNL     1      -1.407  -0.525  -0.111  0.00  0.00    -0.020 A 
ATOM     29  C   UNL     1      -2.203  -0.902   0.902  0.00  0.00    +0.087 A 
ATOM     30  N   UNL     1      -3.413  -1.316   0.416  0.00  0.00    -0.360 N 
ATOM     31  H   UNL     1      -4.153  -1.633   0.958  0.00  0.00    +0.165 HD
ATOM     32  C   UNL     1      -3.423  -1.222  -0.958  0.00  0.00    +0.047 A 
ATOM     33  C   UNL     1      -2.167  -0.722  -1.348  0.00  0.00    +0.003 A 
ATOM     34  C   UNL     1      -1.887  -0.520  -2.701  0.00  0.00    +0.010 A 
ATOM     35  C   UNL     1      -2.837  -0.809  -3.640  0.00  0.00    +0.001 A 
ATOM     36  C   UNL     1      -4.077  -1.303  -3.260  0.00  0.00    +0.002 A 
ATOM     37  C   UNL     1      -4.374  -1.510  -1.931  0.00  0.00    +0.026 A 
ENDBRANCH  27  28
ENDBRANCH   1  27
TORSDOF 8
