REMARK  Name = ZINC36313711
REMARK  15 active torsions:
REMARK  status: ('A' for Active; 'I' for Inactive)
REMARK    1  A    between atoms: C_1  and  C_2
REMARK    2  A    between atoms: C_2  and  C_3
REMARK    3  A    between atoms: C_3  and  C_4
REMARK    4  A    between atoms: C_4  and  C_5
REMARK    5  A    between atoms: C_5  and  C_7
REMARK    6  A    between atoms: C_5  and  O_37
REMARK    7  A    between atoms: C_7  and  N_8
REMARK    8  A    between atoms: N_8  and  C_9
REMARK    9  A    between atoms: N_8  and  C_30
REMARK   10  A    between atoms: C_9  and  C_10
REMARK   11  A    between atoms: C_11  and  C_29
REMARK   12  A    between atoms: N_13  and  C_23
REMARK   13  A    between atoms: C_14  and  O_15
REMARK   14  A    between atoms: O_15  and  C_16
REMARK   15  A    between atoms: C_30  and  C_31
REMARK                            x       y       z     vdW  Elec       q    Type
REMARK                         _______ _______ _______ _____ _____    ______ ____
ROOT
ATOM      1  C   UNL     1      -6.204  -6.452  -0.472  0.00  0.00    +0.021 A 
ATOM      2  C   UNL     1      -7.228  -6.519   0.478  0.00  0.00    +0.065 A 
ATOM      3  N   UNL     1      -8.375  -6.404  -0.142  0.00  0.00    -0.168 NA
ATOM      4  N   UNL     1      -8.125  -6.258  -1.512  0.00  0.00    -0.200 N 
ATOM      5  C   UNL     1      -6.777  -6.285  -1.693  0.00  0.00    +0.225 A 
ATOM      6  C   UNL     1      -7.043  -6.696   1.963  0.00  0.00    +0.068 C 
ENDROOT
BRANCH   4   7
ATOM      7  C   UNL     1      -9.090  -6.106  -2.517  0.00  0.00    +0.069 A 
ATOM      8  C   UNL     1      -8.854  -5.251  -3.585  0.00  0.00    +0.028 A 
ATOM      9  C   UNL     1      -9.807  -5.104  -4.574  0.00  0.00    +0.002 A 
ATOM     10  C   UNL     1     -10.996  -5.806  -4.500  0.00  0.00    +0.000 A 
ATOM     11  C   UNL     1     -11.234  -6.658  -3.437  0.00  0.00    +0.002 A 
ATOM     12  C   UNL     1     -10.283  -6.814  -2.448  0.00  0.00    +0.028 A 
ENDBRANCH   4   7
BRANCH   1  13
ATOM     13  C   UNL     1      -4.726  -6.541  -0.190  0.00  0.00    -0.036 C 
BRANCH  13  14
ATOM     14  N   UNL     1      -4.194  -5.196   0.065  0.00  0.00    +0.386 N 
ATOM     15  H   UNL     1      -4.382  -4.604  -0.730  0.00  0.00    -0.081 HD
BRANCH  14  16
ATOM     16  C   UNL     1      -2.743  -5.277   0.283  0.00  0.00    -0.047 C 
BRANCH  16  17
ATOM     17  C   UNL     1      -2.053  -5.683  -1.021  0.00  0.00    +0.098 C 
BRANCH  17  18
ATOM     18  O   UNL     1      -2.405  -7.029  -1.346  0.00  0.00    -0.394 OA
ATOM     19  H   UNL     1      -2.149  -7.676  -0.674  0.00  0.00    +0.210 HD
ENDBRANCH  17  18
BRANCH  17  20
ATOM     20  C   UNL     1      -0.537  -5.579  -0.849  0.00  0.00    +0.029 C 
BRANCH  20  21
ATOM     21  C   UNL     1       0.149  -5.864  -2.187  0.00  0.00    +0.002 C 
BRANCH  21  23
ATOM     22  C   UNL     1       2.351  -6.046  -3.353  0.00  0.00    +0.004 C 
ATOM     23  C   UNL     1       1.666  -5.761  -2.015  0.00  0.00    -0.003 C 
ENDBRANCH  21  23
ENDBRANCH  20  21
ENDBRANCH  17  20
ENDBRANCH  16  17
ENDBRANCH  14  16
BRANCH  14  24
ATOM     24  C   UNL     1      -4.838  -4.633   1.259  0.00  0.00    -0.046 C 
BRANCH  24  25
ATOM     25  C   UNL     1      -4.389  -3.182   1.445  0.00  0.00    +0.102 C 
ATOM     26  C   UNL     1      -5.001  -2.605   2.739  0.00  0.00    +0.032 C 
ATOM     27  C   UNL     1      -5.359  -1.155   2.317  0.00  0.00    +0.030 C 
ATOM     28  C   UNL     1      -5.752  -1.369   0.833  0.00  0.00    +0.160 C 
ATOM     29  O   UNL     1      -4.856  -2.385   0.350  0.00  0.00    -0.378 OA
ENDBRANCH  24  25
ENDBRANCH  14  24
ENDBRANCH  13  14
ENDBRANCH   1  13
BRANCH   5  30
ATOM     30  O   UNL     1      -6.124  -6.169  -2.877  0.00  0.00    -0.436 OA
BRANCH  30  31
ATOM     31  C   UNL     1      -5.958  -7.291  -3.627  0.00  0.00    +0.149 A 
ATOM     32  C   UNL     1      -6.541  -8.485  -3.229  0.00  0.00    +0.048 A 
ATOM     33  C   UNL     1      -6.371  -9.624  -3.992  0.00  0.00    +0.004 A 
ATOM     34  C   UNL     1      -5.621  -9.575  -5.153  0.00  0.00    +0.002 A 
ATOM     35  C   UNL     1      -5.039  -8.386  -5.553  0.00  0.00    +0.024 A 
ATOM     36  C   UNL     1      -5.210  -7.242  -4.796  0.00  0.00    +0.083 A 
ATOM     37 CL   UNL     1      -4.485  -5.748  -5.302  0.00  0.00    -0.080 Cl
ENDBRANCH  30  31
ENDBRANCH   5  30
TORSDOF 13
