REMARK  Name = ZINC39674721
REMARK  8 active torsions:
REMARK  status: ('A' for Active; 'I' for Inactive)
REMARK    1  A    between atoms: C_1  and  C_2
REMARK    2  A    between atoms: C_4  and  C_14
REMARK    3  A    between atoms: C_7  and  C_12
REMARK    4  A    between atoms: C_14  and  C_15
REMARK    5  A    between atoms: C_15  and  N_16
REMARK    6  A    between atoms: C_17  and  C_19
REMARK    7  A    between atoms: C_30  and  C_32
REMARK    8  A    between atoms: C_32  and  C_38
REMARK                            x       y       z     vdW  Elec       q    Type
REMARK                         _______ _______ _______ _____ _____    ______ ____
ROOT
ATOM      1  C   UNL     1       1.386  -0.990  -7.422  0.00  0.00    +0.100 C 
ATOM      2  C   UNL     1       0.066  -1.720  -7.754  0.00  0.00    +0.121 C 
ATOM      3  N   UNL     1       0.253  -2.222  -9.136  0.00  0.00    -0.300 N 
ATOM      4  C   UNL     1       1.664  -2.676  -9.175  0.00  0.00    +0.115 C 
ATOM      5  C   UNL     1       2.432  -1.621  -8.356  0.00  0.00    -0.004 C 
ATOM      6  C   UNL     1       3.021  -0.560  -9.282  0.00  0.00    -0.010 C 
ATOM      7  C   UNL     1       4.099  -1.200 -10.162  0.00  0.00    -0.082 C 
ATOM      8  N   UNL     1       5.149  -1.775  -9.313  0.00  0.00    +0.379 N 
ATOM      9  C   UNL     1       4.593  -2.857  -8.492  0.00  0.00    -0.082 C 
ATOM     10  C   UNL     1       3.536  -2.287  -7.541  0.00  0.00    -0.010 C 
ATOM     11  C   UNL     1      -0.654  -2.257 -10.132  0.00  0.00    +0.222 C 
ATOM     12  O   UNL     1      -0.373  -2.777 -11.191  0.00  0.00    -0.275 OA
ATOM     13  H   UNL     1       5.887  -2.142  -9.895  0.00  0.00    -0.086 HD
ATOM     14  H   UNL     1       5.524  -1.057  -8.711  0.00  0.00    -0.086 HD
ENDROOT
BRANCH  11  15
ATOM     15  C   UNL     1      -2.019  -1.651  -9.930  0.00  0.00    +0.044 C 
ATOM     16  C   UNL     1      -2.675  -2.270  -8.694  0.00  0.00    +0.016 C 
ATOM     17  C   UNL     1      -2.812  -3.780  -8.892  0.00  0.00    +0.001 C 
ATOM     18  C   UNL     1      -3.680  -4.056 -10.122  0.00  0.00    +0.000 C 
ATOM     19  C   UNL     1      -3.025  -3.437 -11.358  0.00  0.00    +0.001 C 
ATOM     20  C   UNL     1      -2.887  -1.926 -11.159  0.00  0.00    +0.016 C 
ATOM     21  C   UNL     1      -1.881  -0.140  -9.731  0.00  0.00    +0.021 C 
ENDBRANCH  11  15
BRANCH   1  23
ATOM     22  N   UNL     1       2.615  -0.374  -5.365  0.00  0.00    -0.315 N 
ATOM     23  C   UNL     1       1.764  -1.218  -5.981  0.00  0.00    +0.218 C 
ATOM     24  O   UNL     1       1.302  -2.162  -5.375  0.00  0.00    -0.275 OA
ATOM     25  H   UNL     1       2.985   0.381  -5.850  0.00  0.00    +0.149 HD
BRANCH  22  26
ATOM     26  C   UNL     1       2.983  -0.596  -3.965  0.00  0.00    +0.108 C 
BRANCH  26  27
ATOM     27  C   UNL     1       3.953   0.497  -3.513  0.00  0.00    +0.052 C 
BRANCH  27  30
ATOM     28  C   UNL     1       6.665   1.121  -1.850  0.00  0.00    +0.035 C 
ATOM     29  C   UNL     1       5.265   1.110  -1.232  0.00  0.00    +0.103 C 
ATOM     30  C   UNL     1       4.331   0.268  -2.072  0.00  0.00    -0.037 C 
ATOM     31  C   UNL     1       3.902  -0.736  -1.265  0.00  0.00    +0.000 A 
ATOM     32  C   UNL     1       3.019  -1.823  -1.494  0.00  0.00    +0.028 A 
ATOM     33  C   UNL     1       2.748  -2.716  -0.483  0.00  0.00    +0.052 A 
ATOM     34  C   UNL     1       3.353  -2.574   0.837  0.00  0.00    +0.021 A 
ATOM     35  C   UNL     1       4.200  -1.560   1.112  0.00  0.00    +0.027 A 
ATOM     36  C   UNL     1       4.522  -0.579   0.070  0.00  0.00    +0.043 A 
ATOM     37  N   UNL     1       5.301   0.477   0.090  0.00  0.00    -0.378 N 
ATOM     38  H   UNL     1       5.816   0.787   0.852  0.00  0.00    +0.160 HD
BRANCH  33  39
ATOM     39  C   UNL     1       1.855  -3.808  -0.732  0.00  0.00    +0.099 C 
ATOM     40  N   UNL     1       1.146  -4.673  -0.929  0.00  0.00    -0.191 NA
ENDBRANCH  33  39
ENDBRANCH  27  30
ENDBRANCH  26  27
ENDBRANCH  22  26
ENDBRANCH   1  23
TORSDOF 6
