REMARK  Name = ZINC35991080
REMARK  10 active torsions:
REMARK  status: ('A' for Active; 'I' for Inactive)
REMARK    1  A    between atoms: C_1  and  C_2
REMARK    2  A    between atoms: C_2  and  N_3
REMARK    3  A    between atoms: C_4  and  C_23
REMARK    4  A    between atoms: C_5  and  C_18
REMARK    5  A    between atoms: C_6  and  C_11
REMARK    6  A    between atoms: C_18  and  O_20
REMARK    7  A    between atoms: O_20  and  C_21
REMARK    8  A    between atoms: C_21  and  C_22
REMARK    9  A    between atoms: C_23  and  N_24
REMARK   10  A    between atoms: C_27  and  C_30
REMARK                            x       y       z     vdW  Elec       q    Type
REMARK                         _______ _______ _______ _____ _____    ______ ____
ROOT
ATOM      1  N   UNL     1       1.283  -0.575  -1.154  0.00  0.00    -0.261 N 
ATOM      2  C   UNL     1       0.704  -1.052  -2.295  0.00  0.00    +0.010 C 
ATOM      3  C   UNL     1       1.431  -1.250  -3.416  0.00  0.00    +0.077 C 
ATOM      4  C   UNL     1       2.910  -0.924  -3.364  0.00  0.00    +0.146 C 
ATOM      5  N   UNL     1       3.436  -0.415  -2.086  0.00  0.00    -0.288 N 
ATOM      6  C   UNL     1       2.582  -0.267  -1.054  0.00  0.00    +0.307 C 
ATOM      7  O   UNL     1       3.006   0.156   0.004  0.00  0.00    -0.252 OA
ATOM      8  H   UNL     1       4.375  -0.189  -1.991  0.00  0.00    +0.151 HD
ENDROOT
BRANCH   4   9
ATOM      9  C   UNL     1       3.674  -2.174  -3.715  0.00  0.00    +0.013 A 
ATOM     10  C   UNL     1       4.239  -2.310  -4.969  0.00  0.00    +0.008 A 
ATOM     11  C   UNL     1       4.940  -3.457  -5.292  0.00  0.00    +0.001 A 
ATOM     12  C   UNL     1       5.076  -4.470  -4.360  0.00  0.00    +0.003 A 
ATOM     13  C   UNL     1       4.512  -4.336  -3.106  0.00  0.00    +0.039 A 
ATOM     14  C   UNL     1       3.814  -3.186  -2.780  0.00  0.00    +0.129 A 
ATOM     15  F   UNL     1       3.266  -3.052  -1.552  0.00  0.00    -0.205 F 
ENDBRANCH   4   9
BRANCH   1  17
ATOM     16  C   UNL     1      -0.058   1.063   0.070  0.00  0.00    +0.025 C 
ATOM     17  C   UNL     1       0.435  -0.385   0.025  0.00  0.00    +0.111 C 
ENDBRANCH   1  17
BRANCH   3  18
ATOM     18  C   UNL     1       0.832  -1.744  -4.598  0.00  0.00    +0.339 C 
ATOM     19  O   UNL     1      -0.371  -1.922  -4.643  0.00  0.00    -0.245 OA
BRANCH  18  20
ATOM     20  O   UNL     1       1.595  -2.019  -5.677  0.00  0.00    -0.462 OA
BRANCH  20  21
ATOM     21  C   UNL     1       0.924  -2.516  -6.837  0.00  0.00    +0.229 C 
ATOM     22  C   UNL     1       1.945  -2.767  -7.948  0.00  0.00    +0.048 C 
ENDBRANCH  20  21
ENDBRANCH  18  20
ENDBRANCH   3  18
BRANCH   2  23
ATOM     23  C   UNL     1      -0.770  -1.363  -2.304  0.00  0.00    -0.026 C 
BRANCH  23  24
ATOM     24  N   UNL     1      -0.987  -2.724  -1.794  0.00  0.00    +0.383 N 
ATOM     25  C   UNL     1      -0.390  -3.693  -2.722  0.00  0.00    -0.078 C 
ATOM     26  C   UNL     1      -0.541  -5.106  -2.156  0.00  0.00    -0.016 C 
ATOM     27  C   UNL     1      -2.029  -5.421  -1.973  0.00  0.00    -0.018 C 
ATOM     28  C   UNL     1      -2.657  -4.362  -1.063  0.00  0.00    -0.016 C 
ATOM     29  C   UNL     1      -2.427  -2.975  -1.670  0.00  0.00    -0.078 C 
ATOM     30  C   UNL     1      -2.185  -6.802  -1.334  0.00  0.00    +0.007 C 
ATOM     31  H   UNL     1      -0.551  -2.816  -0.889  0.00  0.00    -0.081 HD
ENDBRANCH  23  24
ENDBRANCH   2  23
TORSDOF 7
