REMARK  Name = ZINC08448549
REMARK  11 active torsions:
REMARK  status: ('A' for Active; 'I' for Inactive)
REMARK    1  A    between atoms: C_1  and  C_2
REMARK    2  A    between atoms: C_2  and  C_3
REMARK    3  A    between atoms: C_2  and  O_4
REMARK    4  A    between atoms: O_4  and  C_5
REMARK    5  A    between atoms: C_5  and  C_7
REMARK    6  A    between atoms: C_13  and  C_14
REMARK    7  A    between atoms: C_17  and  O_20
REMARK    8  A    between atoms: C_22  and  N_35
REMARK    9  A    between atoms: C_23  and  C_33
REMARK   10  A    between atoms: C_24  and  C_26
REMARK   11  A    between atoms: C_29  and  O_32
REMARK                            x       y       z     vdW  Elec       q    Type
REMARK                         _______ _______ _______ _____ _____    ______ ____
ROOT
ATOM      1  C   UNL     1      -1.835   5.048   0.870  0.00  0.00    +0.080 C 
ATOM      2  C   UNL     1      -2.806   5.706   0.161  0.00  0.00    +0.100 A 
ATOM      3  N   UNL     1      -2.776   7.055  -0.126  0.00  0.00    -0.257 N 
ATOM      4  C   UNL     1      -3.807   7.568  -0.828  0.00  0.00    +0.271 A 
ATOM      5  O   UNL     1      -3.837   8.750  -1.117  0.00  0.00    -0.266 OA
ATOM      6  C   UNL     1      -4.882   6.664  -1.252  0.00  0.00    +0.079 A 
ATOM      7  C   UNL     1      -6.007   6.936  -1.961  0.00  0.00    +0.028 C 
ATOM      8  S   UNL     1      -4.318   5.113  -0.570  0.00  0.00    -0.065 S 
ATOM      9  C   UNL     1      -1.690   7.821   0.313  0.00  0.00    +0.118 C 
ATOM     10  C   UNL     1      -0.652   7.321   1.017  0.00  0.00    +0.079 C 
ATOM     11  C   UNL     1      -0.643   5.846   1.362  0.00  0.00    +0.102 C 
ENDROOT
BRANCH   7  12
ATOM     12  C   UNL     1      -6.877   5.840  -2.406  0.00  0.00    -0.024 A 
ATOM     13  C   UNL     1      -6.353   4.554  -2.584  0.00  0.00    +0.011 A 
ATOM     14  C   UNL     1      -7.174   3.529  -2.996  0.00  0.00    +0.046 A 
ATOM     15  C   UNL     1      -8.520   3.772  -3.246  0.00  0.00    +0.117 A 
ATOM     16  C   UNL     1      -9.045   5.048  -3.077  0.00  0.00    +0.046 A 
ATOM     17  C   UNL     1      -8.234   6.079  -2.660  0.00  0.00    +0.011 A 
BRANCH  15  18
ATOM     18  O   UNL     1      -9.325   2.758  -3.657  0.00  0.00    -0.507 OA
ATOM     19  H   UNL     1      -9.367   2.655  -4.617  0.00  0.00    +0.292 HD
ENDBRANCH  15  18
ENDBRANCH   7  12
BRANCH  11  20
ATOM     20  C   UNL     1       0.606   5.233   0.783  0.00  0.00    -0.034 A 
ATOM     21  C   UNL     1       0.766   5.159  -0.589  0.00  0.00    +0.008 A 
ATOM     22  C   UNL     1       1.912   4.603  -1.122  0.00  0.00    +0.046 A 
ATOM     23  C   UNL     1       2.898   4.108  -0.281  0.00  0.00    +0.117 A 
ATOM     24  C   UNL     1       2.732   4.178   1.094  0.00  0.00    +0.046 A 
ATOM     25  C   UNL     1       1.587   4.740   1.623  0.00  0.00    +0.008 A 
BRANCH  23  26
ATOM     26  O   UNL     1       4.024   3.554  -0.804  0.00  0.00    -0.507 OA
ATOM     27  H   UNL     1       3.958   2.603  -0.962  0.00  0.00    +0.292 HD
ENDBRANCH  23  26
ENDBRANCH  11  20
BRANCH   9  28
ATOM     28  N   UNL     1      -1.679   9.161   0.010  0.00  0.00    -0.343 N 
ATOM     29  H   UNL     1      -0.836   9.633  -0.075  0.00  0.00    +0.144 HD
ATOM     30  H   UNL     1      -2.515   9.636  -0.120  0.00  0.00    +0.144 HD
ENDBRANCH   9  28
BRANCH   1  31
ATOM     31  C   UNL     1      -1.939   3.675   1.129  0.00  0.00    +0.339 C 
ATOM     32  O   UNL     1      -2.904   3.050   0.725  0.00  0.00    -0.245 OA
BRANCH  31  33
ATOM     33  O   UNL     1      -0.968   3.043   1.825  0.00  0.00    -0.459 OA
BRANCH  33  35
ATOM     34  C   UNL     1      -0.502   0.859   0.902  0.00  0.00    +0.052 C 
ATOM     35  C   UNL     1      -1.139   1.643   2.051  0.00  0.00    +0.171 C 
ATOM     36  C   UNL     1      -0.465   1.254   3.369  0.00  0.00    +0.052 C 
ENDBRANCH  33  35
ENDBRANCH  31  33
ENDBRANCH   1  31
BRANCH  10  37
ATOM     37  C   UNL     1       0.424   8.171   1.430  0.00  0.00    +0.099 C 
ATOM     38  N   UNL     1       1.277   8.845   1.758  0.00  0.00    -0.191 NA
ENDBRANCH  10  37
TORSDOF 9
