REMARK  Name = ZINC12378872
REMARK  14 active torsions:
REMARK  status: ('A' for Active; 'I' for Inactive)
REMARK    1  A    between atoms: C_1  and  C_2
REMARK    2  A    between atoms: C_2  and  C_28
REMARK    3  A    between atoms: N_3  and  N_4
REMARK    4  A    between atoms: C_5  and  S_7
REMARK    5  A    between atoms: S_7  and  C_8
REMARK    6  A    between atoms: N_13  and  C_16
REMARK    7  A    between atoms: C_16  and  C_17
REMARK    8  A    between atoms: C_17  and  C_18
REMARK    9  A    between atoms: C_21  and  O_26
REMARK   10  A    between atoms: C_22  and  O_24
REMARK   11  A    between atoms: O_24  and  C_25
REMARK   12  A    between atoms: O_26  and  C_27
REMARK   13  A    between atoms: C_31  and  O_35
REMARK   14  A    between atoms: O_35  and  C_36
REMARK                            x       y       z     vdW  Elec       q    Type
REMARK                         _______ _______ _______ _____ _____    ______ ____
ROOT
ATOM      1  S   UNL     1      -2.981   8.009  -0.277  0.00  0.00    -0.078 S 
ENDROOT
BRANCH   1   2
ATOM      2  C   UNL     1      -4.111   6.599  -0.395  0.00  0.00    +0.149 C 
ATOM      3  C   UNL     1      -5.551   7.080  -0.670  0.00  0.00    +0.120 C 
ATOM      4  C   UNL     1      -6.323   6.593   0.537  0.00  0.00    +0.223 C 
ATOM      5  O   UNL     1      -7.509   6.761   0.726  0.00  0.00    -0.275 OA
ATOM      6  N   UNL     1      -5.490   5.949   1.363  0.00  0.00    -0.241 N 
ATOM      7  C   UNL     1      -4.221   5.892   0.938  0.00  0.00    +0.236 C 
ATOM      8  O   UNL     1      -3.307   5.359   1.528  0.00  0.00    -0.274 OA
BRANCH   6   9
ATOM      9  C   UNL     1      -5.930   5.354   2.628  0.00  0.00    +0.121 C 
BRANCH   9  10
ATOM     10  C   UNL     1      -5.799   6.387   3.749  0.00  0.00    +0.054 C 
BRANCH  10  11
ATOM     11  C   UNL     1      -6.252   5.776   5.050  0.00  0.00    -0.042 A 
ATOM     12  C   UNL     1      -7.576   5.874   5.435  0.00  0.00    +0.007 A 
ATOM     13  C   UNL     1      -7.997   5.310   6.625  0.00  0.00    +0.049 A 
ATOM     14  C   UNL     1      -7.089   4.654   7.440  0.00  0.00    +0.161 A 
ATOM     15  C   UNL     1      -5.755   4.560   7.056  0.00  0.00    +0.162 A 
ATOM     16  C   UNL     1      -5.340   5.123   5.859  0.00  0.00    +0.053 A 
BRANCH  15  17
ATOM     17  O   UNL     1      -4.859   3.917   7.853  0.00  0.00    -0.491 OA
ATOM     18  C   UNL     1      -3.507   3.859   7.394  0.00  0.00    +0.277 C 
ENDBRANCH  15  17
BRANCH  14  19
ATOM     19  O   UNL     1      -7.500   4.104   8.614  0.00  0.00    -0.491 OA
ATOM     20  C   UNL     1      -8.884   4.239   8.944  0.00  0.00    +0.277 C 
ENDBRANCH  14  19
ENDBRANCH  10  11
ENDBRANCH   9  10
ENDBRANCH   6   9
ENDBRANCH   1   2
BRANCH   1  22
ATOM     21  N   UNL     1      -0.336   7.833   0.097  0.00  0.00    -0.259 N 
ATOM     22  C   UNL     1      -1.445   7.158  -0.135  0.00  0.00    +0.146 C 
ATOM     23  N   UNL     1      -1.402   5.791  -0.267  0.00  0.00    -0.338 N 
ATOM     24  H   UNL     1      -2.326   5.228  -0.461  0.00  0.00    +0.144 HD
ATOM     25  H   UNL     1      -0.443   5.260  -0.179  0.00  0.00    +0.144 HD
ATOM     26  H   UNL     1       0.633   7.314   0.099  0.00  0.00    +0.191 HD
BRANCH  21  29
ATOM     27  C   UNL     1       0.665  11.272   0.673  0.00  0.00    +0.068 C 
ATOM     28  C   UNL     1       0.708   9.770   0.552  0.00  0.00    +0.066 C 
ATOM     29  N   UNL     1      -0.389   9.102   0.322  0.00  0.00    -0.177 NA
BRANCH  28  30
ATOM     30  C   UNL     1       1.988   9.057   0.692  0.00  0.00    +0.001 A 
ATOM     31  C   UNL     1       3.175   9.655   0.256  0.00  0.00    +0.013 A 
ATOM     32  C   UNL     1       4.371   8.982   0.385  0.00  0.00    +0.049 A 
ATOM     33  C   UNL     1       4.401   7.717   0.956  0.00  0.00    +0.155 A 
ATOM     34  C   UNL     1       3.224   7.119   1.396  0.00  0.00    +0.165 A 
ATOM     35  C   UNL     1       2.022   7.783   1.267  0.00  0.00    +0.051 A 
ATOM     36  F   UNL     1       3.259   5.888   1.952  0.00  0.00    -0.202 F 
BRANCH  33  37
ATOM     37  O   UNL     1       5.584   7.060   1.087  0.00  0.00    -0.492 OA
ATOM     38  C   UNL     1       6.754   7.731   0.614  0.00  0.00    +0.277 C 
ENDBRANCH  33  37
ENDBRANCH  28  30
ENDBRANCH  21  29
ENDBRANCH   1  22
TORSDOF 10
