REMARK  Name = ZINC39855933
REMARK  6 active torsions:
REMARK  status: ('A' for Active; 'I' for Inactive)
REMARK    1  A    between atoms: C_1  and  C_2
REMARK    2  A    between atoms: C_6  and  C_7
REMARK    3  A    between atoms: N_12  and  C_15
REMARK    4  A    between atoms: C_23  and  C_31
REMARK    5  A    between atoms: C_23  and  C_32
REMARK    6  A    between atoms: N_26  and  N_27
REMARK                            x       y       z     vdW  Elec       q    Type
REMARK                         _______ _______ _______ _____ _____    ______ ____
ROOT
ATOM      1  C   UNL     1       0.542   1.437   0.013  0.00  0.00    +0.048 C 
ATOM      2  C   UNL     1       0.189  -0.028   0.003  0.00  0.00    +0.009 A 
ATOM      3  C   UNL     1       0.027  -0.846  -1.122  0.00  0.00    +0.043 A 
ATOM      4  C   UNL     1      -0.292  -2.105  -0.674  0.00  0.00    +0.116 A 
ATOM      5  O   UNL     1      -0.325  -2.073   0.657  0.00  0.00    -0.454 OA
ATOM      6  C   UNL     1      -0.033  -0.825   1.091  0.00  0.00    +0.193 A 
ATOM      7  C   UNL     1      -0.548  -3.265  -1.601  0.00  0.00    +0.081 C 
ATOM      8  C   UNL     1      -0.904  -2.735  -2.993  0.00  0.00    -0.023 C 
ATOM      9  C   UNL     1       0.163  -1.750  -3.484  0.00  0.00    +0.064 C 
ATOM     10  C   UNL     1       0.151  -0.538  -2.564  0.00  0.00    +0.073 C 
ATOM     11  N   UNL     1       0.243   0.676  -3.012  0.00  0.00    -0.175 NA
ATOM     12  C   UNL     1      -0.995  -3.908  -3.971  0.00  0.00    +0.011 C 
ATOM     13  C   UNL     1      -2.257  -2.024  -2.932  0.00  0.00    +0.011 C 
ENDROOT
BRANCH  11  14
ATOM     14  N   UNL     1       0.358   0.908  -4.388  0.00  0.00    -0.248 N 
ATOM     15  C   UNL     1       0.455   2.190  -4.861  0.00  0.00    +0.187 C 
ATOM     16  N   UNL     1       0.564   2.411  -6.170  0.00  0.00    -0.370 N 
ATOM     17  N   UNL     1       0.439   3.216  -4.011  0.00  0.00    -0.370 N 
ATOM     18  H   UNL     1       0.369   0.161  -5.007  0.00  0.00    +0.192 HD
ATOM     19  H   UNL     1       0.575   1.664  -6.789  0.00  0.00    +0.159 HD
ATOM     20  H   UNL     1       0.359   3.055  -3.057  0.00  0.00    +0.159 HD
ATOM     21  H   UNL     1       0.507   4.124  -4.345  0.00  0.00    +0.159 HD
ATOM     22  H   UNL     1       0.632   3.319  -6.505  0.00  0.00    +0.159 HD
ENDBRANCH  11  14
BRANCH   6  23
ATOM     23  C   UNL     1       0.032  -0.400   2.494  0.00  0.00    +0.282 C 
ATOM     24  O   UNL     1       0.157   0.780   2.766  0.00  0.00    -0.267 OA
ATOM     25  N   UNL     1      -0.048  -1.315   3.480  0.00  0.00    -0.292 N 
ATOM     26  C   UNL     1      -0.026  -2.751   3.171  0.00  0.00    +0.127 C 
ATOM     27  C   UNL     1       1.107  -3.407   3.969  0.00  0.00    +0.124 C 
ATOM     28  N   UNL     1       0.998  -2.986   5.373  0.00  0.00    -0.325 N 
ATOM     29  C   UNL     1       0.977  -1.549   5.682  0.00  0.00    +0.124 C 
ATOM     30  C   UNL     1      -0.151  -0.893   4.884  0.00  0.00    +0.127 C 
BRANCH  28  31
ATOM     31  C   UNL     1       0.916  -3.935   6.396  0.00  0.00    +0.065 A 
ATOM     32  C   UNL     1       2.072  -4.406   7.004  0.00  0.00    +0.026 A 
ATOM     33  C   UNL     1       1.988  -5.344   8.015  0.00  0.00    +0.002 A 
ATOM     34  C   UNL     1       0.753  -5.814   8.423  0.00  0.00    +0.003 A 
ATOM     35  C   UNL     1      -0.402  -5.349   7.821  0.00  0.00    +0.040 A 
ATOM     36  C   UNL     1      -0.325  -4.406   6.812  0.00  0.00    +0.144 A 
ATOM     37  F   UNL     1      -1.454  -3.947   6.228  0.00  0.00    -0.204 F 
ENDBRANCH  28  31
ENDBRANCH   6  23
TORSDOF 3
