REMARK  Name = ZINC58993925
REMARK  7 active torsions:
REMARK  status: ('A' for Active; 'I' for Inactive)
REMARK    1  A    between atoms: C_3  and  C_8
REMARK    2  A    between atoms: N_9  and  N_10
REMARK    3  A    between atoms: C_13  and  S_16
REMARK    4  A    between atoms: S_16  and  C_17
REMARK    5  A    between atoms: C_17  and  C_18
REMARK    6  A    between atoms: N_20  and  C_21
REMARK    7  A    between atoms: C_21  and  C_22
REMARK                            x       y       z     vdW  Elec       q    Type
REMARK                         _______ _______ _______ _____ _____    ______ ____
ROOT
ATOM      1  N   UNL     1       5.991   2.237  -0.044  0.00  0.00    -0.205 N 
ATOM      2  C   UNL     1       7.196   1.560  -0.059  0.00  0.00    +0.232 A 
ATOM      3  N   UNL     1       7.349   0.252  -0.073  0.00  0.00    -0.186 NA
ATOM      4  C   UNL     1       8.652  -0.049  -0.086  0.00  0.00    +0.211 A 
ATOM      5  N   UNL     1       9.346   1.065  -0.080  0.00  0.00    -0.144 NA
ATOM      6  N   UNL     1       8.423   2.123  -0.068  0.00  0.00    -0.245 N 
ATOM      7  H   UNL     1       5.980   3.207  -0.039  0.00  0.00    +0.177 HD
ATOM      8  H   UNL     1       8.627   3.071  -0.065  0.00  0.00    +0.192 HD
ENDROOT
BRANCH   1  10
ATOM      9  C   UNL     1       3.654   2.159  -0.022  0.00  0.00    +0.138 C 
ATOM     10  N   UNL     1       4.786   1.523  -0.036  0.00  0.00    -0.188 NA
BRANCH   9  13
ATOM     11  C   UNL     1      -0.017   1.379   0.010  0.00  0.00    +0.002 A 
ATOM     12  C   UNL     1       1.166   2.089   0.002  0.00  0.00    +0.009 A 
ATOM     13  C   UNL     1       2.386   1.407  -0.013  0.00  0.00    -0.004 A 
ATOM     14  C   UNL     1       2.398   0.010  -0.021  0.00  0.00    +0.024 A 
ATOM     15  C   UNL     1       1.207  -0.687  -0.013  0.00  0.00    +0.018 A 
ATOM     16  C   UNL     1       0.002  -0.004   0.002  0.00  0.00    +0.015 A 
ATOM     17 BR   UNL     1       1.220  -2.578  -0.024  0.00  0.00    -0.050 Br
ENDBRANCH   9  13
ENDBRANCH   1  10
BRANCH   4  18
ATOM     18  S   UNL     1       9.327  -1.676  -0.106  0.00  0.00    -0.075 S 
BRANCH  18  19
ATOM     19  C   UNL     1      11.121  -1.407  -0.117  0.00  0.00    +0.173 C 
BRANCH  19  20
ATOM     20  C   UNL     1      11.828  -2.738  -0.135  0.00  0.00    +0.224 C 
ATOM     21  O   UNL     1      11.185  -3.766  -0.140  0.00  0.00    -0.275 OA
ATOM     22  N   UNL     1      13.175  -2.785  -0.146  0.00  0.00    -0.311 N 
ATOM     23  H   UNL     1      13.689  -1.962  -0.141  0.00  0.00    +0.149 HD
BRANCH  22  24
ATOM     24  C   UNL     1      13.863  -4.078  -0.163  0.00  0.00    +0.139 C 
BRANCH  24  25
ATOM     25  C   UNL     1      15.353  -3.855  -0.172  0.00  0.00    -0.029 A 
ATOM     26  C   UNL     1      16.026  -3.735  -1.374  0.00  0.00    +0.007 A 
ATOM     27  C   UNL     1      17.393  -3.531  -1.383  0.00  0.00    +0.022 A 
ATOM     28  C   UNL     1      18.088  -3.445  -0.190  0.00  0.00    +0.059 A 
ATOM     29  C   UNL     1      17.414  -3.564   1.013  0.00  0.00    +0.060 A 
ATOM     30  C   UNL     1      16.045  -3.764   1.021  0.00  0.00    +0.026 A 
ATOM     31 CL   UNL     1      18.285  -3.458   2.511  0.00  0.00    -0.082 Cl
ATOM     32 CL   UNL     1      19.805  -3.189  -0.202  0.00  0.00    -0.082 Cl
ENDBRANCH  24  25
ENDBRANCH  22  24
ENDBRANCH  19  20
ENDBRANCH  18  19
ENDBRANCH   4  18
TORSDOF 7
