REMARK  Name = ZINC14996431
REMARK  7 active torsions:
REMARK  status: ('A' for Active; 'I' for Inactive)
REMARK    1  A    between atoms: C_5  and  C_7
REMARK    2  A    between atoms: C_7  and  N_8
REMARK    3  A    between atoms: C_9  and  C_11
REMARK    4  A    between atoms: C_14  and  N_17
REMARK    5  A    between atoms: C_20  and  N_64
REMARK    6  A    between atoms: C_23  and  C_24
REMARK    7  A    between atoms: C_23  and  N_64
REMARK                            x       y       z     vdW  Elec       q    Type
REMARK                         _______ _______ _______ _____ _____    ______ ____
ROOT
ATOM      1  N   UNL     1      -5.111   2.829   6.878  0.00  0.00    -0.330 N 
ATOM      2  C   UNL     1      -5.371   4.205   7.320  0.00  0.00    +0.103 C 
ATOM      3  C   UNL     1      -6.064   4.182   8.684  0.00  0.00    +0.003 C 
ATOM      4  C   UNL     1      -5.166   3.463   9.695  0.00  0.00    -0.069 C 
ATOM      5  C   UNL     1      -4.871   2.049   9.188  0.00  0.00    +0.003 C 
ATOM      6  C   UNL     1      -4.213   2.134   7.809  0.00  0.00    +0.103 C 
ENDROOT
BRANCH   1  10
ATOM      7  C   UNL     1      -3.585   2.768   3.007  0.00  0.00    +0.037 A 
ATOM      8  C   UNL     1      -2.882   2.154   4.046  0.00  0.00    +0.015 A 
ATOM      9  C   UNL     1      -3.386   2.179   5.326  0.00  0.00    +0.024 A 
ATOM     10  C   UNL     1      -4.601   2.809   5.585  0.00  0.00    +0.030 A 
ATOM     11  C   UNL     1      -5.307   3.417   4.550  0.00  0.00    +0.024 A 
ATOM     12  C   UNL     1      -4.805   3.399   3.269  0.00  0.00    +0.015 A 
BRANCH   7  14
ATOM     13  N   UNL     1      -1.869   2.138   1.383  0.00  0.00    -0.307 N 
ATOM     14  C   UNL     1      -3.045   2.746   1.634  0.00  0.00    +0.244 C 
ATOM     15  O   UNL     1      -3.660   3.277   0.730  0.00  0.00    -0.270 OA
ATOM     16  H   UNL     1      -1.378   1.714   2.104  0.00  0.00    +0.149 HD
BRANCH  13  17
ATOM     17  C   UNL     1      -1.332   2.116   0.020  0.00  0.00    +0.142 C 
BRANCH  17  22
ATOM     18  C   UNL     1       2.377   1.412  -0.013  0.00  0.00    +0.000 A 
ATOM     19  C   UNL     1       2.397   0.030  -0.021  0.00  0.00    +0.003 A 
ATOM     20  C   UNL     1       1.211  -0.679  -0.013  0.00  0.00    +0.038 A 
ATOM     21  C   UNL     1       0.002  -0.004   0.002  0.00  0.00    +0.128 A 
ATOM     22  C   UNL     1      -0.017   1.380   0.010  0.00  0.00    +0.005 A 
ATOM     23  C   UNL     1       1.171   2.087   0.002  0.00  0.00    +0.008 A 
ATOM     24  F   UNL     1      -1.158  -0.696   0.009  0.00  0.00    -0.205 F 
ENDBRANCH  17  22
ENDBRANCH  13  17
ENDBRANCH   7  14
ENDBRANCH   1  10
BRANCH   4  25
ATOM     25  N   UNL     1      -5.857   3.378  10.995  0.00  0.00    +0.383 N 
ATOM     26  H   UNL     1      -5.493   2.574  11.520  0.00  0.00    -0.085 HD
ATOM     27  H   UNL     1      -6.864   3.256  10.837  0.00  0.00    -0.085 HD
BRANCH  25  28
ATOM     28  C   UNL     1      -5.633   4.610  11.776  0.00  0.00    -0.034 C 
BRANCH  28  29
ATOM     29  C   UNL     1      -6.360   4.492  13.117  0.00  0.00    +0.194 C 
ATOM     30  C   UNL     1      -6.160   5.780  13.928  0.00  0.00    +0.271 C 
ATOM     31  O   UNL     1      -6.862   5.642  15.168  0.00  0.00    -0.485 OA
ATOM     32  C   UNL     1      -8.133   5.157  15.100  0.00  0.00    +0.162 A 
ATOM     33  C   UNL     1      -8.985   5.330  16.181  0.00  0.00    +0.049 A 
ATOM     34  C   UNL     1     -10.277   4.841  16.129  0.00  0.00    +0.004 A 
ATOM     35  C   UNL     1     -10.722   4.178  15.000  0.00  0.00    +0.004 A 
ATOM     36  C   UNL     1      -9.878   4.003  13.920  0.00  0.00    +0.049 A 
ATOM     37  C   UNL     1      -8.581   4.493  13.965  0.00  0.00    +0.162 A 
ATOM     38  O   UNL     1      -7.763   4.317  12.892  0.00  0.00    -0.484 OA
ENDBRANCH  28  29
ENDBRANCH  25  28
ENDBRANCH   4  25
TORSDOF 7
