REMARK  Name = ZINC04828840
REMARK  4 active torsions:
REMARK  status: ('A' for Active; 'I' for Inactive)
REMARK    1  A    between atoms: C_4  and  C_7
REMARK    2  A    between atoms: C_4  and  O_23
REMARK    3  A    between atoms: C_13  and  C_14
REMARK    4  A    between atoms: C_13  and  O_22
REMARK                            x       y       z     vdW  Elec       q    Type
REMARK                         _______ _______ _______ _____ _____    ______ ____
ROOT
ATOM      1  C   UNL     1       1.383   2.028  -0.132  0.00  0.00    +0.053 C 
ATOM      2  C   UNL     1       1.657   3.531  -0.044  0.00  0.00    +0.009 C 
ATOM      3  C   UNL     1       1.077   4.079   1.261  0.00  0.00    +0.001 C 
ATOM      4  C   UNL     1      -0.432   3.833   1.293  0.00  0.00    +0.003 C 
ATOM      5  C   UNL     1      -0.706   2.330   1.205  0.00  0.00    +0.036 C 
ATOM      6  C   UNL     1      -0.127   1.782  -0.100  0.00  0.00    +0.081 C 
ENDROOT
BRANCH   6   7
ATOM      7  C   UNL     1      -0.400   0.279  -0.188  0.00  0.00    +0.087 C 
ATOM      8  C   UNL     1      -1.911   0.028  -0.157  0.00  0.00    +0.014 C 
ATOM      9  C   UNL     1      -2.175  -1.478  -0.102  0.00  0.00    +0.001 C 
ATOM     10  C   UNL     1      -1.616  -2.056   1.199  0.00  0.00    +0.008 C 
ATOM     11  C   UNL     1      -0.093  -1.883   1.219  0.00  0.00    +0.075 C 
ATOM     12  C   UNL     1       0.228  -0.422   0.997  0.00  0.00    +0.139 C 
ATOM     13  O   UNL     1       0.967   0.171   1.746  0.00  0.00    -0.297 OA
ENDBRANCH   6   7
BRANCH   1  17
ATOM     14  C   UNL     1       3.249   1.907  -4.035  0.00  0.00    +0.000 C 
ATOM     15  C   UNL     1       1.773   1.517  -3.928  0.00  0.00    +0.003 C 
ATOM     16  C   UNL     1       1.194   2.066  -2.623  0.00  0.00    +0.035 C 
ATOM     17  C   UNL     1       1.962   1.479  -1.437  0.00  0.00    +0.072 C 
ATOM     18  C   UNL     1       3.438   1.869  -1.544  0.00  0.00    +0.035 C 
ATOM     19  C   UNL     1       4.018   1.320  -2.849  0.00  0.00    +0.003 C 
BRANCH  17  20
ATOM     20  O   UNL     1       1.843   0.055  -1.450  0.00  0.00    -0.388 OA
ATOM     21  H   UNL     1       2.191  -0.361  -2.250  0.00  0.00    +0.210 HD
ENDBRANCH  17  20
ENDBRANCH   1  17
BRANCH   6  22
ATOM     22  O   UNL     1      -0.740   2.442  -1.209  0.00  0.00    -0.388 OA
ATOM     23  H   UNL     1      -1.700   2.329  -1.252  0.00  0.00    +0.210 HD
ENDBRANCH   6  22
TORSDOF 4
