REMARK  Name = ZINC04631494
REMARK  7 active torsions:
REMARK  status: ('A' for Active; 'I' for Inactive)
REMARK    1  A    between atoms: C_1  and  O_2
REMARK    2  A    between atoms: O_2  and  C_3
REMARK    3  A    between atoms: C_3  and  C_5
REMARK    4  A    between atoms: C_8  and  C_11
REMARK    5  A    between atoms: C_14  and  C_25
REMARK    6  A    between atoms: C_20  and  N_24
REMARK    7  A    between atoms: C_21  and  C_22
REMARK                            x       y       z     vdW  Elec       q    Type
REMARK                         _______ _______ _______ _____ _____    ______ ____
ROOT
ATOM      1  C   UNL     1      -1.363  -6.499  -0.012  0.00  0.00    +0.102 C 
ATOM      2  C   UNL     1      -2.243  -6.902  -1.167  0.00  0.00    +0.054 A 
ATOM      3  C   UNL     1      -1.997  -6.848  -2.499  0.00  0.00    +0.074 A 
ATOM      4  N   UNL     1      -3.108  -7.326  -3.135  0.00  0.00    -0.273 N 
ATOM      5  H   UNL     1      -3.226  -7.408  -4.094  0.00  0.00    +0.189 HD
ATOM      6  N   UNL     1      -4.048  -7.679  -2.154  0.00  0.00    -0.135 NA
ATOM      7  C   UNL     1      -3.536  -7.428  -0.982  0.00  0.00    +0.245 A 
ATOM      8  O   UNL     1      -4.070  -7.608   0.256  0.00  0.00    -0.421 OA
ATOM      9  C   UNL     1      -3.236  -7.525   1.311  0.00  0.00    +0.201 C 
ATOM     10  C   UNL     1      -1.980  -7.031   1.257  0.00  0.00    +0.098 C 
ENDROOT
BRANCH   1  14
ATOM     11  C   UNL     1      -1.101  -2.235   0.186  0.00  0.00    +0.059 A 
ATOM     12  C   UNL     1       0.059  -3.005   0.078  0.00  0.00    +0.015 A 
ATOM     13  C   UNL     1      -0.033  -4.380   0.015  0.00  0.00    +0.005 A 
ATOM     14  C   UNL     1      -1.271  -4.997   0.058  0.00  0.00    -0.035 A 
ATOM     15  C   UNL     1      -2.424  -4.240   0.165  0.00  0.00    +0.005 A 
ATOM     16  C   UNL     1      -2.347  -2.865   0.235  0.00  0.00    +0.015 A 
BRANCH  11  17
ATOM     17  C   UNL     1      -1.011  -0.762   0.254  0.00  0.00    +0.339 C 
ATOM     18  O   UNL     1      -2.022  -0.096   0.353  0.00  0.00    -0.245 OA
BRANCH  17  20
ATOM     19  C   UNL     1       0.205   1.269   0.278  0.00  0.00    +0.280 C 
ATOM     20  O   UNL     1       0.192  -0.159   0.207  0.00  0.00    -0.464 OA
ENDBRANCH  17  20
ENDBRANCH  11  17
ENDBRANCH   1  14
BRANCH   3  21
ATOM     21  C   UNL     1      -0.758  -6.360  -3.144  0.00  0.00    +0.000 A 
ATOM     22  C   UNL     1       0.487  -6.793  -2.686  0.00  0.00    +0.010 A 
ATOM     23  C   UNL     1       1.639  -6.335  -3.292  0.00  0.00    +0.001 A 
ATOM     24  C   UNL     1       1.561  -5.449  -4.351  0.00  0.00    +0.000 A 
ATOM     25  C   UNL     1       0.330  -5.015  -4.810  0.00  0.00    +0.001 A 
ATOM     26  C   UNL     1      -0.830  -5.471  -4.216  0.00  0.00    +0.010 A 
ENDBRANCH   3  21
BRANCH   9  27
ATOM     27  N   UNL     1      -3.692  -7.976   2.524  0.00  0.00    -0.328 N 
ATOM     28  H   UNL     1      -4.589  -8.339   2.600  0.00  0.00    +0.145 HD
ATOM     29  H   UNL     1      -3.119  -7.933   3.305  0.00  0.00    +0.145 HD
ENDBRANCH   9  27
BRANCH  10  30
ATOM     30  C   UNL     1      -1.200  -7.009   2.458  0.00  0.00    +0.101 C 
ATOM     31  N   UNL     1      -0.582  -6.992   3.411  0.00  0.00    -0.191 NA
ENDBRANCH  10  30
TORSDOF 6
