REMARK  Name = ZINC14479340
REMARK  10 active torsions:
REMARK  status: ('A' for Active; 'I' for Inactive)
REMARK    1  A    between atoms: C_1  and  C_2
REMARK    2  A    between atoms: C_4  and  C_38
REMARK    3  A    between atoms: C_6  and  N_8
REMARK    4  A    between atoms: N_8  and  S_9
REMARK    5  A    between atoms: S_9  and  C_12
REMARK    6  A    between atoms: C_25  and  C_28
REMARK    7  A    between atoms: C_31  and  O_36
REMARK    8  A    between atoms: C_32  and  O_34
REMARK    9  A    between atoms: O_34  and  C_35
REMARK   10  A    between atoms: O_36  and  C_37
REMARK                            x       y       z     vdW  Elec       q    Type
REMARK                         _______ _______ _______ _____ _____    ______ ____
ROOT
ATOM      1  C   UNL     1      -4.261   2.982   0.686  0.00  0.00    +0.109 A 
ATOM      2  C   UNL     1      -5.399   3.062  -0.096  0.00  0.00    +0.030 A 
ATOM      3  C   UNL     1      -5.919   4.294  -0.436  0.00  0.00    +0.025 A 
ATOM      4  C   UNL     1      -5.306   5.461   0.004  0.00  0.00    +0.031 A 
ATOM      5  C   UNL     1      -4.149   5.372   0.785  0.00  0.00    -0.018 A 
ATOM      6  C   UNL     1      -3.643   4.137   1.129  0.00  0.00    +0.034 A 
ATOM      7  C   UNL     1      -3.511   6.637   1.208  0.00  0.00    +0.049 C 
ATOM      8  C   UNL     1      -2.673   6.727   2.431  0.00  0.00    -0.023 C 
ATOM      9  C   UNL     1      -2.790   7.950   2.935  0.00  0.00    -0.030 C 
ATOM     10  C   UNL     1      -3.761   8.775   2.088  0.00  0.00    +0.033 C 
ATOM     11  C   UNL     1      -4.640   7.678   1.470  0.00  0.00    +0.029 C 
ATOM     12  C   UNL     1      -5.249   7.967   0.110  0.00  0.00    +0.105 C 
ATOM     13  N   UNL     1      -5.872   6.698  -0.326  0.00  0.00    -0.336 N 
ATOM     14  H   UNL     1      -6.688   6.724  -0.850  0.00  0.00    +0.147 HD
ENDROOT
BRANCH  12  15
ATOM     15  C   UNL     1      -6.293   9.047   0.226  0.00  0.00    -0.023 A 
ATOM     16  C   UNL     1      -7.561   8.734   0.679  0.00  0.00    +0.009 A 
ATOM     17  C   UNL     1      -8.523   9.722   0.787  0.00  0.00    +0.050 A 
ATOM     18  C   UNL     1      -8.217  11.028   0.441  0.00  0.00    +0.162 A 
ATOM     19  C   UNL     1      -6.940  11.342  -0.016  0.00  0.00    +0.162 A 
ATOM     20  C   UNL     1      -5.980  10.349  -0.117  0.00  0.00    +0.055 A 
BRANCH  19  21
ATOM     21  O   UNL     1      -6.635  12.623  -0.357  0.00  0.00    -0.491 OA
ATOM     22  C   UNL     1      -5.305  12.872  -0.817  0.00  0.00    +0.277 C 
ENDBRANCH  19  21
BRANCH  18  23
ATOM     23  O   UNL     1      -9.162  12.000   0.546  0.00  0.00    -0.491 OA
ATOM     24  C   UNL     1     -10.449  11.604   1.022  0.00  0.00    +0.277 C 
ENDBRANCH  18  23
ENDBRANCH  12  15
BRANCH   1  25
ATOM     25  S   UNL     1      -3.603   1.407   1.125  0.00  0.00    +0.072 S 
ATOM     26  O   UNL     1      -4.664   0.471   0.988  0.00  0.00    -0.150 OA
ATOM     27  O   UNL     1      -2.899   1.587   2.347  0.00  0.00    -0.150 OA
BRANCH  25  28
ATOM     28  N   UNL     1      -2.473   1.012  -0.019  0.00  0.00    -0.216 N 
ATOM     29  H   UNL     1      -2.609   0.239  -0.588  0.00  0.00    +0.174 HD
BRANCH  28  35
ATOM     30  C   UNL     1       1.943   2.389   1.641  0.00  0.00    +0.044 C 
ATOM     31  C   UNL     1       0.833   2.481   0.626  0.00  0.00    -0.048 A 
ATOM     32  C   UNL     1       0.950   3.344  -0.448  0.00  0.00    +0.006 A 
ATOM     33  C   UNL     1      -0.066   3.432  -1.382  0.00  0.00    -0.048 A 
ATOM     34  C   UNL     1      -1.201   2.657  -1.245  0.00  0.00    +0.028 A 
ATOM     35  C   UNL     1      -1.324   1.793  -0.164  0.00  0.00    +0.049 A 
ATOM     36  C   UNL     1      -0.299   1.704   0.770  0.00  0.00    +0.028 A 
ATOM     37  C   UNL     1       0.065   4.374  -2.551  0.00  0.00    +0.044 C 
ENDBRANCH  28  35
ENDBRANCH  25  28
ENDBRANCH   1  25
TORSDOF 6
