REMARK  Name = ZINC02433446
REMARK  6 active torsions:
REMARK  status: ('A' for Active; 'I' for Inactive)
REMARK    1  A    between atoms: C_1  and  C_2
REMARK    2  A    between atoms: N_8  and  C_9
REMARK    3  A    between atoms: C_9  and  C_10
REMARK    4  A    between atoms: C_15  and  C_23
REMARK    5  A    between atoms: C_17  and  C_21
REMARK    6  A    between atoms: C_18  and  N_20
REMARK                            x       y       z     vdW  Elec       q    Type
REMARK                         _______ _______ _______ _____ _____    ______ ____
ROOT
ATOM      1  C   UNL     1       5.851   2.521   1.212  0.00  0.00    +0.064 C 
ATOM      2  C   UNL     1       4.612   1.699   0.966  0.00  0.00    +0.023 A 
ATOM      3  C   UNL     1       3.423   2.319   0.803  0.00  0.00    +0.068 A 
ATOM      4  C   UNL     1       2.261   1.555   0.573  0.00  0.00    +0.141 A 
ATOM      5  C   UNL     1       2.364   0.181   0.519  0.00  0.00    +0.072 A 
ATOM      6  C   UNL     1       3.618  -0.418   0.694  0.00  0.00    +0.260 A 
ATOM      7  O   UNL     1       3.724  -1.634   0.648  0.00  0.00    -0.267 OA
ATOM      8  N   UNL     1       4.705   0.345   0.911  0.00  0.00    -0.305 N 
ATOM      9  C   UNL     1       1.150  -0.672   0.274  0.00  0.00    +0.104 C 
ATOM     10  C   UNL     1      -0.101   0.127   0.515  0.00  0.00    +0.098 C 
ATOM     11  C   UNL     1      -0.071   1.480   0.569  0.00  0.00    +0.199 C 
ATOM     12  O   UNL     1       1.071   2.172   0.411  0.00  0.00    -0.441 OA
ENDROOT
BRANCH   9  13
ATOM     13  C   UNL     1       1.162  -1.163  -1.150  0.00  0.00    -0.021 A 
ATOM     14  C   UNL     1       1.137  -0.256  -2.194  0.00  0.00    +0.005 A 
ATOM     15  C   UNL     1       1.149  -0.707  -3.501  0.00  0.00    +0.000 A 
ATOM     16  C   UNL     1       1.187  -2.063  -3.765  0.00  0.00    +0.001 A 
ATOM     17  C   UNL     1       1.213  -2.970  -2.722  0.00  0.00    +0.015 A 
ATOM     18  C   UNL     1       1.205  -2.519  -1.414  0.00  0.00    +0.022 A 
ATOM     19 BR   UNL     1       1.247  -3.759   0.013  0.00  0.00    -0.050 Br
ENDBRANCH   9  13
BRANCH  11  20
ATOM     20  N   UNL     1      -1.241   2.164   0.784  0.00  0.00    -0.328 N 
ATOM     21  H   UNL     1      -2.073   1.679   0.896  0.00  0.00    +0.145 HD
ATOM     22  H   UNL     1      -1.235   3.134   0.825  0.00  0.00    +0.145 HD
ENDBRANCH  11  20
BRANCH  10  23
ATOM     23  C   UNL     1      -1.348  -0.555   0.691  0.00  0.00    +0.101 C 
ATOM     24  N   UNL     1      -2.337  -1.096   0.831  0.00  0.00    -0.191 NA
ENDBRANCH  10  23
BRANCH   8  25
ATOM     25  C   UNL     1       6.011  -0.296   1.093  0.00  0.00    +0.199 C 
BRANCH  25  26
ATOM     26  C   UNL     1       6.203  -0.641   2.547  0.00  0.00    +0.125 A 
ATOM     27  C   UNL     1       5.843  -1.796   3.135  0.00  0.00    +0.046 A 
ATOM     28  C   UNL     1       6.210  -1.694   4.497  0.00  0.00    +0.041 A 
ATOM     29  C   UNL     1       6.764  -0.479   4.661  0.00  0.00    +0.195 A 
ATOM     30  O   UNL     1       6.757   0.154   3.476  0.00  0.00    -0.466 OA
ENDBRANCH  25  26
ENDBRANCH   8  25
TORSDOF 5
