REMARK  Name = ZINC09041112
REMARK  8 active torsions:
REMARK  status: ('A' for Active; 'I' for Inactive)
REMARK    1  A    between atoms: C_1  and  C_2
REMARK    2  A    between atoms: C_2  and  O_3
REMARK    3  A    between atoms: O_3  and  C_4
REMARK    4  A    between atoms: C_4  and  C_6
REMARK    5  A    between atoms: C_11  and  N_12
REMARK    6  A    between atoms: C_13  and  C_15
REMARK    7  A    between atoms: C_15  and  N_16
REMARK    8  A    between atoms: C_23  and  C_26
REMARK                            x       y       z     vdW  Elec       q    Type
REMARK                         _______ _______ _______ _____ _____    ______ ____
ROOT
ATOM      1  C   UNL     1      -2.477   0.973   0.011  0.00  0.00    +0.222 C 
ENDROOT
BRANCH   1   2
ATOM      2  N   UNL     1      -1.234   1.749   0.005  0.00  0.00    -0.290 N 
ATOM      3  C   UNL     1      -0.043   1.097  -0.022  0.00  0.00    +0.203 A 
ATOM      4  N   UNL     1       1.086   1.754  -0.034  0.00  0.00    -0.230 NA
ATOM      5  C   UNL     1       1.105   3.084  -0.014  0.00  0.00    +0.116 A 
ATOM      6  C   UNL     1      -0.075   3.843   0.021  0.00  0.00    +0.080 A 
ATOM      7  C   UNL     1      -1.295   3.093   0.033  0.00  0.00    +0.263 A 
ATOM      8  O   UNL     1      -2.372   3.663   0.062  0.00  0.00    -0.267 OA
ATOM      9  C   UNL     1       0.119   5.288   0.040  0.00  0.00    +0.004 A 
ATOM     10  C   UNL     1       1.383   5.776   0.022  0.00  0.00    +0.056 A 
ATOM     11  S   UNL     1       2.392   4.306  -0.020  0.00  0.00    -0.076 S 
BRANCH   9  12
ATOM     12  C   UNL     1      -1.044   6.206   0.076  0.00  0.00    -0.017 A 
ATOM     13  C   UNL     1      -2.088   6.050  -0.834  0.00  0.00    +0.008 A 
ATOM     14  C   UNL     1      -3.171   6.904  -0.791  0.00  0.00    +0.001 A 
ATOM     15  C   UNL     1      -3.216   7.922   0.145  0.00  0.00    +0.000 A 
ATOM     16  C   UNL     1      -2.180   8.085   1.047  0.00  0.00    +0.001 A 
ATOM     17  C   UNL     1      -1.095   7.234   1.018  0.00  0.00    +0.008 A 
ENDBRANCH   9  12
ENDBRANCH   1   2
BRANCH   1  19
ATOM     18  N   UNL     1      -4.003  -0.020   1.685  0.00  0.00    -0.283 N 
ATOM     19  C   UNL     1      -2.882   0.685   1.434  0.00  0.00    +0.237 C 
ATOM     20  O   UNL     1      -2.200   1.087   2.352  0.00  0.00    -0.274 OA
ATOM     21  H   UNL     1      -4.582  -0.287   0.955  0.00  0.00    +0.155 HD
BRANCH  18  27
ATOM     22  C   UNL     1      -4.946  -1.597   3.265  0.00  0.00    +0.080 A 
ATOM     23  C   UNL     1      -5.267  -1.933   4.583  0.00  0.00    +0.017 A 
ATOM     24  C   UNL     1      -4.976  -1.056   5.606  0.00  0.00    +0.001 A 
ATOM     25  C   UNL     1      -4.366   0.158   5.334  0.00  0.00    +0.002 A 
ATOM     26  C   UNL     1      -4.038   0.501   4.038  0.00  0.00    +0.024 A 
ATOM     27  C   UNL     1      -4.328  -0.367   2.994  0.00  0.00    +0.047 A 
BRANCH  22  28
ATOM     28  C   UNL     1      -5.253  -2.530   2.167  0.00  0.00    +0.341 C 
ATOM     29  O   UNL     1      -4.885  -2.280   1.036  0.00  0.00    -0.245 OA
BRANCH  28  30
ATOM     30  O   UNL     1      -5.942  -3.661   2.416  0.00  0.00    -0.461 OA
BRANCH  30  32
ATOM     31  C   UNL     1      -6.996  -5.757   1.761  0.00  0.00    +0.048 C 
ATOM     32  C   UNL     1      -6.209  -4.534   1.286  0.00  0.00    +0.229 C 
ENDBRANCH  30  32
ENDBRANCH  28  30
ENDBRANCH  22  28
ENDBRANCH  18  27
ENDBRANCH   1  19
TORSDOF 7
