REMARK  Name = ZINC39469330
REMARK  7 active torsions:
REMARK  status: ('A' for Active; 'I' for Inactive)
REMARK    1  A    between atoms: C_1  and  C_2
REMARK    2  A    between atoms: C_2  and  O_3
REMARK    3  A    between atoms: O_3  and  P_4
REMARK    4  A    between atoms: C_12  and  C_29
REMARK    5  A    between atoms: C_13  and  C_22
REMARK    6  A    between atoms: C_22  and  C_23
REMARK    7  A    between atoms: C_34  and  O_35
REMARK                            x       y       z     vdW  Elec       q    Type
REMARK                         _______ _______ _______ _____ _____    ______ ____
ROOT
ATOM      1  P   UNL     1       0.877  -2.026  -1.510  0.00  0.00    +0.394 P 
ATOM      2  O   UNL     1      -0.396  -2.760  -1.338  0.00  0.00    -0.241 OA
ATOM      3  N   UNL     1       2.048  -2.670  -0.542  0.00  0.00    -0.268 NA
ATOM      4  N   UNL     1       3.364  -2.413  -0.866  0.00  0.00    +0.399 N 
ATOM      5  C   UNL     1       4.176  -3.194   0.081  0.00  0.00    -0.046 C 
ATOM      6  C   UNL     1       5.663  -2.976  -0.167  0.00  0.00    +0.005 C 
ATOM      7  C   UNL     1       6.019  -1.524   0.007  0.00  0.00    -0.016 C 
ATOM      8  C   UNL     1       7.126  -1.043  -0.585  0.00  0.00    -0.015 C 
ATOM      9  C   UNL     1       7.973  -1.956  -1.382  0.00  0.00    -0.039 C 
ATOM     10  C   UNL     1       7.457  -3.079  -1.866  0.00  0.00    -0.019 C 
ATOM     11  C   UNL     1       6.009  -3.405  -1.596  0.00  0.00    +0.016 C 
ATOM     12  C   UNL     1       5.128  -2.618  -2.567  0.00  0.00    -0.003 C 
ATOM     13  C   UNL     1       3.645  -2.830  -2.242  0.00  0.00    -0.020 C 
ATOM     14  C   UNL     1       2.839  -2.005  -3.255  0.00  0.00    +0.159 C 
ATOM     15  O   UNL     1       1.433  -2.207  -3.029  0.00  0.00    -0.299 OA
ATOM     16  H   UNL     1       1.819  -3.211   0.230  0.00  0.00    +0.113 HD
ATOM     17  H   UNL     1       3.553  -1.427  -0.764  0.00  0.00    -0.055 HD
ENDROOT
BRANCH   8  18
ATOM     18  C   UNL     1       7.493   0.387  -0.441  0.00  0.00    +0.024 A 
ATOM     19  C   UNL     1       8.542   0.759   0.398  0.00  0.00    +0.012 A 
ATOM     20  C   UNL     1       8.879   2.091   0.528  0.00  0.00    +0.001 A 
ATOM     21  C   UNL     1       8.179   3.059  -0.170  0.00  0.00    +0.004 A 
ATOM     22  C   UNL     1       7.137   2.701  -1.004  0.00  0.00    +0.046 A 
ATOM     23  C   UNL     1       6.791   1.367  -1.150  0.00  0.00    +0.125 A 
BRANCH  23  24
ATOM     24  O   UNL     1       5.771   1.013  -1.974  0.00  0.00    -0.506 OA
ATOM     25  H   UNL     1       4.906   0.989  -1.541  0.00  0.00    +0.292 HD
ENDBRANCH  23  24
ENDBRANCH   8  18
BRANCH   1  26
ATOM     26  O   UNL     1       0.671  -0.465  -1.174  0.00  0.00    -0.298 OA
BRANCH  26  28
ATOM     27  C   UNL     1      -0.019   1.526   0.010  0.00  0.00    +0.035 C 
ATOM     28  C   UNL     1       0.002  -0.004   0.002  0.00  0.00    +0.168 C 
ENDBRANCH  26  28
ENDBRANCH   1  26
BRANCH   9  29
ATOM     29  C   UNL     1       9.417  -1.613  -1.643  0.00  0.00    +0.070 C 
BRANCH  29  30
ATOM     30  C   UNL     1       9.509  -0.712  -2.848  0.00  0.00    -0.043 A 
ATOM     31  C   UNL     1       9.645  -1.257  -4.110  0.00  0.00    +0.004 A 
ATOM     32  C   UNL     1       9.729  -0.430  -5.215  0.00  0.00    +0.000 A 
ATOM     33  C   UNL     1       9.678   0.942  -5.057  0.00  0.00    +0.000 A 
ATOM     34  C   UNL     1       9.541   1.488  -3.794  0.00  0.00    +0.000 A 
ATOM     35  C   UNL     1       9.452   0.661  -2.690  0.00  0.00    +0.004 A 
ENDBRANCH  29  30
ENDBRANCH   9  29
TORSDOF 6
