REMARK  Name = ZINC15959788
REMARK  7 active torsions:
REMARK  status: ('A' for Active; 'I' for Inactive)
REMARK    1  A    between atoms: C_1  and  C_2
REMARK    2  A    between atoms: C_17  and  C_20
REMARK    3  A    between atoms: C_20  and  C_21
REMARK    4  A    between atoms: C_24  and  O_27
REMARK    5  A    between atoms: N_30  and  C_33
REMARK    6  A    between atoms: C_33  and  C_34
REMARK    7  A    between atoms: C_34  and  C_35
REMARK                            x       y       z     vdW  Elec       q    Type
REMARK                         _______ _______ _______ _____ _____    ______ ____
ROOT
ATOM      1  C   UNL     1      -0.018   1.503   0.010  0.00  0.00    +0.044 C 
ATOM      2  C   UNL     1       0.002  -0.004   0.002  0.00  0.00    -0.049 A 
ATOM      3  C   UNL     1       0.006  -0.691  -1.199  0.00  0.00    +0.011 A 
ATOM      4  C   UNL     1       0.025  -2.068  -1.206  0.00  0.00    +0.005 A 
ATOM      5  C   UNL     1       0.040  -2.783  -0.013  0.00  0.00    +0.057 A 
ATOM      6  C   UNL     1       0.036  -2.084   1.193  0.00  0.00    +0.063 A 
ATOM      7  C   UNL     1       0.023  -0.703   1.195  0.00  0.00    +0.025 A 
ATOM      8 CL   UNL     1       0.055  -2.951   2.697  0.00  0.00    -0.082 Cl
ATOM      9  N   UNL     1       0.057  -4.156  -0.273  0.00  0.00    -0.282 N 
ATOM     10  C   UNL     1       0.055  -4.423  -1.593  0.00  0.00    +0.243 C 
ATOM     11  O   UNL     1       0.067  -5.520  -2.110  0.00  0.00    -0.273 OA
ATOM     12  C   UNL     1       0.034  -3.096  -2.301  0.00  0.00    +0.136 C 
ATOM     13  C   UNL     1      -1.195  -2.963  -3.209  0.00  0.00    +0.122 C 
ATOM     14  C   UNL     1      -0.688  -2.154  -4.436  0.00  0.00    +0.107 C 
ATOM     15  C   UNL     1       0.795  -1.858  -4.130  0.00  0.00    +0.072 C 
ATOM     16  N   UNL     1       1.206  -2.936  -3.182  0.00  0.00    -0.295 NA
ATOM     17  C   UNL     1      -0.791  -3.143  -5.574  0.00  0.00    +0.227 C 
ATOM     18  O   UNL     1      -0.484  -2.921  -6.725  0.00  0.00    -0.275 OA
ATOM     19  N   UNL     1      -1.274  -4.303  -5.112  0.00  0.00    -0.241 N 
ATOM     20  C   UNL     1      -1.548  -4.315  -3.787  0.00  0.00    +0.228 C 
ATOM     21  O   UNL     1      -1.998  -5.249  -3.159  0.00  0.00    -0.275 OA
ATOM     22  H   UNL     1       0.069  -4.837   0.418  0.00  0.00    +0.155 HD
ATOM     23  H   UNL     1       2.020  -2.657  -2.654  0.00  0.00    +0.124 HD
ENDROOT
BRANCH  15  24
ATOM     24  C   UNL     1       1.630  -1.946  -5.409  0.00  0.00    +0.054 C 
BRANCH  24  25
ATOM     25  C   UNL     1       3.049  -1.535  -5.113  0.00  0.00    -0.046 A 
ATOM     26  C   UNL     1       3.422  -0.208  -5.229  0.00  0.00    +0.007 A 
ATOM     27  C   UNL     1       4.723   0.171  -4.958  0.00  0.00    +0.045 A 
ATOM     28  C   UNL     1       5.655  -0.780  -4.568  0.00  0.00    +0.117 A 
ATOM     29  C   UNL     1       5.278  -2.110  -4.452  0.00  0.00    +0.045 A 
ATOM     30  C   UNL     1       3.975  -2.484  -4.719  0.00  0.00    +0.007 A 
BRANCH  28  31
ATOM     31  O   UNL     1       6.935  -0.410  -4.302  0.00  0.00    -0.507 OA
ATOM     32  H   UNL     1       7.090  -0.167  -3.378  0.00  0.00    +0.292 HD
ENDBRANCH  28  31
ENDBRANCH  24  25
ENDBRANCH  15  24
BRANCH  19  33
ATOM     33  C   UNL     1      -1.496  -5.467  -5.973  0.00  0.00    +0.121 C 
BRANCH  33  34
ATOM     34  C   UNL     1      -0.230  -6.326  -6.006  0.00  0.00    +0.054 C 
BRANCH  34  35
ATOM     35  C   UNL     1      -0.458  -7.523  -6.891  0.00  0.00    -0.046 A 
ATOM     36  C   UNL     1      -0.965  -8.692  -6.356  0.00  0.00    +0.004 A 
ATOM     37  C   UNL     1      -1.175  -9.791  -7.168  0.00  0.00    +0.000 A 
ATOM     38  C   UNL     1      -0.877  -9.720  -8.517  0.00  0.00    +0.000 A 
ATOM     39  C   UNL     1      -0.370  -8.551  -9.052  0.00  0.00    +0.000 A 
ATOM     40  C   UNL     1      -0.165  -7.451  -8.241  0.00  0.00    +0.004 A 
ENDBRANCH  34  35
ENDBRANCH  33  34
ENDBRANCH  19  33
TORSDOF 6
