REMARK  Name = ZINC18286114
REMARK  7 active torsions:
REMARK  status: ('A' for Active; 'I' for Inactive)
REMARK    1  A    between atoms: C_1  and  O_2
REMARK    2  A    between atoms: O_2  and  C_3
REMARK    3  A    between atoms: C_6  and  C_11
REMARK    4  A    between atoms: C_8  and  O_9
REMARK    5  A    between atoms: O_9  and  C_10
REMARK    6  A    between atoms: C_16  and  C_26
REMARK    7  A    between atoms: C_30  and  N_32
REMARK                            x       y       z     vdW  Elec       q    Type
REMARK                         _______ _______ _______ _____ _____    ______ ____
ROOT
ATOM      1  C   UNL     1      -2.490   0.944  -0.082  0.00  0.00    +0.032 C 
ATOM      2  C   UNL     1      -2.591   0.028  -1.300  0.00  0.00    +0.059 C 
ATOM      3  C   UNL     1      -3.897  -0.749  -1.254  0.00  0.00    +0.017 C 
ATOM      4  C   UNL     1      -4.424  -1.121  -0.077  0.00  0.00    +0.036 C 
ATOM      5  C   UNL     1      -5.689  -1.924   0.114  0.00  0.00    +0.136 C 
ATOM      6  N   UNL     1      -6.490  -2.071  -1.082  0.00  0.00    -0.331 N 
ATOM      7  C   UNL     1      -6.012  -2.773  -2.188  0.00  0.00    +0.049 A 
ATOM      8  C   UNL     1      -6.572  -3.980  -2.574  0.00  0.00    +0.025 A 
ATOM      9  C   UNL     1      -5.997  -4.695  -3.611  0.00  0.00    +0.002 A 
ATOM     10  C   UNL     1      -4.874  -4.211  -4.256  0.00  0.00    +0.002 A 
ATOM     11  C   UNL     1      -4.325  -2.995  -3.886  0.00  0.00    +0.025 A 
ATOM     12  C   UNL     1      -4.909  -2.271  -2.861  0.00  0.00    +0.052 A 
ATOM     13  N   UNL     1      -4.436  -1.024  -2.469  0.00  0.00    -0.316 N 
ATOM     14  C   UNL     1      -3.789  -0.758   1.135  0.00  0.00    +0.163 C 
ATOM     15  O   UNL     1      -4.279  -1.125   2.185  0.00  0.00    -0.292 OA
ATOM     16  C   UNL     1      -2.535   0.061   1.171  0.00  0.00    +0.088 C 
ATOM     17  H   UNL     1      -7.375  -1.675  -1.115  0.00  0.00    +0.147 HD
ATOM     18  H   UNL     1      -4.495  -0.298  -3.110  0.00  0.00    +0.152 HD
ENDROOT
BRANCH   1  22
ATOM     19  C   UNL     1       1.200   3.102  -0.203  0.00  0.00    +0.161 A 
ATOM     20  C   UNL     1       1.204   1.716  -0.201  0.00  0.00    +0.049 A 
ATOM     21  C   UNL     1       0.010   1.022  -0.158  0.00  0.00    +0.008 A 
ATOM     22  C   UNL     1      -1.190   1.706  -0.123  0.00  0.00    -0.040 A 
ATOM     23  C   UNL     1      -1.202   3.089  -0.119  0.00  0.00    +0.053 A 
ATOM     24  C   UNL     1      -0.008   3.791  -0.162  0.00  0.00    +0.162 A 
BRANCH  19  26
ATOM     25  C   UNL     1       3.575   3.014  -0.287  0.00  0.00    +0.277 C 
ATOM     26  O   UNL     1       2.374   3.787  -0.246  0.00  0.00    -0.491 OA
ENDBRANCH  19  26
BRANCH  24  27
ATOM     27  O   UNL     1      -0.017   5.151  -0.164  0.00  0.00    -0.491 OA
ATOM     28  C   UNL     1      -1.294   5.791  -0.120  0.00  0.00    +0.277 C 
ENDBRANCH  24  27
ENDBRANCH   1  22
BRANCH   5  29
ATOM     29  C   UNL     1      -5.314  -3.296   0.611  0.00  0.00    -0.021 A 
ATOM     30  C   UNL     1      -4.556  -4.136  -0.183  0.00  0.00    +0.006 A 
ATOM     31  C   UNL     1      -4.212  -5.394   0.272  0.00  0.00    +0.003 A 
ATOM     32  C   UNL     1      -4.626  -5.814   1.523  0.00  0.00    +0.033 A 
ATOM     33  C   UNL     1      -5.383  -4.974   2.318  0.00  0.00    +0.127 A 
ATOM     34  C   UNL     1      -5.724  -3.713   1.864  0.00  0.00    +0.038 A 
BRANCH  33  35
ATOM     35  N   UNL     1      -5.826  -5.422   3.657  0.00  0.00    +0.056 N 
ATOM     36  O   UNL     1      -5.523  -6.532   4.059  0.00  0.00    -0.126 OA
ATOM     37  O   UNL     1      -6.493  -4.682   4.358  0.00  0.00    -0.126 OA
ENDBRANCH  33  35
ENDBRANCH   5  29
TORSDOF 5
