REMARK  Name = ZINC28051640
REMARK  3 active torsions:
REMARK  status: ('A' for Active; 'I' for Inactive)
REMARK    1  A    between atoms: C_1  and  C_2
REMARK    2  A    between atoms: C_10  and  C_12
REMARK    3  A    between atoms: C_23  and  C_26
REMARK                            x       y       z     vdW  Elec       q    Type
REMARK                         _______ _______ _______ _____ _____    ______ ____
ROOT
ATOM      1  C   UNL     1       1.800   6.850   0.922  0.00  0.00    +0.069 C 
ATOM      2  C   UNL     1       2.715   5.669   0.727  0.00  0.00    +0.087 A 
ATOM      3  C   UNL     1       2.347   4.379   0.353  0.00  0.00    +0.049 A 
ATOM      4  C   UNL     1       3.528   3.683   0.314  0.00  0.00    +0.226 A 
ATOM      5  O   UNL     1       4.481   4.548   0.646  0.00  0.00    -0.339 OA
ATOM      6  N   UNL     1       4.016   5.648   0.874  0.00  0.00    -0.081 NA
ATOM      7  N   UNL     1       3.558   2.345  -0.021  0.00  0.00    -0.286 N 
ATOM      8  C   UNL     1       2.376   1.644  -0.036  0.00  0.00    +0.019 C 
ATOM      9  C   UNL     1       1.171   2.251   0.003  0.00  0.00    +0.024 C 
ATOM     10  C   UNL     1       1.024   3.759   0.037  0.00  0.00    +0.091 C 
ATOM     11  C   UNL     1      -0.018   1.499   0.010  0.00  0.00    +0.162 C 
ATOM     12  O   UNL     1      -1.087   2.078   0.018  0.00  0.00    -0.292 OA
ATOM     13  C   UNL     1       0.002  -0.004   0.002  0.00  0.00    +0.088 C 
ATOM     14  C   UNL     1       1.300  -0.487   0.658  0.00  0.00    +0.032 C 
ATOM     15  C   UNL     1       2.478   0.137  -0.092  0.00  0.00    +0.059 C 
ATOM     16  H   UNL     1       4.514   1.862  -0.270  0.00  0.00    +0.155 HD
ENDROOT
BRANCH  10  17
ATOM     17  C   UNL     1       0.548   4.248  -1.307  0.00  0.00    -0.034 A 
ATOM     18  C   UNL     1      -0.648   4.935  -1.408  0.00  0.00    +0.006 A 
ATOM     19  C   UNL     1      -1.085   5.384  -2.640  0.00  0.00    +0.022 A 
ATOM     20  C   UNL     1      -0.327   5.146  -3.772  0.00  0.00    +0.059 A 
ATOM     21  C   UNL     1       0.871   4.458  -3.671  0.00  0.00    +0.060 A 
ATOM     22  C   UNL     1       1.310   4.015  -2.436  0.00  0.00    +0.026 A 
ATOM     23 CL   UNL     1       1.824   4.160  -5.090  0.00  0.00    -0.082 Cl
ATOM     24 CL   UNL     1      -0.876   5.709  -5.319  0.00  0.00    -0.082 Cl
ENDBRANCH  10  17
BRANCH  14  25
ATOM     25  C   UNL     1       1.382  -1.990   0.576  0.00  0.00    -0.044 A 
ATOM     26  C   UNL     1       1.377  -2.615  -0.657  0.00  0.00    +0.004 A 
ATOM     27  C   UNL     1       1.456  -3.993  -0.733  0.00  0.00    +0.000 A 
ATOM     28  C   UNL     1       1.533  -4.746   0.424  0.00  0.00    +0.000 A 
ATOM     29  C   UNL     1       1.534  -4.120   1.657  0.00  0.00    +0.000 A 
ATOM     30  C   UNL     1       1.458  -2.742   1.733  0.00  0.00    +0.004 A 
ENDBRANCH  14  25
TORSDOF 2
