REMARK  Name = ZINC59005188
REMARK  10 active torsions:
REMARK  status: ('A' for Active; 'I' for Inactive)
REMARK    1  A    between atoms: C_1  and  N_2
REMARK    2  A    between atoms: N_2  and  C_3
REMARK    3  A    between atoms: N_2  and  C_4
REMARK    4  A    between atoms: C_7  and  C_10
REMARK    5  A    between atoms: N_11  and  N_12
REMARK    6  A    between atoms: C_15  and  S_18
REMARK    7  A    between atoms: S_18  and  C_19
REMARK    8  A    between atoms: C_19  and  C_20
REMARK    9  A    between atoms: N_22  and  C_23
REMARK   10  A    between atoms: C_23  and  C_24
REMARK                            x       y       z     vdW  Elec       q    Type
REMARK                         _______ _______ _______ _____ _____    ______ ____
ROOT
ATOM      1  N   UNL     1      -0.022  -2.837  -7.237  0.00  0.00    -0.205 N 
ATOM      2  C   UNL     1      -0.037  -2.139  -8.430  0.00  0.00    +0.232 A 
ATOM      3  N   UNL     1      -0.045  -0.829  -8.561  0.00  0.00    -0.186 NA
ATOM      4  C   UNL     1      -0.058  -0.507  -9.859  0.00  0.00    +0.211 A 
ATOM      5  N   UNL     1      -0.059  -1.608 -10.571  0.00  0.00    -0.144 NA
ATOM      6  N   UNL     1      -0.040  -2.681  -9.666  0.00  0.00    -0.245 N 
ATOM      7  H   UNL     1      -0.012  -3.807  -7.242  0.00  0.00    +0.177 HD
ATOM      8  H   UNL     1      -0.032  -3.626  -9.886  0.00  0.00    +0.192 HD
ENDROOT
BRANCH   1  10
ATOM      9  C   UNL     1      -0.006  -2.798  -4.899  0.00  0.00    +0.138 C 
ATOM     10  N   UNL     1      -0.020  -2.143  -6.019  0.00  0.00    -0.188 NA
BRANCH   9  14
ATOM     11  C   UNL     1       0.000  -0.695  -1.210  0.00  0.00    +0.029 A 
ATOM     12  C   UNL     1       0.013  -2.086  -1.216  0.00  0.00    +0.024 A 
ATOM     13  C   UNL     1       0.011  -2.772  -2.411  0.00  0.00    +0.011 A 
ATOM     14  C   UNL     1      -0.004  -2.068  -3.618  0.00  0.00    -0.005 A 
ATOM     15  C   UNL     1      -0.017  -0.670  -3.608  0.00  0.00    +0.011 A 
ATOM     16  C   UNL     1      -0.021   0.008  -2.410  0.00  0.00    +0.024 A 
BRANCH  11  18
ATOM     17  C   UNL     1      -0.018   1.461   0.010  0.00  0.00    +0.129 C 
ATOM     18  N   UNL     1       0.002  -0.004   0.002  0.00  0.00    -0.336 N 
ATOM     19  C   UNL     1       0.024  -0.743   1.267  0.00  0.00    +0.129 C 
ENDBRANCH  11  18
ENDBRANCH   9  14
ENDBRANCH   1  10
BRANCH   4  20
ATOM     20  S   UNL     1      -0.073   1.132 -10.506  0.00  0.00    -0.075 S 
BRANCH  20  21
ATOM     21  C   UNL     1      -0.088   0.893 -12.304  0.00  0.00    +0.173 C 
BRANCH  21  22
ATOM     22  C   UNL     1      -0.101   2.235 -12.989  0.00  0.00    +0.224 C 
ATOM     23  O   UNL     1      -0.101   3.253 -12.329  0.00  0.00    -0.275 OA
ATOM     24  N   UNL     1      -0.114   2.305 -14.335  0.00  0.00    -0.311 N 
ATOM     25  H   UNL     1      -0.114   1.491 -14.863  0.00  0.00    +0.149 HD
BRANCH  24  26
ATOM     26  C   UNL     1      -0.127   3.610 -15.001  0.00  0.00    +0.139 C 
BRANCH  26  27
ATOM     27  C   UNL     1      -0.139   3.411 -16.495  0.00  0.00    -0.029 A 
ATOM     28  C   UNL     1       1.053   3.321 -17.190  0.00  0.00    +0.007 A 
ATOM     29  C   UNL     1       1.043   3.140 -18.560  0.00  0.00    +0.022 A 
ATOM     30  C   UNL     1      -0.160   3.048 -19.237  0.00  0.00    +0.059 A 
ATOM     31  C   UNL     1      -1.354   3.137 -18.541  0.00  0.00    +0.060 A 
ATOM     32  C   UNL     1      -1.342   3.314 -17.169  0.00  0.00    +0.026 A 
ATOM     33 CL   UNL     1      -2.864   3.022 -19.389  0.00  0.00    -0.082 Cl
ATOM     34 CL   UNL     1      -0.173   2.820 -20.958  0.00  0.00    -0.082 Cl
ENDBRANCH  26  27
ENDBRANCH  24  26
ENDBRANCH  21  22
ENDBRANCH  20  21
ENDBRANCH   4  20
TORSDOF 8
