REMARK  Name = ZINC35751342
REMARK  9 active torsions:
REMARK  status: ('A' for Active; 'I' for Inactive)
REMARK    1  A    between atoms: C_1  and  C_2
REMARK    2  A    between atoms: C_2  and  C_3
REMARK    3  A    between atoms: C_3  and  C_4
REMARK    4  A    between atoms: N_6  and  C_7
REMARK    5  A    between atoms: C_10  and  C_13
REMARK    6  A    between atoms: C_15  and  C_28
REMARK    7  A    between atoms: N_17  and  C_21
REMARK    8  A    between atoms: C_21  and  C_22
REMARK    9  A    between atoms: N_30  and  C_31
REMARK                            x       y       z     vdW  Elec       q    Type
REMARK                         _______ _______ _______ _____ _____    ______ ____
ROOT
ATOM      1  C   UNL     1      -2.307  -8.846   0.278  0.00  0.00    +0.238 C 
ATOM      2  C   UNL     1      -2.385  -8.928  -1.265  0.00  0.00    +0.211 C 
ATOM      3  N   UNL     1      -3.380  -9.999  -1.471  0.00  0.00    -0.248 N 
ATOM      4  C   UNL     1      -4.011 -10.203  -0.299  0.00  0.00    +0.405 C 
ATOM      5  O   UNL     1      -4.872 -11.045  -0.137  0.00  0.00    -0.226 OA
ATOM      6  O   UNL     1      -3.587  -9.377   0.673  0.00  0.00    -0.440 OA
ENDROOT
BRANCH   1  10
ATOM      7  C   UNL     1      -1.871  -4.795   1.570  0.00  0.00    +0.033 A 
ATOM      8  C   UNL     1      -0.755  -5.616   1.464  0.00  0.00    +0.024 A 
ATOM      9  C   UNL     1      -0.900  -6.924   1.047  0.00  0.00    +0.009 A 
ATOM     10  C   UNL     1      -2.153  -7.418   0.734  0.00  0.00    -0.005 A 
ATOM     11  C   UNL     1      -3.266  -6.603   0.838  0.00  0.00    +0.009 A 
ATOM     12  C   UNL     1      -3.129  -5.295   1.261  0.00  0.00    +0.024 A 
BRANCH   7  15
ATOM     13  C   UNL     1      -2.676  -2.902   2.765  0.00  0.00    +0.217 C 
ATOM     14  O   UNL     1      -3.695  -3.510   3.019  0.00  0.00    -0.275 OA
ATOM     15  N   UNL     1      -1.728  -3.469   1.993  0.00  0.00    -0.285 N 
ATOM     16  H   UNL     1      -0.946  -2.958   1.731  0.00  0.00    +0.155 HD
BRANCH  13  17
ATOM     17  C   UNL     1      -2.472  -1.513   3.311  0.00  0.00    +0.096 C 
BRANCH  17  19
ATOM     18  C   UNL     1      -3.480   0.301   4.702  0.00  0.00    +0.004 C 
ATOM     19  C   UNL     1      -3.688  -1.109   4.147  0.00  0.00    +0.006 C 
ENDBRANCH  17  19
ENDBRANCH  13  17
ENDBRANCH   7  15
ENDBRANCH   1  10
BRANCH   2  20
ATOM     20  C   UNL     1      -1.050  -9.311  -1.850  0.00  0.00    +0.242 C 
ATOM     21  O   UNL     1      -0.786 -10.478  -2.045  0.00  0.00    -0.273 OA
ATOM     22  N   UNL     1      -0.149  -8.356  -2.156  0.00  0.00    -0.284 N 
ATOM     23  H   UNL     1      -0.334  -7.428  -1.940  0.00  0.00    +0.155 HD
BRANCH  22  24
ATOM     24  C   UNL     1       1.051  -8.702  -2.785  0.00  0.00    +0.033 A 
ATOM     25  C   UNL     1       1.618  -7.847  -3.722  0.00  0.00    +0.023 A 
ATOM     26  C   UNL     1       2.803  -8.192  -4.341  0.00  0.00    +0.002 A 
ATOM     27  C   UNL     1       3.425  -9.387  -4.030  0.00  0.00    +0.000 A 
ATOM     28  C   UNL     1       2.863 -10.241  -3.099  0.00  0.00    +0.002 A 
ATOM     29  C   UNL     1       1.682  -9.899  -2.471  0.00  0.00    +0.023 A 
ENDBRANCH  22  24
ENDBRANCH   2  20
BRANCH   3  30
ATOM     30  C   UNL     1      -3.635 -10.712  -2.725  0.00  0.00    +0.147 C 
BRANCH  30  31
ATOM     31  C   UNL     1      -4.776 -10.051  -3.455  0.00  0.00    -0.030 A 
ATOM     32  C   UNL     1      -6.080 -10.414  -3.172  0.00  0.00    +0.005 A 
ATOM     33  C   UNL     1      -7.127  -9.808  -3.842  0.00  0.00    +0.000 A 
ATOM     34  C   UNL     1      -6.870  -8.839  -4.794  0.00  0.00    +0.000 A 
ATOM     35  C   UNL     1      -5.566  -8.476  -5.076  0.00  0.00    +0.000 A 
ATOM     36  C   UNL     1      -4.520  -9.079  -4.403  0.00  0.00    +0.005 A 
ENDBRANCH  30  31
ENDBRANCH   3  30
TORSDOF 8
