REMARK  Name = ZINC13569698
REMARK  6 active torsions:
REMARK  status: ('A' for Active; 'I' for Inactive)
REMARK    1  A    between atoms: C_1  and  C_2
REMARK    2  A    between atoms: C_2  and  C_3
REMARK    3  A    between atoms: C_2  and  C_4
REMARK    4  A    between atoms: C_4  and  C_5
REMARK    5  A    between atoms: C_7  and  C_11
REMARK    6  A    between atoms: C_14  and  C_19
REMARK                            x       y       z     vdW  Elec       q    Type
REMARK                         _______ _______ _______ _____ _____    ______ ____
ROOT
ATOM      1  C   UNL     1      -1.298  -5.221  -1.923  0.00  0.00    +0.152 A 
ATOM      2  N   UNL     1      -1.224  -5.177  -3.228  0.00  0.00    -0.154 NA
ATOM      3  N   UNL     1      -1.177  -6.341  -3.985  0.00  0.00    -0.185 N 
ATOM      4  C   UNL     1      -1.100  -6.739  -5.312  0.00  0.00    +0.186 A 
ATOM      5  N   UNL     1      -1.095  -8.052  -5.337  0.00  0.00    -0.126 NA
ATOM      6  N   UNL     1      -1.161  -8.513  -4.137  0.00  0.00    -0.120 NA
ATOM      7  C   UNL     1      -1.212  -7.526  -3.292  0.00  0.00    +0.219 A 
ATOM      8  S   UNL     1      -1.302  -6.979  -1.605  0.00  0.00    -0.025 S 
ENDROOT
BRANCH   4   9
ATOM      9  C   UNL     1      -1.037  -5.845  -6.488  0.00  0.00    +0.021 A 
ATOM     10  C   UNL     1      -1.356  -4.492  -6.357  0.00  0.00    +0.014 A 
ATOM     11  C   UNL     1      -1.295  -3.663  -7.457  0.00  0.00    +0.039 A 
ATOM     12  C   UNL     1      -0.917  -4.169  -8.690  0.00  0.00    +0.123 A 
ATOM     13  C   UNL     1      -0.599  -5.511  -8.826  0.00  0.00    +0.039 A 
ATOM     14  C   UNL     1      -0.652  -6.349  -7.731  0.00  0.00    +0.014 A 
ATOM     15  F   UNL     1      -0.860  -3.353  -9.765  0.00  0.00    -0.205 F 
ENDBRANCH   4   9
BRANCH   1  18
ATOM     16  C   UNL     1      -1.416  -2.035  -0.119  0.00  0.00    +0.037 A 
ATOM     17  C   UNL     1      -1.349  -2.729  -1.276  0.00  0.00    +0.055 A 
ATOM     18  C   UNL     1      -1.357  -4.102  -0.956  0.00  0.00    +0.119 A 
ATOM     19  N   UNL     1      -1.426  -4.212   0.355  0.00  0.00    -0.171 NA
ATOM     20  N   UNL     1      -1.458  -2.922   0.899  0.00  0.00    -0.281 N 
ATOM     21  H   UNL     1      -1.505  -2.703   1.843  0.00  0.00    +0.189 HD
BRANCH  16  22
ATOM     22  C   UNL     1      -1.433  -0.534   0.013  0.00  0.00    +0.058 C 
BRANCH  22  24
ATOM     23  C   UNL     1      -0.019   1.526   0.010  0.00  0.00    +0.007 C 
ATOM     24  C   UNL     1       0.002  -0.004   0.002  0.00  0.00    -0.011 C 
ATOM     25  C   UNL     1       0.742  -0.511   1.242  0.00  0.00    +0.007 C 
ENDBRANCH  22  24
ENDBRANCH  16  22
ENDBRANCH   1  18
TORSDOF 4
