REMARK  Name = ZINC02914440
REMARK  3 active torsions:
REMARK  status: ('A' for Active; 'I' for Inactive)
REMARK    1  A    between atoms: C_3  and  C_10
REMARK    2  A    between atoms: C_5  and  N_7
REMARK    3  A    between atoms: C_13  and  C_21
REMARK                            x       y       z     vdW  Elec       q    Type
REMARK                         _______ _______ _______ _____ _____    ______ ____
ROOT
ATOM      1  C   UNL     1       3.672   2.182  -0.022  0.00  0.00    +0.143 C 
ATOM      2  C   UNL     1       3.753   3.065   1.229  0.00  0.00    +0.058 C 
ATOM      3  C   UNL     1       4.922   4.048   1.094  0.00  0.00    +0.106 C 
ATOM      4  N   UNL     1       4.665   4.929  -0.062  0.00  0.00    -0.307 N 
ATOM      5  C   UNL     1       4.186   4.311  -1.210  0.00  0.00    +0.215 A 
ATOM      6  N   UNL     1       3.726   3.035  -1.209  0.00  0.00    -0.226 N 
ATOM      7  N   UNL     1       3.339   2.750  -2.519  0.00  0.00    -0.156 NA
ATOM      8  C   UNL     1       3.574   3.826  -3.226  0.00  0.00    +0.247 A 
ATOM      9  N   UNL     1       4.086   4.775  -2.426  0.00  0.00    -0.202 NA
ATOM     10  H   UNL     1       4.822   5.885  -0.022  0.00  0.00    +0.149 HD
ENDROOT
BRANCH   3  11
ATOM     11  C   UNL     1       5.035   4.874   2.349  0.00  0.00    -0.027 A 
ATOM     12  C   UNL     1       4.191   5.952   2.546  0.00  0.00    +0.007 A 
ATOM     13  C   UNL     1       4.295   6.710   3.696  0.00  0.00    +0.020 A 
ATOM     14  C   UNL     1       5.243   6.391   4.652  0.00  0.00    +0.041 A 
ATOM     15  C   UNL     1       6.087   5.312   4.455  0.00  0.00    +0.020 A 
ATOM     16  C   UNL     1       5.979   4.551   3.307  0.00  0.00    +0.007 A 
ATOM     17 CL   UNL     1       5.373   7.343   6.098  0.00  0.00    -0.084 Cl
ENDBRANCH   3  11
BRANCH   1  20
ATOM     18  C   UNL     1      -0.017   1.378   0.010  0.00  0.00    +0.003 A 
ATOM     19  C   UNL     1       1.171   2.085   0.002  0.00  0.00    +0.006 A 
ATOM     20  C   UNL     1       2.377   1.411  -0.013  0.00  0.00    -0.021 A 
ATOM     21  C   UNL     1       2.396   0.028  -0.020  0.00  0.00    +0.038 A 
ATOM     22  C   UNL     1       1.209  -0.679  -0.012  0.00  0.00    +0.127 A 
ATOM     23  C   UNL     1       0.002  -0.004   0.002  0.00  0.00    +0.033 A 
BRANCH  22  24
ATOM     24  N   UNL     1       1.229  -2.159  -0.020  0.00  0.00    +0.056 N 
ATOM     25  O   UNL     1       2.284  -2.749  -0.035  0.00  0.00    -0.126 OA
ATOM     26  O   UNL     1       0.190  -2.778  -0.013  0.00  0.00    -0.126 OA
ENDBRANCH  22  24
ENDBRANCH   1  20
TORSDOF 3
