REMARK  Name = ZINC57721718
REMARK  12 active torsions:
REMARK  status: ('A' for Active; 'I' for Inactive)
REMARK    1  A    between atoms: C_1  and  C_2
REMARK    2  A    between atoms: C_4  and  N_24
REMARK    3  A    between atoms: C_7  and  N_8
REMARK    4  A    between atoms: N_8  and  C_9
REMARK    5  A    between atoms: C_9  and  C_10
REMARK    6  A    between atoms: C_14  and  C_23
REMARK    7  A    between atoms: C_15  and  C_22
REMARK    8  A    between atoms: C_30  and  O_32
REMARK    9  A    between atoms: O_32  and  C_33
REMARK   10  A    between atoms: C_33  and  C_34
REMARK   11  A    between atoms: C_33  and  C_35
REMARK   12  A    between atoms: C_33  and  C_36
REMARK                            x       y       z     vdW  Elec       q    Type
REMARK                         _______ _______ _______ _____ _____    ______ ____
ROOT
ATOM      1  C   UNL     1       0.017   1.503   0.010  0.00  0.00    +0.046 C 
ATOM      2  C   UNL     1       0.019  -0.004   0.002  0.00  0.00    -0.028 A 
ATOM      3  C   UNL     1       0.023  -0.688  -1.198  0.00  0.00    +0.028 A 
ATOM      4  C   UNL     1       0.025  -2.076  -1.206  0.00  0.00    +0.030 A 
ATOM      5  C   UNL     1       0.024  -2.777  -0.007  0.00  0.00    +0.025 A 
ATOM      6  C   UNL     1       0.019  -2.094   1.193  0.00  0.00    +0.025 A 
ATOM      7  C   UNL     1       0.023  -0.705   1.200  0.00  0.00    +0.030 A 
ENDROOT
BRANCH   4   8
ATOM      8  N   UNL     1       0.028  -2.770  -2.422  0.00  0.00    -0.327 N 
ATOM      9  C   UNL     1      -0.092  -2.046  -3.695  0.00  0.00    +0.124 C 
ATOM     10  C   UNL     1       1.098  -2.421  -4.587  0.00  0.00    +0.130 C 
ATOM     11  N   UNL     1       1.223  -3.885  -4.613  0.00  0.00    -0.264 N 
ATOM     12  C   UNL     1       1.344  -4.608  -3.339  0.00  0.00    +0.130 C 
ATOM     13  C   UNL     1       0.159  -4.233  -2.448  0.00  0.00    +0.124 C 
ATOM     14  C   UNL     1       1.226  -4.552  -5.783  0.00  0.00    +0.403 C 
ATOM     15  O   UNL     1       1.125  -3.944  -6.830  0.00  0.00    -0.226 OA
BRANCH  14  16
ATOM     16  O   UNL     1       1.341  -5.894  -5.793  0.00  0.00    -0.445 OA
BRANCH  16  17
ATOM     17  C   UNL     1       1.337  -6.536  -7.070  0.00  0.00    +0.107 C 
ATOM     18  C   UNL     1       2.509  -6.017  -7.906  0.00  0.00    +0.055 C 
ATOM     19  C   UNL     1       1.476  -8.048  -6.881  0.00  0.00    +0.055 C 
ATOM     20  C   UNL     1       0.023  -6.231  -7.790  0.00  0.00    +0.055 C 
ENDBRANCH  16  17
ENDBRANCH  14  16
ENDBRANCH   4   8
BRANCH   7  21
ATOM     21  N   UNL     1       0.025  -0.011   2.417  0.00  0.00    -0.339 N 
ATOM     22  H   UNL     1       0.024   0.959   2.422  0.00  0.00    +0.146 HD
BRANCH  21  23
ATOM     23  C   UNL     1       0.029  -0.751   3.682  0.00  0.00    +0.142 C 
BRANCH  23  24
ATOM     24  C   UNL     1       0.031   0.222   4.832  0.00  0.00    +0.034 A 
ATOM     25  C   UNL     1      -1.139   0.574   5.421  0.00  0.00    +0.020 A 
ATOM     26  C   UNL     1      -1.103   1.521   6.537  0.00  0.00    -0.001 A 
ATOM     27  C   UNL     1      -2.277   1.922   7.184  0.00  0.00    +0.013 A 
ATOM     28  C   UNL     1      -2.209   2.807   8.222  0.00  0.00    -0.047 A 
ATOM     29  C   UNL     1      -0.986   3.313   8.641  0.00  0.00    -0.046 A 
ATOM     30  C   UNL     1       0.183   2.933   8.018  0.00  0.00    +0.030 A 
ATOM     31  C   UNL     1       0.139   2.032   6.959  0.00  0.00    +0.049 A 
ATOM     32  N   UNL     1       1.293   1.634   6.318  0.00  0.00    -0.322 N 
ATOM     33  H   UNL     1       2.148   1.986   6.610  0.00  0.00    +0.169 HD
ATOM     34  C   UNL     1       1.250   0.759   5.297  0.00  0.00    +0.254 A 
ATOM     35  O   UNL     1       2.291   0.425   4.757  0.00  0.00    -0.268 OA
ATOM     36  C   UNL     1      -0.936   4.289   9.788  0.00  0.00    +0.044 C 
ATOM     37  C   UNL     1      -3.474   3.238   8.919  0.00  0.00    +0.044 C 
ENDBRANCH  23  24
ENDBRANCH  21  23
ENDBRANCH   7  21
TORSDOF 6
