REMARK  Name = ZINC39670543
REMARK  7 active torsions:
REMARK  status: ('A' for Active; 'I' for Inactive)
REMARK    1  A    between atoms: C_1  and  C_2
REMARK    2  A    between atoms: C_7  and  C_11
REMARK    3  A    between atoms: C_11  and  N_12
REMARK    4  A    between atoms: C_13  and  C_15
REMARK    5  A    between atoms: C_26  and  C_28
REMARK    6  A    between atoms: C_32  and  O_33
REMARK    7  A    between atoms: O_33  and  C_34
REMARK                            x       y       z     vdW  Elec       q    Type
REMARK                         _______ _______ _______ _____ _____    ______ ____
ROOT
ATOM      1  C   UNL     1       3.145  -7.613   3.239  0.00  0.00    +0.100 C 
ATOM      2  C   UNL     1       3.719  -8.004   1.859  0.00  0.00    +0.121 C 
ATOM      3  N   UNL     1       4.568  -9.188   2.128  0.00  0.00    -0.296 N 
ATOM      4  C   UNL     1       3.804  -9.968   3.132  0.00  0.00    +0.115 C 
ATOM      5  C   UNL     1       3.202  -8.905   4.071  0.00  0.00    -0.004 C 
ATOM      6  C   UNL     1       1.798  -9.317   4.503  0.00  0.00    -0.010 C 
ATOM      7  C   UNL     1       1.886 -10.571   5.378  0.00  0.00    -0.082 C 
ATOM      8  N   UNL     1       2.719 -10.293   6.553  0.00  0.00    +0.379 N 
ATOM      9  C   UNL     1       4.092  -9.988   6.133  0.00  0.00    -0.082 C 
ATOM     10  C   UNL     1       4.098  -8.709   5.291  0.00  0.00    -0.010 C 
ATOM     11  C   UNL     1       5.764  -9.489   1.585  0.00  0.00    +0.251 C 
ATOM     12  O   UNL     1       6.311  -8.695   0.843  0.00  0.00    -0.270 OA
ATOM     13  H   UNL     1       2.339  -9.504   7.054  0.00  0.00    -0.086 HD
ATOM     14  H   UNL     1       2.726 -11.101   7.158  0.00  0.00    -0.086 HD
ENDROOT
BRANCH  11  15
ATOM     15  C   UNL     1       6.407 -10.776   1.888  0.00  0.00    +0.087 A 
ATOM     16  C   UNL     1       5.670 -11.924   2.076  0.00  0.00    +0.063 A 
ATOM     17  S   UNL     1       6.817 -13.107   2.389  0.00  0.00    -0.081 S 
ATOM     18  C   UNL     1       8.305 -12.135   2.284  0.00  0.00    +0.120 A 
ATOM     19  C   UNL     1       7.843 -10.897   1.996  0.00  0.00    +0.158 A 
ATOM     20 CL   UNL     1       9.949 -12.652   2.492  0.00  0.00    -0.072 Cl
BRANCH  19  21
ATOM     21  O   UNL     1       8.676  -9.834   1.823  0.00  0.00    -0.492 OA
ATOM     22  C   UNL     1       9.001  -9.070   2.986  0.00  0.00    +0.277 C 
ENDBRANCH  19  21
ENDBRANCH  11  15
BRANCH   1  24
ATOM     23  N   UNL     1       1.168  -6.375   4.062  0.00  0.00    -0.309 N 
ATOM     24  C   UNL     1       1.721  -7.140   3.101  0.00  0.00    +0.219 C 
ATOM     25  O   UNL     1       1.072  -7.448   2.123  0.00  0.00    -0.275 OA
ATOM     26  H   UNL     1       1.687  -6.128   4.844  0.00  0.00    +0.149 HD
BRANCH  23  27
ATOM     27  C   UNL     1      -0.216  -5.915   3.928  0.00  0.00    +0.159 C 
BRANCH  27  34
ATOM     28  C   UNL     1      -2.561  -3.025  10.313  0.00  0.00    +0.045 C 
ATOM     29  C   UNL     1      -1.941  -3.145   8.945  0.00  0.00    -0.034 A 
ATOM     30  C   UNL     1      -1.382  -2.013   8.328  0.00  0.00    +0.008 A 
ATOM     31  C   UNL     1      -0.823  -2.126   7.093  0.00  0.00    +0.045 A 
ATOM     32  C   UNL     1      -0.814  -3.380   6.451  0.00  0.00    +0.115 A 
ATOM     33  N   UNL     1      -0.350  -3.777   5.275  0.00  0.00    -0.342 N 
ATOM     34  C   UNL     1      -0.589  -5.083   5.128  0.00  0.00    +0.051 A 
ATOM     35  C   UNL     1      -1.219  -5.534   6.234  0.00  0.00    +0.115 A 
ATOM     36  N   UNL     1      -1.367  -4.467   7.078  0.00  0.00    -0.308 N 
ATOM     37  C   UNL     1      -1.920  -4.341   8.320  0.00  0.00    +0.096 A 
ATOM     38  H   UNL     1       0.091  -3.210   4.624  0.00  0.00    +0.167 HD
ENDBRANCH  27  34
ENDBRANCH  23  27
ENDBRANCH   1  24
TORSDOF 5
