REMARK  Name = ZINC38550205
REMARK  6 active torsions:
REMARK  status: ('A' for Active; 'I' for Inactive)
REMARK    1  A    between atoms: C_1  and  C_2
REMARK    2  A    between atoms: C_2  and  C_3
REMARK    3  A    between atoms: C_7  and  C_19
REMARK    4  A    between atoms: C_13  and  C_16
REMARK    5  A    between atoms: C_16  and  C_17
REMARK    6  A    between atoms: C_16  and  C_18
REMARK                            x       y       z     vdW  Elec       q    Type
REMARK                         _______ _______ _______ _____ _____    ______ ____
ROOT
ATOM      1  C   UNL     1      -1.412  -0.526   0.013  0.00  0.00    +0.039 C 
ATOM      2  N   UNL     1      -2.379   0.346   0.021  0.00  0.00    -0.184 NA
ATOM      3  C   UNL     1      -3.671  -0.006   0.031  0.00  0.00    +0.257 C 
ATOM      4  O   UNL     1      -4.550   0.833   0.037  0.00  0.00    -0.272 OA
ATOM      5  C   UNL     1      -4.002  -1.485   0.035  0.00  0.00    +0.205 C 
ATOM      6  C   UNL     1      -2.828  -2.445   0.027  0.00  0.00    -0.035 C 
ATOM      7  C   UNL     1      -1.596  -1.928   0.007  0.00  0.00    -0.002 C 
ATOM      8  C   UNL     1      -0.375  -2.814  -0.024  0.00  0.00    +0.197 C 
ATOM      9  O   UNL     1      -0.717  -4.147   0.351  0.00  0.00    -0.371 OA
ATOM     10  C   UNL     1      -1.821  -4.675  -0.395  0.00  0.00    +0.125 C 
ATOM     11  C   UNL     1      -3.086  -3.925   0.041  0.00  0.00    +0.064 C 
ENDROOT
BRANCH  10  12
ATOM     12  C   UNL     1      -1.980  -6.167  -0.096  0.00  0.00    +0.012 C 
ATOM     13  C   UNL     1      -0.701  -6.906  -0.493  0.00  0.00    +0.010 C 
ATOM     14  C   UNL     1      -2.239  -6.363   1.399  0.00  0.00    +0.010 C 
ENDBRANCH  10  12
BRANCH   1  16
ATOM     15  C   UNL     1      -0.019   1.526   0.010  0.00  0.00    +0.010 C 
ATOM     16  C   UNL     1       0.002  -0.004   0.002  0.00  0.00    +0.050 C 
ENDBRANCH   1  16
BRANCH   5  17
ATOM     17  C   UNL     1      -4.831  -1.769  -1.148  0.00  0.00    +0.080 C 
ATOM     18  N   UNL     1      -5.470  -1.989  -2.061  0.00  0.00    -0.195 NA
ENDBRANCH   5  17
TORSDOF 3
