REMARK  Name = ZINC13216878
REMARK  13 active torsions:
REMARK  status: ('A' for Active; 'I' for Inactive)
REMARK    1  A    between atoms: C_1  and  N_2
REMARK    2  A    between atoms: N_7  and  C_10
REMARK    3  A    between atoms: N_11  and  C_14
REMARK    4  A    between atoms: C_14  and  C_15
REMARK    5  A    between atoms: C_15  and  C_16
REMARK    6  A    between atoms: C_16  and  N_53
REMARK    7  A    between atoms: C_17  and  C_18
REMARK    8  A    between atoms: C_17  and  N_53
REMARK    9  A    between atoms: C_18  and  C_20
REMARK   10  A    between atoms: C_18  and  O_29
REMARK   11  A    between atoms: C_23  and  O_28
REMARK   12  A    between atoms: C_24  and  C_26
REMARK   13  A    between atoms: C_26  and  O_27
REMARK                            x       y       z     vdW  Elec       q    Type
REMARK                         _______ _______ _______ _____ _____    ______ ____
ROOT
ATOM      1  N   UNL     1      -3.373   6.591  -1.361  0.00  0.00    +0.381 N 
ATOM      2  H   UNL     1      -4.039   5.931  -0.944  0.00  0.00    -0.086 HD
ATOM      3  H   UNL     1      -3.342   7.449  -0.797  0.00  0.00    -0.086 HD
ENDROOT
BRANCH   1   4
ATOM      4  C   UNL     1      -3.808   6.924  -2.730  0.00  0.00    -0.081 C 
BRANCH   4   5
ATOM      5  C   UNL     1      -5.200   7.558  -2.673  0.00  0.00    +0.003 C 
BRANCH   5   6
ATOM      6  C   UNL     1      -5.660   7.907  -4.090  0.00  0.00    +0.121 C 
BRANCH   6  17
ATOM      7  C   UNL     1     -10.699  11.341  -3.681  0.00  0.00    +0.155 C 
ATOM      8  N   UNL     1      -9.242  11.198  -3.650  0.00  0.00    -0.280 N 
ATOM      9  C   UNL     1      -8.664   9.954  -3.847  0.00  0.00    +0.168 A 
ATOM     10  C   UNL     1      -7.280   9.844  -3.807  0.00  0.00    +0.151 A 
ATOM     11  C   UNL     1      -6.504  11.000  -3.578  0.00  0.00    +0.282 A 
ATOM     12  O   UNL     1      -5.289  10.930  -3.543  0.00  0.00    -0.265 OA
ATOM     13  N   UNL     1      -7.125  12.184  -3.393  0.00  0.00    -0.262 N 
ATOM     14  C   UNL     1      -8.465  12.276  -3.429  0.00  0.00    +0.333 A 
ATOM     15  O   UNL     1      -8.990  13.359  -3.259  0.00  0.00    -0.246 OA
ATOM     16  C   UNL     1      -6.325  13.387  -3.149  0.00  0.00    +0.157 C 
ATOM     17  N   UNL     1      -6.992   8.513  -4.036  0.00  0.00    -0.325 N 
ATOM     18  C   UNL     1      -8.169   7.877  -4.194  0.00  0.00    +0.202 A 
ATOM     19  N   UNL     1      -9.152   8.733  -4.082  0.00  0.00    -0.218 NA
ENDBRANCH   6  17
ENDBRANCH   5   6
ENDBRANCH   4   5
ENDBRANCH   1   4
BRANCH   1  20
ATOM     20  C   UNL     1      -2.031   5.978  -1.385  0.00  0.00    -0.046 C 
BRANCH  20  21
ATOM     21  C   UNL     1      -1.607   5.644   0.046  0.00  0.00    +0.128 C 
BRANCH  21  22
ATOM     22  C   UNL     1      -0.236   5.016   0.030  0.00  0.00    -0.020 A 
ATOM     23  C   UNL     1       0.890   5.819   0.024  0.00  0.00    +0.009 A 
ATOM     24  C   UNL     1       2.147   5.246   0.009  0.00  0.00    +0.046 A 
ATOM     25  C   UNL     1       2.279   3.865   0.001  0.00  0.00    +0.122 A 
ATOM     26  C   UNL     1       1.147   3.062   0.008  0.00  0.00    +0.020 A 
ATOM     27  C   UNL     1      -0.108   3.640   0.017  0.00  0.00    +0.015 A 
BRANCH  25  28
ATOM     28  O   UNL     1       3.514   3.299  -0.014  0.00  0.00    -0.506 OA
ATOM     29  H   UNL     1       3.863   3.140  -0.901  0.00  0.00    +0.292 HD
ENDBRANCH  25  28
BRANCH  26  30
ATOM     30  C   UNL     1       1.286   1.562  -0.002  0.00  0.00    +0.194 C 
BRANCH  30  31
ATOM     31  O   UNL     1      -0.011   0.963   0.007  0.00  0.00    -0.390 OA
ATOM     32  H   UNL     1       0.002  -0.004   0.002  0.00  0.00    +0.210 HD
ENDBRANCH  30  31
ENDBRANCH  26  30
ENDBRANCH  21  22
BRANCH  21  33
ATOM     33  O   UNL     1      -1.573   6.842   0.825  0.00  0.00    -0.389 OA
ATOM     34  H   UNL     1      -0.957   7.509   0.493  0.00  0.00    +0.210 HD
ENDBRANCH  21  33
ENDBRANCH  20  21
ENDBRANCH   1  20
TORSDOF 11
