REMARK  Name = ZINC09299609
REMARK  11 active torsions:
REMARK  status: ('A' for Active; 'I' for Inactive)
REMARK    1  A    between atoms: C_1  and  C_2
REMARK    2  A    between atoms: C_2  and  O_3
REMARK    3  A    between atoms: O_3  and  C_4
REMARK    4  A    between atoms: C_4  and  C_6
REMARK    5  A    between atoms: C_6  and  C_7
REMARK    6  A    between atoms: C_7  and  N_8
REMARK    7  A    between atoms: C_12  and  S_32
REMARK    8  A    between atoms: N_17  and  C_18
REMARK    9  A    between atoms: C_18  and  C_20
REMARK   10  A    between atoms: C_23  and  C_26
REMARK   11  A    between atoms: S_32  and  N_35
REMARK                            x       y       z     vdW  Elec       q    Type
REMARK                         _______ _______ _______ _____ _____    ______ ____
ROOT
ATOM      1  N   UNL     1       1.298   2.062   0.001  0.00  0.00    -0.321 N 
ATOM      2  C   UNL     1       2.261   1.071  -0.014  0.00  0.00    +0.058 A 
ATOM      3  C   UNL     1       3.658   1.214  -0.026  0.00  0.00    +0.029 A 
ATOM      4  C   UNL     1       4.478   0.111  -0.041  0.00  0.00    +0.030 A 
ATOM      5  C   UNL     1       3.955  -1.172  -0.042  0.00  0.00    +0.106 A 
ATOM      6  C   UNL     1       2.582  -1.342  -0.030  0.00  0.00    +0.045 A 
ATOM      7  C   UNL     1       1.761  -0.239  -0.016  0.00  0.00    +0.041 A 
ATOM      8  S   UNL     1       0.002  -0.004   0.002  0.00  0.00    -0.052 S 
ATOM      9  C   UNL     1      -0.021   1.730   0.012  0.00  0.00    +0.167 A 
ATOM     10  N   UNL     1      -1.075   2.540   0.021  0.00  0.00    -0.152 NA
ENDROOT
BRANCH   5  11
ATOM     11  S   UNL     1       5.027  -2.571  -0.060  0.00  0.00    +0.056 S 
ATOM     12  O   UNL     1       4.279  -3.647  -0.609  0.00  0.00    -0.153 OA
ATOM     13  O   UNL     1       6.256  -2.133  -0.621  0.00  0.00    -0.153 OA
BRANCH  11  14
ATOM     14  N   UNL     1       5.340  -2.968   1.517  0.00  0.00    -0.204 NA
ATOM     15  H   UNL     1       5.519  -3.890   1.758  0.00  0.00    +0.144 HD
ATOM     16  H   UNL     1       5.345  -2.278   2.199  0.00  0.00    +0.144 HD
ENDBRANCH  11  14
ENDBRANCH   5  11
BRANCH  10  17
ATOM     17  C   UNL     1      -2.311   2.029   0.025  0.00  0.00    +0.269 C 
ATOM     18  O   UNL     1      -2.471   0.821   0.020  0.00  0.00    -0.268 OA
BRANCH  17  19
ATOM     19  C   UNL     1      -3.484   2.931   0.036  0.00  0.00    +0.039 A 
ATOM     20  C   UNL     1      -3.301   4.315   0.048  0.00  0.00    +0.014 A 
ATOM     21  C   UNL     1      -4.393   5.154   0.053  0.00  0.00    +0.009 A 
ATOM     22  C   UNL     1      -5.682   4.621   0.057  0.00  0.00    -0.018 A 
ATOM     23  C   UNL     1      -5.866   3.238   0.051  0.00  0.00    +0.009 A 
ATOM     24  C   UNL     1      -4.774   2.398   0.040  0.00  0.00    +0.014 A 
BRANCH  22  25
ATOM     25  C   UNL     1      -6.858   5.524   0.068  0.00  0.00    -0.018 A 
ATOM     26  C   UNL     1      -8.147   4.995   0.066  0.00  0.00    +0.008 A 
ATOM     27  C   UNL     1      -9.237   5.841   0.082  0.00  0.00    +0.001 A 
ATOM     28  C   UNL     1      -9.053   7.212   0.088  0.00  0.00    +0.000 A 
ATOM     29  C   UNL     1      -7.775   7.743   0.085  0.00  0.00    +0.001 A 
ATOM     30  C   UNL     1      -6.677   6.907   0.074  0.00  0.00    +0.008 A 
ENDBRANCH  22  25
ENDBRANCH  17  19
ENDBRANCH  10  17
BRANCH   1  31
ATOM     31  C   UNL     1       1.698   3.471   0.004  0.00  0.00    +0.135 C 
BRANCH  31  32
ATOM     32  C   UNL     1       1.851   3.954   1.448  0.00  0.00    +0.142 C 
BRANCH  32  33
ATOM     33  C   UNL     1       2.263   5.404   1.452  0.00  0.00    +0.309 C 
ATOM     34  O   UNL     1       2.417   5.991   0.407  0.00  0.00    -0.251 OA
BRANCH  33  35
ATOM     35  O   UNL     1       2.458   6.043   2.616  0.00  0.00    -0.465 OA
BRANCH  35  37
ATOM     36  C   UNL     1       3.026   7.993   3.959  0.00  0.00    +0.048 C 
ATOM     37  C   UNL     1       2.853   7.438   2.544  0.00  0.00    +0.229 C 
ENDBRANCH  35  37
ENDBRANCH  33  35
ENDBRANCH  32  33
ENDBRANCH  31  32
ENDBRANCH   1  31
TORSDOF 10
