REMARK  Name = ZINC05238135
REMARK  4 active torsions:
REMARK  status: ('A' for Active; 'I' for Inactive)
REMARK    1  A    between atoms: C_2  and  N_10
REMARK    2  A    between atoms: C_11  and  C_13
REMARK    3  A    between atoms: C_13  and  S_14
REMARK    4  A    between atoms: S_14  and  C_15
REMARK                            x       y       z     vdW  Elec       q    Type
REMARK                         _______ _______ _______ _____ _____    ______ ____
ROOT
ATOM      1  N   UNL     1       1.161   3.487   0.009  0.00  0.00    -0.284 N 
ATOM      2  C   UNL     1      -0.011   4.148  -0.078  0.00  0.00    +0.228 C 
ATOM      3  O   UNL     1      -1.056   3.533  -0.072  0.00  0.00    -0.275 OA
ATOM      4  H   UNL     1       1.992   3.982   0.085  0.00  0.00    +0.155 HD
ENDROOT
BRANCH   1   6
ATOM      5  C   UNL     1       0.141   1.387  -0.611  0.00  0.00    +0.046 A 
ATOM      6  C   UNL     1       1.178   2.087  -0.009  0.00  0.00    +0.053 A 
ATOM      7  C   UNL     1       2.232   1.397   0.575  0.00  0.00    +0.064 A 
ATOM      8  C   UNL     1       2.247   0.015   0.555  0.00  0.00    +0.043 A 
ATOM      9  C   UNL     1       1.213  -0.681  -0.046  0.00  0.00    +0.061 A 
ATOM     10  C   UNL     1       0.161   0.005  -0.628  0.00  0.00    +0.061 A 
ATOM     11 CL   UNL     1      -1.136  -0.871  -1.380  0.00  0.00    -0.082 Cl
ATOM     12 CL   UNL     1       1.236  -2.417  -0.070  0.00  0.00    -0.082 Cl
ATOM     13 CL   UNL     1       3.531   2.269   1.328  0.00  0.00    -0.082 Cl
ENDBRANCH   1   6
BRANCH   2  14
ATOM     14  C   UNL     1      -0.022   5.651  -0.184  0.00  0.00    +0.173 C 
BRANCH  14  15
ATOM     15  S   UNL     1      -1.736   6.238  -0.285  0.00  0.00    -0.078 S 
BRANCH  15  16
ATOM     16  C   UNL     1      -1.580   7.989  -0.403  0.00  0.00    +0.170 A 
ATOM     17  N   UNL     1      -2.703   8.756  -0.490  0.00  0.00    -0.302 N 
ATOM     18  H   UNL     1      -3.579   8.340  -0.488  0.00  0.00    +0.171 HD
ATOM     19  C   UNL     1      -2.588  10.098  -0.580  0.00  0.00    +0.255 A 
ATOM     20  O   UNL     1      -3.582  10.801  -0.659  0.00  0.00    -0.267 OA
ATOM     21  C   UNL     1      -1.303  10.671  -0.581  0.00  0.00    +0.038 A 
ATOM     22  C   UNL     1      -0.214   9.855  -0.491  0.00  0.00    +0.052 A 
ATOM     23  N   UNL     1      -0.381   8.535  -0.399  0.00  0.00    -0.228 NA
ATOM     24  C   UNL     1       1.054  10.683  -0.509  0.00  0.00    +0.056 C 
ATOM     25  C   UNL     1       0.626  12.062  -1.057  0.00  0.00    +0.011 C 
ATOM     26  C   UNL     1      -0.868  12.116  -0.668  0.00  0.00    +0.043 C 
ENDBRANCH  15  16
ENDBRANCH  14  15
ENDBRANCH   2  14
TORSDOF 4
