REMARK  Name = ZINC32230624
REMARK  0 active torsions:
REMARK  status: ('A' for Active; 'I' for Inactive)
REMARK                            x       y       z     vdW  Elec       q    Type
REMARK                         _______ _______ _______ _____ _____    ______ ____
ROOT
ATOM      1  C   UNL     1      -2.204   1.141   1.327  0.00  0.00    +0.000 C 
ATOM      2  C   UNL     1      -0.758   1.597   1.290  0.00  0.00    +0.001 C 
ATOM      3  C   UNL     1      -0.013   1.086   0.008  0.00  0.00    +0.014 C 
ATOM      4  C   UNL     1      -0.760   1.596  -1.218  0.00  0.00    +0.047 C 
ATOM      5  C   UNL     1      -1.512   2.911  -0.918  0.00  0.00    +0.018 C 
ATOM      6  C   UNL     1      -2.995   2.558  -0.630  0.00  0.00    -0.000 C 
ATOM      7  C   UNL     1      -3.111   2.277   0.858  0.00  0.00    +0.004 C 
ATOM      8  C   UNL     1      -3.517   1.277  -1.312  0.00  0.00    +0.073 C 
ATOM      9  S   UNL     1      -1.988   0.470  -1.923  0.00  0.00    -0.157 S 
ENDROOT
TORSDOF 0
