REMARK  Name = ZINC39450636
REMARK  2 active torsions:
REMARK  status: ('A' for Active; 'I' for Inactive)
REMARK    1  A    between atoms: C_1  and  O_2
REMARK    2  A    between atoms: O_2  and  N_3
REMARK                            x       y       z     vdW  Elec       q    Type
REMARK                         _______ _______ _______ _____ _____    ______ ____
ROOT
ATOM      1  N   UNL     1      -1.284  -0.598   0.011  0.00  0.00    -0.139 N 
ATOM      2  C   UNL     1      -1.884  -0.880   1.231  0.00  0.00    +0.150 A 
ATOM      3  C   UNL     1      -3.135  -1.464   1.289  0.00  0.00    +0.086 A 
ATOM      4  C   UNL     1      -3.849  -1.784   0.045  0.00  0.00    +0.099 A 
ATOM      5  C   UNL     1      -3.217  -1.485  -1.182  0.00  0.00    +0.071 A 
ATOM      6  C   UNL     1      -1.885  -0.864  -1.163  0.00  0.00    +0.293 A 
ATOM      7  O   UNL     1      -1.324  -0.594  -2.209  0.00  0.00    -0.264 OA
ATOM      8  C   UNL     1      -3.874  -1.780  -2.377  0.00  0.00    +0.032 A 
ATOM      9  C   UNL     1      -5.130  -2.359  -2.302  0.00  0.00    +0.037 A 
ATOM     10  C   UNL     1      -5.690  -2.624  -1.059  0.00  0.00    +0.126 A 
ATOM     11  N   UNL     1      -5.054  -2.340   0.057  0.00  0.00    -0.252 NA
ATOM     12 BR   UNL     1      -6.078  -2.784  -3.882  0.00  0.00    -0.049 Br
ATOM     13  N   UNL     1      -3.707  -1.750   2.514  0.00  0.00    -0.311 N 
ATOM     14  C   UNL     1      -2.816  -1.989   3.660  0.00  0.00    +0.259 C 
ATOM     15  C   UNL     1      -1.846  -0.806   3.768  0.00  0.00    +0.138 C 
ATOM     16  C   UNL     1      -1.199  -0.568   2.429  0.00  0.00    +0.189 C 
ATOM     17  O   UNL     1      -0.079  -0.102   2.376  0.00  0.00    -0.290 OA
ATOM     18  F   UNL     1      -3.572  -2.088   4.833  0.00  0.00    -0.224 F 
ATOM     19  H   UNL     1      -4.670  -1.792   2.616  0.00  0.00    +0.149 HD
ENDROOT
BRANCH   1  21
ATOM     20  C   UNL     1      -0.017   1.425   0.010  0.00  0.00    +0.311 C 
ATOM     21  O   UNL     1       0.002  -0.004   0.002  0.00  0.00    -0.411 OA
ENDBRANCH   1  21
TORSDOF 1
