REMARK  Name = ZINC63802105
REMARK  6 active torsions:
REMARK  status: ('A' for Active; 'I' for Inactive)
REMARK    1  A    between atoms: C_1  and  C_2
REMARK    2  A    between atoms: C_2  and  C_3
REMARK    3  A    between atoms: N_5  and  C_6
REMARK    4  A    between atoms: C_6  and  C_7
REMARK    5  A    between atoms: N_9  and  C_10
REMARK    6  A    between atoms: C_12  and  C_16
REMARK                            x       y       z     vdW  Elec       q    Type
REMARK                         _______ _______ _______ _____ _____    ______ ____
ROOT
ATOM      1  C   UNL     1       2.155  -5.847  -3.701  0.00  0.00    +0.121 A 
ATOM      2  C   UNL     1       1.621  -6.660  -2.752  0.00  0.00    +0.074 A 
ATOM      3  C   UNL     1       1.859  -7.992  -3.145  0.00  0.00    +0.101 A 
ATOM      4  N   UNL     1       2.512  -7.971  -4.289  0.00  0.00    -0.172 NA
ATOM      5  N   UNL     1       2.705  -6.635  -4.661  0.00  0.00    -0.263 N 
ATOM      6  H   UNL     1       3.154  -6.326  -5.463  0.00  0.00    +0.190 HD
ENDROOT
BRANCH   3   7
ATOM      7  C   UNL     1       1.447  -9.203  -2.402  0.00  0.00    +0.040 A 
ATOM      8  C   UNL     1       1.648 -10.519  -2.719  0.00  0.00    +0.019 A 
ATOM      9  C   UNL     1       1.169 -11.488  -1.863  0.00  0.00    +0.023 A 
ATOM     10  C   UNL     1       0.514 -11.108  -0.736  0.00  0.00    +0.056 A 
ATOM     11  S   UNL     1       0.566  -9.327  -0.854  0.00  0.00    -0.080 S 
ATOM     12 BR   UNL     1      -0.251 -12.187   0.616  0.00  0.00    -0.043 Br
ENDBRANCH   3   7
BRANCH   1  15
ATOM     13  C   UNL     1       1.553  -3.792  -2.673  0.00  0.00    +0.235 C 
ATOM     14  O   UNL     1       1.044  -4.410  -1.762  0.00  0.00    -0.274 OA
ATOM     15  N   UNL     1       2.136  -4.452  -3.693  0.00  0.00    -0.269 N 
ATOM     16  H   UNL     1       2.542  -3.957  -4.422  0.00  0.00    +0.156 HD
BRANCH  13  17
ATOM     17  C   UNL     1       1.532  -2.285  -2.665  0.00  0.00    +0.200 C 
BRANCH  17  20
ATOM     18  C   UNL     1       0.707  -0.490  -1.238  0.00  0.00    +0.213 C 
ATOM     19  O   UNL     1       1.150   0.308  -2.036  0.00  0.00    -0.276 OA
ATOM     20  N   UNL     1       0.847  -1.812  -1.460  0.00  0.00    -0.307 N 
ATOM     21  H   UNL     1       0.493  -2.451  -0.821  0.00  0.00    +0.149 HD
BRANCH  18  23
ATOM     22  C   UNL     1      -0.019   1.526   0.010  0.00  0.00    +0.013 C 
ATOM     23  C   UNL     1       0.002  -0.004   0.002  0.00  0.00    +0.092 C 
ENDBRANCH  18  23
ENDBRANCH  17  20
ENDBRANCH  13  17
ENDBRANCH   1  15
TORSDOF 5
