REMARK  Name = ZINC26731565
REMARK  8 active torsions:
REMARK  status: ('A' for Active; 'I' for Inactive)
REMARK    1  A    between atoms: C_1  and  N_2
REMARK    2  A    between atoms: N_2  and  C_3
REMARK    3  A    between atoms: C_8  and  C_23
REMARK    4  A    between atoms: C_12  and  C_15
REMARK    5  A    between atoms: C_18  and  C_21
REMARK    6  A    between atoms: C_21  and  O_22
REMARK    7  A    between atoms: C_23  and  C_25
REMARK    8  A    between atoms: C_32  and  C_34
REMARK                            x       y       z     vdW  Elec       q    Type
REMARK                         _______ _______ _______ _____ _____    ______ ____
ROOT
ATOM      1  C   UNL     1      -4.715   4.919  -0.580  0.00  0.00    +0.133 C 
ATOM      2  N   UNL     1      -3.260   4.815  -0.713  0.00  0.00    -0.289 N 
ATOM      3  C   UNL     1      -2.678   4.082  -1.840  0.00  0.00    +0.133 C 
ATOM      4  C   UNL     1      -2.456   5.395   0.201  0.00  0.00    +0.321 C 
ATOM      5  O   UNL     1      -2.934   6.081   1.082  0.00  0.00    -0.249 OA
ATOM      6  N   UNL     1      -1.122   5.213   0.137  0.00  0.00    -0.270 N 
ATOM      7  C   UNL     1      -0.502   4.001   0.100  0.00  0.00    +0.108 A 
ATOM      8  C   UNL     1       0.848   4.177   0.042  0.00  0.00    +0.048 A 
ATOM      9  C   UNL     1       1.085   5.633   0.033  0.00  0.00    +0.011 A 
ATOM     10  C   UNL     1      -0.184   6.232   0.094  0.00  0.00    +0.059 A 
ATOM     11  C   UNL     1      -0.286   7.615   0.101  0.00  0.00    +0.035 A 
ATOM     12  C   UNL     1       0.867   8.391   0.048  0.00  0.00    -0.016 A 
ATOM     13  C   UNL     1       2.123   7.784  -0.013  0.00  0.00    +0.009 A 
ATOM     14  C   UNL     1       2.232   6.422  -0.020  0.00  0.00    +0.011 A 
ENDROOT
BRANCH  12  15
ATOM     15  C   UNL     1       0.761   9.871   0.055  0.00  0.00    -0.018 A 
ATOM     16  C   UNL     1      -0.490  10.482   0.109  0.00  0.00    +0.009 A 
ATOM     17  C   UNL     1      -0.582  11.860   0.120  0.00  0.00    +0.006 A 
ATOM     18  C   UNL     1       0.565  12.632   0.067  0.00  0.00    -0.022 A 
ATOM     19  C   UNL     1       1.809  12.030   0.008  0.00  0.00    +0.006 A 
ATOM     20  C   UNL     1       1.913  10.654   0.001  0.00  0.00    +0.009 A 
BRANCH  18  21
ATOM     21  C   UNL     1       0.457  14.135   0.073  0.00  0.00    +0.191 C 
BRANCH  21  22
ATOM     22  O   UNL     1       0.360  14.611  -1.271  0.00  0.00    -0.390 OA
ATOM     23  H   UNL     1       0.274  15.690  -1.468  0.00  0.00    +0.210 HD
ENDBRANCH  21  22
ENDBRANCH  18  21
ENDBRANCH  12  15
BRANCH   8  24
ATOM     24  C   UNL     1       1.870   3.121  -0.008  0.00  0.00    +0.197 C 
ATOM     25  O   UNL     1       2.060   2.506  -1.042  0.00  0.00    -0.287 OA
BRANCH  24  26
ATOM     26  C   UNL     1       2.663   2.806   1.193  0.00  0.00    +0.044 A 
ATOM     27  C   UNL     1       2.632   3.509   2.473  0.00  0.00    +0.031 A 
ATOM     28  C   UNL     1       3.508   2.881   3.266  0.00  0.00    +0.088 A 
ATOM     29  N   UNL     1       4.087   1.830   2.571  0.00  0.00    -0.333 N 
ATOM     30  C   UNL     1       3.587   1.784   1.334  0.00  0.00    +0.041 A 
ATOM     31  C   UNL     1       4.109   0.686   0.403  0.00  0.00    +0.125 C 
ATOM     32  S   UNL     1       5.612   0.144   1.318  0.00  0.00    -0.125 S 
ATOM     33  C   UNL     1       5.106   0.811   2.957  0.00  0.00    +0.177 C 
BRANCH  33  34
ATOM     34  C   UNL     1       4.494  -0.268   3.812  0.00  0.00    +0.003 A 
ATOM     35  C   UNL     1       4.964  -0.497   5.096  0.00  0.00    +0.009 A 
ATOM     36  C   UNL     1       4.370  -1.500   5.847  0.00  0.00    +0.020 A 
ATOM     37  C   UNL     1       3.337  -2.233   5.294  0.00  0.00    +0.111 A 
ATOM     38  N   UNL     1       2.916  -1.987   4.069  0.00  0.00    -0.263 NA
ATOM     39  C   UNL     1       3.453  -1.037   3.328  0.00  0.00    +0.117 A 
ENDBRANCH  33  34
ENDBRANCH  24  26
ENDBRANCH   8  24
TORSDOF 6
