REMARK  Name = ZINC00909031
REMARK  9 active torsions:
REMARK  status: ('A' for Active; 'I' for Inactive)
REMARK    1  A    between atoms: C_1  and  C_2
REMARK    2  A    between atoms: C_2  and  C_3
REMARK    3  A    between atoms: C_3  and  C_4
REMARK    4  A    between atoms: C_3  and  C_5
REMARK    5  A    between atoms: C_3  and  N_6
REMARK    6  A    between atoms: C_7  and  C_11
REMARK    7  A    between atoms: C_11  and  C_13
REMARK    8  A    between atoms: C_11  and  N_26
REMARK    9  A    between atoms: C_18  and  C_25
REMARK                            x       y       z     vdW  Elec       q    Type
REMARK                         _______ _______ _______ _____ _____    ______ ____
ROOT
ATOM      1  C   UNL     1       2.936   0.449  -0.945  0.00  0.00    +0.179 C 
ENDROOT
BRANCH   1   2
ATOM      2  C   UNL     1       4.089  -0.426  -0.524  0.00  0.00    +0.045 A 
ATOM      3  C   UNL     1       4.414  -0.530   0.788  0.00  0.00    +0.021 A 
ATOM      4  C   UNL     1       5.539  -1.388   1.164  0.00  0.00    -0.001 A 
ATOM      5  C   UNL     1       5.921  -1.536   2.501  0.00  0.00    +0.010 A 
ATOM      6  C   UNL     1       6.976  -2.344   2.819  0.00  0.00    +0.004 A 
ATOM      7  C   UNL     1       7.672  -3.021   1.826  0.00  0.00    -0.048 A 
ATOM      8  C   UNL     1       7.313  -2.890   0.502  0.00  0.00    +0.029 A 
ATOM      9  C   UNL     1       6.242  -2.072   0.154  0.00  0.00    +0.049 A 
ATOM     10  N   UNL     1       5.861  -1.924  -1.162  0.00  0.00    -0.322 N 
ATOM     11  H   UNL     1       6.364  -2.408  -1.879  0.00  0.00    +0.169 HD
ATOM     12  C   UNL     1       4.823  -1.138  -1.497  0.00  0.00    +0.255 A 
ATOM     13  O   UNL     1       4.511  -1.034  -2.671  0.00  0.00    -0.268 OA
ATOM     14  C   UNL     1       8.832  -3.907   2.200  0.00  0.00    +0.044 C 
ENDBRANCH   1   2
BRANCH   1  15
ATOM     15  N   UNL     1       3.361   1.322  -2.047  0.00  0.00    -0.316 N 
ATOM     16  C   UNL     1       2.233   1.648  -2.923  0.00  0.00    +0.106 C 
ATOM     17  C   UNL     1       2.729   2.580  -4.035  0.00  0.00    +0.024 C 
ATOM     18  C   UNL     1       3.091   3.924  -3.398  0.00  0.00    +0.038 C 
ATOM     19  C   UNL     1       3.934   3.692  -2.169  0.00  0.00    -0.026 A 
ATOM     20  C   UNL     1       4.022   2.450  -1.564  0.00  0.00    +0.034 A 
ATOM     21  C   UNL     1       4.806   2.300  -0.418  0.00  0.00    +0.023 A 
ATOM     22  C   UNL     1       5.491   3.377   0.104  0.00  0.00    +0.002 A 
ATOM     23  C   UNL     1       5.403   4.614  -0.507  0.00  0.00    +0.000 A 
ATOM     24  C   UNL     1       4.627   4.769  -1.639  0.00  0.00    +0.005 A 
ENDBRANCH   1  15
BRANCH   1  26
ATOM     25  N   UNL     1       0.570  -0.497  -0.841  0.00  0.00    -0.222 N 
ATOM     26  C   UNL     1       1.790  -0.416  -1.403  0.00  0.00    +0.177 A 
ATOM     27  N   UNL     1       1.790  -1.239  -2.424  0.00  0.00    -0.111 NA
ATOM     28  N   UNL     1       0.627  -1.789  -2.490  0.00  0.00    -0.023 NA
ATOM     29  N   UNL     1      -0.113  -1.344  -1.536  0.00  0.00    -0.043 NA
BRANCH  25  30
ATOM     30  C   UNL     1       0.102   0.241   0.335  0.00  0.00    +0.062 C 
ATOM     31  C   UNL     1       0.163   1.743   0.050  0.00  0.00    +0.036 C 
ATOM     32  C   UNL     1       0.996  -0.088   1.532  0.00  0.00    +0.036 C 
BRANCH  30  34
ATOM     33  C   UNL     1      -1.828   0.611   1.877  0.00  0.00    +0.006 C 
ATOM     34  C   UNL     1      -1.340  -0.161   0.649  0.00  0.00    +0.026 C 
ENDBRANCH  30  34
ENDBRANCH  25  30
ENDBRANCH   1  26
TORSDOF 5
