REMARK  Name = ZINC38734189
REMARK  12 active torsions:
REMARK  status: ('A' for Active; 'I' for Inactive)
REMARK    1  A    between atoms: C_1  and  C_2
REMARK    2  A    between atoms: C_2  and  C_3
REMARK    3  A    between atoms: C_5  and  C_37
REMARK    4  A    between atoms: N_8  and  C_12
REMARK    5  A    between atoms: C_9  and  C_11
REMARK    6  A    between atoms: C_15  and  C_18
REMARK    7  A    between atoms: N_20  and  C_21
REMARK    8  A    between atoms: C_21  and  C_23
REMARK    9  A    between atoms: C_21  and  C_33
REMARK   10  A    between atoms: C_23  and  C_24
REMARK   11  A    between atoms: C_33  and  O_35
REMARK   12  A    between atoms: O_35  and  C_36
REMARK                            x       y       z     vdW  Elec       q    Type
REMARK                         _______ _______ _______ _____ _____    ______ ____
ROOT
ATOM      1  C   UNL     1       5.011  -7.406  -0.919  0.00  0.00    +0.245 C 
ATOM      2  O   UNL     1       4.425  -8.393  -1.321  0.00  0.00    -0.270 OA
ATOM      3  N   UNL     1       6.280  -7.509  -0.477  0.00  0.00    -0.298 N 
ATOM      4  H   UNL     1       6.748  -6.722  -0.157  0.00  0.00    +0.150 HD
ENDROOT
BRANCH   1   8
ATOM      5  C   UNL     1       3.059  -3.635  -0.907  0.00  0.00    +0.045 A 
ATOM      6  C   UNL     1       2.386  -4.764  -1.367  0.00  0.00    +0.025 A 
ATOM      7  C   UNL     1       3.017  -5.987  -1.373  0.00  0.00    +0.015 A 
ATOM      8  C   UNL     1       4.333  -6.096  -0.915  0.00  0.00    +0.037 A 
ATOM      9  C   UNL     1       5.005  -4.961  -0.453  0.00  0.00    +0.015 A 
ATOM     10  C   UNL     1       4.372  -3.739  -0.456  0.00  0.00    +0.025 A 
BRANCH   5  14
ATOM     11  C   UNL     1       1.516  -0.279  -0.228  0.00  0.00    +0.029 C 
ATOM     12  C   UNL     1       0.696  -0.951  -1.363  0.00  0.00    +0.075 C 
ATOM     13  N   UNL     1       1.693  -1.885  -1.945  0.00  0.00    -0.237 NA
ATOM     14  N   UNL     1       2.420  -2.400  -0.902  0.00  0.00    -0.264 N 
ATOM     15  C   UNL     1       2.421  -1.450   0.223  0.00  0.00    +0.092 C 
ATOM     16  C   UNL     1       1.845  -2.112   1.476  0.00  0.00    +0.030 C 
ATOM     17  C   UNL     1       0.243   0.082  -2.397  0.00  0.00    +0.026 C 
ATOM     18  H   UNL     1       2.292  -1.411  -2.604  0.00  0.00    +0.145 HD
BRANCH  11  20
ATOM     19  C   UNL     1       3.187   1.481   0.367  0.00  0.00    +0.004 C 
ATOM     20  C   UNL     1       2.350   0.885  -0.767  0.00  0.00    +0.003 C 
ENDBRANCH  11  20
ENDBRANCH   5  14
ENDBRANCH   1   8
BRANCH   3  21
ATOM     21  C   UNL     1       6.954  -8.810  -0.481  0.00  0.00    +0.186 C 
BRANCH  21  22
ATOM     22  C   UNL     1       6.607  -9.559   0.779  0.00  0.00    +0.328 C 
ATOM     23  O   UNL     1       5.873  -9.058   1.597  0.00  0.00    -0.249 OA
BRANCH  22  24
ATOM     24  O   UNL     1       7.114 -10.784   0.994  0.00  0.00    -0.467 OA
ATOM     25  C   UNL     1       6.743 -11.435   2.210  0.00  0.00    +0.280 C 
ENDBRANCH  22  24
ENDBRANCH  21  22
BRANCH  21  26
ATOM     26  C   UNL     1       8.468  -8.601  -0.550  0.00  0.00    +0.071 C 
BRANCH  26  27
ATOM     27  C   UNL     1       8.827  -7.962  -1.867  0.00  0.00    -0.020 A 
ATOM     28  C   UNL     1       8.811  -6.529  -2.174  0.00  0.00    +0.003 A 
ATOM     29  C   UNL     1       8.494  -5.384  -1.441  0.00  0.00    +0.010 A 
ATOM     30  C   UNL     1       8.582  -4.155  -2.032  0.00  0.00    +0.001 A 
ATOM     31  C   UNL     1       8.984  -4.036  -3.356  0.00  0.00    +0.002 A 
ATOM     32  C   UNL     1       9.301  -5.154  -4.097  0.00  0.00    +0.026 A 
ATOM     33  C   UNL     1       9.219  -6.414  -3.515  0.00  0.00    +0.047 A 
ATOM     34  N   UNL     1       9.462  -7.689  -3.976  0.00  0.00    -0.360 N 
ATOM     35  C   UNL     1       9.229  -8.597  -2.979  0.00  0.00    +0.087 A 
ATOM     36  H   UNL     1       9.758  -7.910  -4.873  0.00  0.00    +0.165 HD
ENDBRANCH  26  27
ENDBRANCH  21  26
ENDBRANCH   3  21
TORSDOF 8
