REMARK  Name = ZINC08728502
REMARK  7 active torsions:
REMARK  status: ('A' for Active; 'I' for Inactive)
REMARK    1  A    between atoms: C_1  and  C_2
REMARK    2  A    between atoms: C_2  and  C_3
REMARK    3  A    between atoms: C_3  and  C_4
REMARK    4  A    between atoms: C_4  and  C_6
REMARK    5  A    between atoms: C_4  and  N_50
REMARK    6  A    between atoms: C_12  and  C_13
REMARK    7  A    between atoms: C_12  and  N_50
REMARK                            x       y       z     vdW  Elec       q    Type
REMARK                         _______ _______ _______ _____ _____    ______ ____
ROOT
ATOM      1  C   UNL     1      -3.403   4.226   0.442  0.00  0.00    +0.095 A 
ATOM      2  N   UNL     1      -2.172   4.793   0.380  0.00  0.00    -0.339 N 
ATOM      3  H   UNL     1      -2.059   5.750   0.270  0.00  0.00    +0.167 HD
ATOM      4  C   UNL     1      -1.105   3.961   0.495  0.00  0.00    +0.092 A 
ATOM      5  C   UNL     1      -1.234   2.570   0.661  0.00  0.00    +0.075 A 
ATOM      6  C   UNL     1       0.004   1.819   0.764  0.00  0.00    -0.023 A 
ATOM      7  C   UNL     1       1.152   2.532   0.701  0.00  0.00    -0.004 A 
ATOM      8  S   UNL     1       0.638   4.219   0.495  0.00  0.00    -0.075 S 
ATOM      9  C   UNL     1       2.552   2.009   0.788  0.00  0.00    +0.043 C 
ATOM     10  C   UNL     1       2.502   0.574   1.332  0.00  0.00    +0.005 C 
ATOM     11  C   UNL     1       1.433  -0.205   0.560  0.00  0.00    +0.005 C 
ATOM     12  C   UNL     1       0.043   0.303   0.942  0.00  0.00    +0.037 C 
ATOM     13  C   UNL     1      -2.615   2.035   0.707  0.00  0.00    +0.282 A 
ATOM     14  O   UNL     1      -2.846   0.844   0.842  0.00  0.00    -0.265 OA
ATOM     15  N   UNL     1      -3.603   2.949   0.589  0.00  0.00    -0.197 NA
ENDROOT
BRANCH   1  16
ATOM     16  C   UNL     1      -4.607   5.125   0.323  0.00  0.00    -0.006 C 
BRANCH  16  17
ATOM     17  N   UNL     1      -5.050   5.156  -1.084  0.00  0.00    +0.388 N 
ATOM     18  H   UNL     1      -4.320   5.592  -1.659  0.00  0.00    -0.084 HD
ATOM     19  H   UNL     1      -5.214   4.196  -1.409  0.00  0.00    -0.084 HD
BRANCH  17  20
ATOM     20  C   UNL     1      -6.298   5.933  -1.210  0.00  0.00    -0.040 C 
BRANCH  20  21
ATOM     21  C   UNL     1      -6.393   6.493  -2.606  0.00  0.00    -0.061 A 
ATOM     22  C   UNL     1      -5.998   5.726  -3.687  0.00  0.00    +0.002 A 
ATOM     23  C   UNL     1      -6.089   6.238  -4.968  0.00  0.00    +0.000 A 
ATOM     24  C   UNL     1      -6.566   7.520  -5.167  0.00  0.00    +0.000 A 
ATOM     25  C   UNL     1      -6.956   8.288  -4.087  0.00  0.00    +0.000 A 
ATOM     26  C   UNL     1      -6.869   7.775  -2.806  0.00  0.00    +0.002 A 
ENDBRANCH  20  21
BRANCH  20  27
ATOM     27  C   UNL     1      -7.497   5.020  -0.945  0.00  0.00    -0.011 C 
BRANCH  27  29
ATOM     28  C   UNL     1      -9.985   4.930  -0.739  0.00  0.00    +0.004 C 
ATOM     29  C   UNL     1      -8.781   5.851  -0.952  0.00  0.00    -0.005 C 
ENDBRANCH  27  29
ENDBRANCH  20  27
ENDBRANCH  17  20
ENDBRANCH  16  17
ENDBRANCH   1  16
TORSDOF 6
