REMARK  Name = ZINC10381756
REMARK  7 active torsions:
REMARK  status: ('A' for Active; 'I' for Inactive)
REMARK    1  A    between atoms: C_5  and  N_7
REMARK    2  A    between atoms: C_8  and  C_10
REMARK    3  A    between atoms: C_10  and  S_11
REMARK    4  A    between atoms: S_11  and  C_12
REMARK    5  A    between atoms: C_13  and  C_29
REMARK    6  A    between atoms: C_14  and  C_20
REMARK    7  A    between atoms: C_24  and  N_26
REMARK                            x       y       z     vdW  Elec       q    Type
REMARK                         _______ _______ _______ _____ _____    ______ ____
ROOT
ATOM      1  C   UNL     1       1.976   0.001  -1.321  0.00  0.00    +0.082 C 
ATOM      2  C   UNL     1       2.241   1.306  -1.034  0.00  0.00    +0.065 C 
ATOM      3  C   UNL     1       1.457   2.018   0.037  0.00  0.00    +0.071 C 
ATOM      4  C   UNL     1       0.021   1.491   0.053  0.00  0.00    +0.109 C 
ATOM      5  C   UNL     1       0.036  -0.015   0.037  0.00  0.00    +0.218 C 
ATOM      6  O   UNL     1      -0.818  -0.632   0.636  0.00  0.00    -0.275 OA
ATOM      7  N   UNL     1       0.992  -0.680  -0.637  0.00  0.00    -0.279 N 
ATOM      8  H   UNL     1       0.988  -1.650  -0.642  0.00  0.00    +0.155 HD
ENDROOT
BRANCH   3   9
ATOM      9  C   UNL     1       2.098   1.770   1.378  0.00  0.00    -0.037 A 
ATOM     10  C   UNL     1       2.222   0.479   1.857  0.00  0.00    +0.004 A 
ATOM     11  C   UNL     1       2.810   0.251   3.086  0.00  0.00    +0.003 A 
ATOM     12  C   UNL     1       3.276   1.315   3.838  0.00  0.00    +0.033 A 
ATOM     13  C   UNL     1       3.152   2.606   3.359  0.00  0.00    +0.126 A 
ATOM     14  C   UNL     1       2.568   2.833   2.127  0.00  0.00    +0.037 A 
BRANCH  13  15
ATOM     15  N   UNL     1       3.650   3.744   4.163  0.00  0.00    +0.056 N 
ATOM     16  O   UNL     1       4.169   3.543   5.247  0.00  0.00    -0.126 OA
ATOM     17  O   UNL     1       3.541   4.881   3.741  0.00  0.00    -0.126 OA
ENDBRANCH  13  15
ENDBRANCH   3   9
BRANCH   2  18
ATOM     18  C   UNL     1       3.266   2.002  -1.752  0.00  0.00    +0.098 C 
ATOM     19  N   UNL     1       4.080   2.554  -2.321  0.00  0.00    -0.191 NA
ENDBRANCH   2  18
BRANCH   1  20
ATOM     20  S   UNL     1       2.899  -0.822  -2.576  0.00  0.00    -0.100 S 
BRANCH  20  21
ATOM     21  C   UNL     1       2.132  -2.460  -2.507  0.00  0.00    +0.171 C 
BRANCH  21  23
ATOM     22  N   UNL     1       2.368  -4.639  -3.654  0.00  0.00    -0.284 N 
ATOM     23  C   UNL     1       2.781  -3.362  -3.525  0.00  0.00    +0.227 C 
ATOM     24  O   UNL     1       3.674  -2.939  -4.228  0.00  0.00    -0.275 OA
ATOM     25  H   UNL     1       1.700  -4.996  -3.049  0.00  0.00    +0.155 HD
BRANCH  22  30
ATOM     26  C   UNL     1       4.761  -6.106  -6.031  0.00  0.00    +0.002 A 
ATOM     27  C   UNL     1       3.966  -7.052  -6.652  0.00  0.00    +0.002 A 
ATOM     28  C   UNL     1       2.643  -7.199  -6.282  0.00  0.00    +0.022 A 
ATOM     29  C   UNL     1       2.111  -6.404  -5.284  0.00  0.00    +0.062 A 
ATOM     30  C   UNL     1       2.905  -5.449  -4.661  0.00  0.00    +0.052 A 
ATOM     31  C   UNL     1       4.234  -5.304  -5.037  0.00  0.00    +0.025 A 
ATOM     32 CL   UNL     1       0.450  -6.594  -4.814  0.00  0.00    -0.082 Cl
ENDBRANCH  22  30
ENDBRANCH  21  23
ENDBRANCH  20  21
ENDBRANCH   1  20
TORSDOF 7
