REMARK  Name = ZINC16688091
REMARK  12 active torsions:
REMARK  status: ('A' for Active; 'I' for Inactive)
REMARK    1  A    between atoms: C_1  and  C_2
REMARK    2  A    between atoms: C_2  and  O_3
REMARK    3  A    between atoms: O_3  and  C_4
REMARK    4  A    between atoms: C_5  and  O_25
REMARK    5  A    between atoms: C_7  and  C_11
REMARK    6  A    between atoms: C_11  and  N_47
REMARK    7  A    between atoms: C_12  and  C_13
REMARK    8  A    between atoms: C_12  and  N_47
REMARK    9  A    between atoms: C_13  and  N_14
REMARK   10  A    between atoms: N_14  and  C_15
REMARK   11  A    between atoms: C_18  and  N_22
REMARK   12  A    between atoms: O_25  and  C_26
REMARK                            x       y       z     vdW  Elec       q    Type
REMARK                         _______ _______ _______ _____ _____    ______ ____
ROOT
ATOM      1  N   UNL     1      -0.732   1.579  -1.182  0.00  0.00    +0.383 N 
ATOM      2  H   UNL     1      -0.746   2.605  -1.168  0.00  0.00    -0.085 HD
ATOM      3  H   UNL     1      -1.695   1.223  -1.167  0.00  0.00    -0.085 HD
ENDROOT
BRANCH   1   4
ATOM      4  C   UNL     1      -0.013   1.086   0.008  0.00  0.00    -0.047 C 
BRANCH   4   8
ATOM      5  C   UNL     1      -2.018   2.461   3.527  0.00  0.00    +0.176 A 
ATOM      6  C   UNL     1      -1.010   3.231   2.954  0.00  0.00    +0.163 A 
ATOM      7  C   UNL     1      -0.358   2.780   1.817  0.00  0.00    +0.051 A 
ATOM      8  C   UNL     1      -0.718   1.572   1.248  0.00  0.00    -0.060 A 
ATOM      9  C   UNL     1      -1.719   0.807   1.816  0.00  0.00    +0.021 A 
ATOM     10  C   UNL     1      -2.370   1.249   2.954  0.00  0.00    +0.063 A 
ATOM     11 BR   UNL     1      -3.739   0.199   3.729  0.00  0.00    -0.046 Br
BRANCH   6  12
ATOM     12  O   UNL     1      -0.661   4.421   3.512  0.00  0.00    -0.491 OA
ATOM     13  C   UNL     1       0.382   5.157   2.870  0.00  0.00    +0.277 C 
ENDBRANCH   6  12
BRANCH   5  14
ATOM     14  O   UNL     1      -2.657   2.898   4.645  0.00  0.00    -0.487 OA
BRANCH  14  16
ATOM     15  C   UNL     1      -2.947   3.094   7.037  0.00  0.00    +0.048 C 
ATOM     16  C   UNL     1      -2.098   2.514   5.903  0.00  0.00    +0.226 C 
ENDBRANCH  14  16
ENDBRANCH   5  14
ENDBRANCH   4   8
ENDBRANCH   1   4
BRANCH   1  17
ATOM     17  C   UNL     1      -0.062   1.117  -2.413  0.00  0.00    -0.063 C 
BRANCH  17  18
ATOM     18  C   UNL     1      -0.829   1.643  -3.628  0.00  0.00    +0.082 C 
BRANCH  18  19
ATOM     19  N   UNL     1      -0.171   1.188  -4.855  0.00  0.00    -0.345 N 
ATOM     20  H   UNL     1       0.628   0.640  -4.802  0.00  0.00    +0.146 HD
BRANCH  19  21
ATOM     21  C   UNL     1      -0.692   1.545  -6.101  0.00  0.00    +0.046 A 
ATOM     22  C   UNL     1      -1.835   2.330  -6.178  0.00  0.00    +0.026 A 
ATOM     23  C   UNL     1      -2.348   2.681  -7.412  0.00  0.00    +0.034 A 
ATOM     24  C   UNL     1      -1.726   2.252  -8.570  0.00  0.00    +0.128 A 
ATOM     25  C   UNL     1      -0.587   1.470  -8.497  0.00  0.00    +0.054 A 
ATOM     26  C   UNL     1      -0.065   1.120  -7.266  0.00  0.00    +0.064 A 
ATOM     27 CL   UNL     1       1.368   0.145  -7.176  0.00  0.00    -0.082 Cl
BRANCH  24  28
ATOM     28  N   UNL     1      -2.278   2.631  -9.889  0.00  0.00    +0.056 N 
ATOM     29  O   UNL     1      -3.281   3.320  -9.955  0.00  0.00    -0.126 OA
ATOM     30  O   UNL     1      -1.731   2.254 -10.910  0.00  0.00    -0.126 OA
ENDBRANCH  24  28
ENDBRANCH  19  21
ENDBRANCH  18  19
ENDBRANCH  17  18
ENDBRANCH   1  17
TORSDOF 10
