REMARK  Name = ZINC08961266
REMARK  4 active torsions:
REMARK  status: ('A' for Active; 'I' for Inactive)
REMARK    1  A    between atoms: C_1  and  C_2
REMARK    2  A    between atoms: C_13  and  N_18
REMARK    3  A    between atoms: N_18  and  S_19
REMARK    4  A    between atoms: S_19  and  C_22
REMARK                            x       y       z     vdW  Elec       q    Type
REMARK                         _______ _______ _______ _____ _____    ______ ____
ROOT
ATOM      1  C   UNL     1      -2.334   4.533  -0.015  0.00  0.00    +0.044 C 
ATOM      2  C   UNL     1      -1.005   3.823  -0.055  0.00  0.00    -0.048 A 
ATOM      3  C   UNL     1       0.165   4.552  -0.158  0.00  0.00    +0.007 A 
ATOM      4  C   UNL     1       1.383   3.901  -0.209  0.00  0.00    +0.048 A 
ATOM      5  C   UNL     1       1.437   2.514  -0.158  0.00  0.00    +0.150 A 
ATOM      6  C   UNL     1       0.265   1.782  -0.025  0.00  0.00    +0.077 A 
ATOM      7  C   UNL     1      -0.958   2.444   0.012  0.00  0.00    +0.030 A 
ATOM      8  N   UNL     1       0.283   0.391   0.078  0.00  0.00    -0.278 N 
ATOM      9  C   UNL     1       1.071  -0.433  -0.599  0.00  0.00    +0.252 C 
ATOM     10  O   UNL     1       0.936  -1.625  -0.402  0.00  0.00    -0.270 OA
ATOM     11  C   UNL     1       2.093  -0.018  -1.569  0.00  0.00    +0.081 A 
ATOM     12  C   UNL     1       2.292  -0.769  -2.732  0.00  0.00    +0.041 A 
ATOM     13  C   UNL     1       3.272  -0.397  -3.636  0.00  0.00    +0.049 A 
ATOM     14  C   UNL     1       4.061   0.721  -3.389  0.00  0.00    +0.028 A 
ATOM     15  C   UNL     1       3.863   1.473  -2.248  0.00  0.00    +0.049 A 
ATOM     16  C   UNL     1       2.875   1.120  -1.341  0.00  0.00    +0.141 A 
ATOM     17  O   UNL     1       2.644   1.904  -0.262  0.00  0.00    -0.453 OA
ATOM     18  H   UNL     1      -0.339  -0.011   0.704  0.00  0.00    +0.155 HD
ENDROOT
BRANCH  13  19
ATOM     19  N   UNL     1       3.469  -1.148  -4.801  0.00  0.00    -0.216 N 
ATOM     20  H   UNL     1       4.234  -1.740  -4.872  0.00  0.00    +0.174 HD
BRANCH  19  21
ATOM     21  S   UNL     1       2.397  -1.024  -6.057  0.00  0.00    +0.079 S 
ATOM     22  O   UNL     1       2.889  -1.861  -7.095  0.00  0.00    -0.149 OA
ATOM     23  O   UNL     1       1.099  -1.185  -5.500  0.00  0.00    -0.149 OA
BRANCH  21  24
ATOM     24  C   UNL     1       2.486   0.629  -6.657  0.00  0.00    +0.146 A 
ATOM     25  C   UNL     1       3.223   1.127  -7.681  0.00  0.00    +0.036 A 
ATOM     26  C   UNL     1       3.133   2.474  -7.978  0.00  0.00    +0.010 A 
ATOM     27  C   UNL     1       2.311   3.257  -7.238  0.00  0.00    +0.047 A 
ATOM     28  S   UNL     1       1.624   2.083  -6.082  0.00  0.00    -0.077 S 
ENDBRANCH  21  24
ENDBRANCH  19  21
ENDBRANCH  13  19
TORSDOF 3
