REMARK  Name = ZINC23538802
REMARK  9 active torsions:
REMARK  status: ('A' for Active; 'I' for Inactive)
REMARK    1  A    between atoms: C_1  and  C_2
REMARK    2  A    between atoms: C_3  and  C_34
REMARK    3  A    between atoms: N_9  and  C_29
REMARK    4  A    between atoms: C_10  and  S_12
REMARK    5  A    between atoms: S_12  and  C_13
REMARK    6  A    between atoms: C_13  and  C_14
REMARK    7  A    between atoms: N_16  and  C_17
REMARK    8  A    between atoms: C_22  and  C_23
REMARK    9  A    between atoms: C_23  and  C_25
REMARK                            x       y       z     vdW  Elec       q    Type
REMARK                         _______ _______ _______ _____ _____    ______ ____
ROOT
ATOM      1  S   UNL     1       1.805   4.062  -1.705  0.00  0.00    -0.078 S 
ENDROOT
BRANCH   1  11
ATOM      2  C   UNL     1      -4.175   0.497  -1.709  0.00  0.00    +0.045 C 
ATOM      3  C   UNL     1      -3.754   1.934  -1.537  0.00  0.00    -0.026 A 
ATOM      4  C   UNL     1      -4.671   2.889  -1.321  0.00  0.00    -0.008 A 
ATOM      5  S   UNL     1      -3.697   4.376  -1.189  0.00  0.00    -0.073 S 
ATOM      6  C   UNL     1      -2.086   3.673  -1.428  0.00  0.00    +0.117 A 
ATOM      7  C   UNL     1      -2.350   2.302  -1.609  0.00  0.00    +0.075 A 
ATOM      8  C   UNL     1      -1.206   1.470  -1.821  0.00  0.00    +0.263 A 
ATOM      9  O   UNL     1      -1.337   0.269  -1.983  0.00  0.00    -0.267 OA
ATOM     10  N   UNL     1       0.017   2.032  -1.845  0.00  0.00    -0.284 N 
ATOM     11  C   UNL     1       0.183   3.374  -1.665  0.00  0.00    +0.173 A 
ATOM     12  N   UNL     1      -0.853   4.163  -1.462  0.00  0.00    -0.216 NA
ATOM     13  C   UNL     1      -6.167   2.739  -1.214  0.00  0.00    +0.052 C 
BRANCH  10  14
ATOM     14  C   UNL     1       1.192   1.185  -2.068  0.00  0.00    +0.093 C 
ATOM     15  C   UNL     1       1.080   0.474  -3.432  0.00  0.00    +0.025 C 
ATOM     16  C   UNL     1       1.681  -0.931  -3.177  0.00  0.00    +0.002 C 
ATOM     17  C   UNL     1       1.180  -1.265  -1.750  0.00  0.00    +0.002 C 
ATOM     18  C   UNL     1       1.256   0.080  -0.999  0.00  0.00    +0.025 C 
ENDBRANCH  10  14
ENDBRANCH   1  11
BRANCH   1  19
ATOM     19  C   UNL     1       1.414   5.806  -1.419  0.00  0.00    +0.173 C 
BRANCH  19  20
ATOM     20  C   UNL     1       2.687   6.612  -1.411  0.00  0.00    +0.228 C 
ATOM     21  O   UNL     1       3.754   6.062  -1.583  0.00  0.00    -0.275 OA
ATOM     22  N   UNL     1       2.640   7.945  -1.215  0.00  0.00    -0.284 N 
ATOM     23  H   UNL     1       1.683   8.432  -0.977  0.00  0.00    +0.155 HD
BRANCH  22  24
ATOM     24  C   UNL     1       3.803   8.705  -1.313  0.00  0.00    +0.048 A 
ATOM     25  C   UNL     1       4.850   8.273  -2.111  0.00  0.00    +0.073 A 
ATOM     26  C   UNL     1       6.009   9.028  -2.210  0.00  0.00    +0.168 A 
ATOM     27  C   UNL     1       6.128  10.230  -1.505  0.00  0.00    +0.167 A 
ATOM     28  C   UNL     1       5.095  10.670  -0.706  0.00  0.00    +0.062 A 
ATOM     29  C   UNL     1       3.917   9.916  -0.606  0.00  0.00    +0.042 A 
ATOM     30  O   UNL     1       7.354  10.771  -1.773  0.00  0.00    -0.453 OA
ATOM     31  C   UNL     1       8.137   9.693  -2.319  0.00  0.00    +0.466 C 
ATOM     32  O   UNL     1       7.157   8.823  -2.915  0.00  0.00    -0.453 OA
BRANCH  29  33
ATOM     33  C   UNL     1       2.813  10.383   0.235  0.00  0.00    +0.162 C 
ATOM     34  O   UNL     1       1.838   9.681   0.402  0.00  0.00    -0.292 OA
ATOM     35  C   UNL     1       2.888  11.737   0.893  0.00  0.00    +0.091 C 
ENDBRANCH  29  33
ENDBRANCH  22  24
ENDBRANCH  19  20
ENDBRANCH   1  19
TORSDOF 6
