REMARK  Name = ZINC12546325
REMARK  12 active torsions:
REMARK  status: ('A' for Active; 'I' for Inactive)
REMARK    1  A    between atoms: C_1  and  C_2
REMARK    2  A    between atoms: C_2  and  O_3
REMARK    3  A    between atoms: O_3  and  C_4
REMARK    4  A    between atoms: C_4  and  C_6
REMARK    5  A    between atoms: C_7  and  C_15
REMARK    6  A    between atoms: C_12  and  C_14
REMARK    7  A    between atoms: C_15  and  S_16
REMARK    8  A    between atoms: S_16  and  C_17
REMARK    9  A    between atoms: C_20  and  C_30
REMARK   10  A    between atoms: C_21  and  C_23
REMARK   11  A    between atoms: C_26  and  C_29
REMARK   12  A    between atoms: C_33  and  C_36
REMARK                            x       y       z     vdW  Elec       q    Type
REMARK                         _______ _______ _______ _____ _____    ______ ____
ROOT
ATOM      1  C   UNL     1       0.069  -3.364   0.502  0.00  0.00    +0.168 A 
ATOM      2  N   UNL     1       1.086  -3.139  -0.376  0.00  0.00    -0.332 N 
ATOM      3  H   UNL     1       1.611  -3.833  -0.867  0.00  0.00    +0.168 HD
ATOM      4  C   UNL     1       1.256  -1.769  -0.460  0.00  0.00    +0.075 A 
ATOM      5  C   UNL     1       0.318  -1.209   0.385  0.00  0.00    +0.098 A 
ATOM      6  N   UNL     1      -0.376  -2.215   0.952  0.00  0.00    -0.221 NA
ENDROOT
BRANCH   5   7
ATOM      7  C   UNL     1       0.116   0.238   0.629  0.00  0.00    +0.002 A 
ATOM      8  C   UNL     1      -1.167   0.738   0.853  0.00  0.00    +0.010 A 
ATOM      9  C   UNL     1      -1.349   2.087   1.079  0.00  0.00    +0.004 A 
ATOM     10  C   UNL     1      -0.262   2.943   1.084  0.00  0.00    -0.050 A 
ATOM     11  C   UNL     1       1.012   2.453   0.862  0.00  0.00    +0.004 A 
ATOM     12  C   UNL     1       1.207   1.107   0.635  0.00  0.00    +0.010 A 
ATOM     13  C   UNL     1      -0.468   4.415   1.332  0.00  0.00    +0.044 C 
ENDBRANCH   5   7
BRANCH   4  14
ATOM     14  C   UNL     1       2.242  -1.050  -1.288  0.00  0.00    +0.000 A 
ATOM     15  C   UNL     1       1.851   0.064  -2.036  0.00  0.00    +0.010 A 
ATOM     16  C   UNL     1       2.780   0.735  -2.804  0.00  0.00    +0.004 A 
ATOM     17  C   UNL     1       4.094   0.301  -2.843  0.00  0.00    -0.050 A 
ATOM     18  C   UNL     1       4.486  -0.805  -2.110  0.00  0.00    +0.004 A 
ATOM     19  C   UNL     1       3.570  -1.482  -1.333  0.00  0.00    +0.010 A 
ATOM     20  C   UNL     1       5.101   1.036  -3.689  0.00  0.00    +0.044 C 
ENDBRANCH   4  14
BRANCH   1  21
ATOM     21  S   UNL     1      -0.546  -4.949   0.966  0.00  0.00    -0.082 S 
BRANCH  21  22
ATOM     22  C   UNL     1      -1.847  -4.455   2.124  0.00  0.00    +0.128 C 
BRANCH  22  24
ATOM     23  C   UNL     1      -2.186  -6.154   3.883  0.00  0.00    +0.074 C 
ATOM     24  C   UNL     1      -2.531  -5.684   2.665  0.00  0.00    +0.034 C 
ATOM     25  N   UNL     1      -3.494  -6.300   1.918  0.00  0.00    -0.272 N 
ATOM     26  C   UNL     1      -4.151  -7.398   2.313  0.00  0.00    +0.304 C 
ATOM     27  O   UNL     1      -4.989  -7.879   1.575  0.00  0.00    -0.253 OA
ATOM     28  N   UNL     1      -3.917  -7.984   3.504  0.00  0.00    -0.292 N 
ATOM     29  C   UNL     1      -2.900  -7.391   4.389  0.00  0.00    +0.110 C 
ATOM     30  C   UNL     1      -1.844  -8.461   4.674  0.00  0.00    +0.033 C 
ATOM     31  H   UNL     1      -3.711  -5.924   1.050  0.00  0.00    +0.156 HD
ATOM     32  H   UNL     1      -4.408  -8.776   3.772  0.00  0.00    +0.151 HD
BRANCH  23  33
ATOM     33  C   UNL     1      -1.194  -5.513   4.660  0.00  0.00    +0.338 C 
ATOM     34  O   UNL     1      -0.534  -4.610   4.181  0.00  0.00    -0.245 OA
BRANCH  33  35
ATOM     35  O   UNL     1      -0.978  -5.903   5.934  0.00  0.00    -0.462 OA
BRANCH  35  37
ATOM     36  C   UNL     1       0.138  -5.789   8.074  0.00  0.00    +0.048 C 
ATOM     37  C   UNL     1       0.040  -5.212   6.661  0.00  0.00    +0.229 C 
ENDBRANCH  35  37
ENDBRANCH  33  35
ENDBRANCH  23  33
ENDBRANCH  22  24
ENDBRANCH  21  22
ENDBRANCH   1  21
TORSDOF 8
