REMARK  Name = ZINC38596355
REMARK  12 active torsions:
REMARK  status: ('A' for Active; 'I' for Inactive)
REMARK    1  A    between atoms: C_1  and  C_2
REMARK    2  A    between atoms: C_2  and  O_3
REMARK    3  A    between atoms: O_3  and  C_4
REMARK    4  A    between atoms: C_7  and  S_11
REMARK    5  A    between atoms: S_11  and  N_14
REMARK    6  A    between atoms: N_14  and  C_15
REMARK    7  A    between atoms: C_15  and  C_17
REMARK    8  A    between atoms: C_15  and  C_18
REMARK    9  A    between atoms: C_18  and  C_20
REMARK   10  A    between atoms: C_18  and  N_25
REMARK   11  A    between atoms: N_28  and  C_31
REMARK   12  A    between atoms: C_31  and  C_32
REMARK                            x       y       z     vdW  Elec       q    Type
REMARK                         _______ _______ _______ _____ _____    ______ ____
ROOT
ATOM      1  C   UNL     1      -1.907  -6.151  -4.354  0.00  0.00    +0.112 C 
ENDROOT
BRANCH   1   2
ATOM      2  N   UNL     1      -2.195  -5.792  -5.749  0.00  0.00    -0.297 NA
ATOM      3  C   UNL     1      -1.494  -4.558  -6.131  0.00  0.00    +0.066 C 
ATOM      4  C   UNL     1      -1.771  -4.253  -7.605  0.00  0.00    -0.063 C 
ATOM      5  N   UNL     1      -3.218  -4.098  -7.809  0.00  0.00    +0.384 N 
ATOM      6  C   UNL     1      -3.902  -5.346  -7.446  0.00  0.00    -0.063 C 
ATOM      7  C   UNL     1      -3.642  -5.660  -5.971  0.00  0.00    +0.066 C 
ATOM      8  H   UNL     1      -3.560  -3.346  -7.229  0.00  0.00    -0.081 HD
BRANCH   5   9
ATOM      9  C   UNL     1      -3.483  -3.786  -9.220  0.00  0.00    -0.043 C 
BRANCH   9  10
ATOM     10  C   UNL     1      -4.952  -3.506  -9.405  0.00  0.00    -0.064 A 
ATOM     11  C   UNL     1      -5.820  -4.540  -9.704  0.00  0.00    +0.002 A 
ATOM     12  C   UNL     1      -7.168  -4.283  -9.874  0.00  0.00    +0.000 A 
ATOM     13  C   UNL     1      -7.647  -2.993  -9.745  0.00  0.00    +0.000 A 
ATOM     14  C   UNL     1      -6.779  -1.960  -9.444  0.00  0.00    +0.000 A 
ATOM     15  C   UNL     1      -5.432  -2.217  -9.270  0.00  0.00    +0.002 A 
ENDBRANCH   9  10
ENDBRANCH   5   9
ENDBRANCH   1   2
BRANCH   1  16
ATOM     16  C   UNL     1      -2.538  -5.138  -3.434  0.00  0.00    +0.008 A 
ATOM     17  C   UNL     1      -3.308  -5.343  -2.338  0.00  0.00    +0.013 A 
ATOM     18  C   UNL     1      -3.783  -4.250  -1.638  0.00  0.00    +0.008 A 
ATOM     19  C   UNL     1      -3.464  -3.004  -2.069  0.00  0.00    +0.045 A 
ATOM     20  S   UNL     1      -2.458  -3.355  -3.501  0.00  0.00    -0.100 S 
ENDBRANCH   1  16
BRANCH   1  21
ATOM     21  C   UNL     1      -0.393  -6.167  -4.134  0.00  0.00    +0.095 C 
ATOM     22  C   UNL     1       0.248  -7.196  -5.068  0.00  0.00    +0.027 C 
BRANCH  21  23
ATOM     23  N   UNL     1      -0.105  -6.524  -2.743  0.00  0.00    -0.185 NA
ATOM     24  H   UNL     1      -0.672  -7.161  -2.278  0.00  0.00    +0.148 HD
BRANCH  23  25
ATOM     25  S   UNL     1       1.187  -5.843  -1.962  0.00  0.00    +0.059 S 
ATOM     26  O   UNL     1       2.303  -5.978  -2.831  0.00  0.00    -0.153 OA
ATOM     27  O   UNL     1       1.183  -6.363  -0.640  0.00  0.00    -0.153 OA
BRANCH  25  31
ATOM     28  C   UNL     1       0.349  -1.405  -1.608  0.00  0.00    +0.156 A 
ATOM     29  C   UNL     1      -0.062  -2.272  -0.607  0.00  0.00    +0.050 A 
ATOM     30  C   UNL     1       0.194  -3.626  -0.718  0.00  0.00    +0.032 A 
ATOM     31  C   UNL     1       0.861  -4.117  -1.825  0.00  0.00    +0.108 A 
ATOM     32  C   UNL     1       1.273  -3.255  -2.826  0.00  0.00    +0.070 A 
ATOM     33  C   UNL     1       1.013  -1.901  -2.723  0.00  0.00    +0.167 A 
ATOM     34  F   UNL     1       1.410  -1.060  -3.703  0.00  0.00    -0.202 F 
BRANCH  28  35
ATOM     35  O   UNL     1       0.097  -0.073  -1.501  0.00  0.00    -0.489 OA
BRANCH  35  37
ATOM     36  C   UNL     1      -0.781   1.882  -0.385  0.00  0.00    +0.048 C 
ATOM     37  C   UNL     1      -0.590   0.365  -0.327  0.00  0.00    +0.226 C 
ENDBRANCH  35  37
ENDBRANCH  28  35
ENDBRANCH  25  31
ENDBRANCH  23  25
ENDBRANCH  21  23
ENDBRANCH   1  21
TORSDOF 10
