REMARK  Name = ZINC38152406
REMARK  15 active torsions:
REMARK  status: ('A' for Active; 'I' for Inactive)
REMARK    1  A    between atoms: C_1  and  C_2
REMARK    2  A    between atoms: C_2  and  C_3
REMARK    3  A    between atoms: C_2  and  C_23
REMARK    4  A    between atoms: C_2  and  C_35
REMARK    5  A    between atoms: C_3  and  C_4
REMARK    6  A    between atoms: C_4  and  N_5
REMARK    7  A    between atoms: C_16  and  O_18
REMARK    8  A    between atoms: O_18  and  C_19
REMARK    9  A    between atoms: C_19  and  C_20
REMARK   10  A    between atoms: C_19  and  C_21
REMARK   11  A    between atoms: C_19  and  C_22
REMARK   12  A    between atoms: C_23  and  N_24
REMARK   13  A    between atoms: N_24  and  C_25
REMARK   14  A    between atoms: N_24  and  S_26
REMARK   15  A    between atoms: S_26  and  C_29
REMARK                            x       y       z     vdW  Elec       q    Type
REMARK                         _______ _______ _______ _____ _____    ______ ____
ROOT
ATOM      1  C   UNL     1      -0.252   1.846  -0.422  0.00  0.00    +0.017 C 
ATOM      2  C   UNL     1       0.106   0.359  -0.380  0.00  0.00    +0.006 C 
ENDROOT
BRANCH   2   3
ATOM      3  C   UNL     1      -1.153  -0.457  -0.240  0.00  0.00    -0.040 A 
ATOM      4  C   UNL     1      -2.387   0.167  -0.266  0.00  0.00    +0.004 A 
ATOM      5  C   UNL     1      -3.542  -0.582  -0.138  0.00  0.00    +0.000 A 
ATOM      6  C   UNL     1      -3.463  -1.954   0.015  0.00  0.00    +0.000 A 
ATOM      7  C   UNL     1      -2.230  -2.577   0.040  0.00  0.00    +0.000 A 
ATOM      8  C   UNL     1      -1.075  -1.829  -0.093  0.00  0.00    +0.004 A 
ENDBRANCH   2   3
BRANCH   2   9
ATOM      9  C   UNL     1       1.024   0.089   0.814  0.00  0.00    -0.006 C 
BRANCH   9  10
ATOM     10  C   UNL     1       0.349   0.579   2.097  0.00  0.00    -0.078 C 
BRANCH  10  11
ATOM     11  N   UNL     1       1.179   0.221   3.255  0.00  0.00    +0.380 N 
ATOM     12  C   UNL     1       1.230  -1.243   3.389  0.00  0.00    -0.077 C 
ATOM     13  C   UNL     1       2.217  -1.595   4.503  0.00  0.00    +0.004 C 
ATOM     14  C   UNL     1       1.789  -0.974   5.818  0.00  0.00    +0.079 C 
ATOM     15  C   UNL     1       1.500   0.534   5.678  0.00  0.00    -0.006 C 
ATOM     16  C   UNL     1       0.596   0.791   4.471  0.00  0.00    -0.074 C 
ATOM     17  C   UNL     1       0.638   0.783   6.952  0.00  0.00    +0.022 C 
ATOM     18  C   UNL     1      -0.186  -0.518   7.065  0.00  0.00    +0.111 C 
ATOM     19  N   UNL     1       0.541  -1.552   6.327  0.00  0.00    -0.264 N 
ATOM     20  C   UNL     1       0.132  -2.825   6.159  0.00  0.00    +0.404 C 
ATOM     21  O   UNL     1       0.822  -3.607   5.535  0.00  0.00    -0.226 OA
ATOM     22  H   UNL     1       2.112   0.582   3.126  0.00  0.00    -0.082 HD
BRANCH  20  23
ATOM     23  O   UNL     1      -1.041  -3.229   6.681  0.00  0.00    -0.445 OA
BRANCH  23  24
ATOM     24  C   UNL     1      -1.412  -4.592   6.463  0.00  0.00    +0.107 C 
ATOM     25  C   UNL     1      -0.352  -5.513   7.071  0.00  0.00    +0.055 C 
ATOM     26  C   UNL     1      -2.764  -4.865   7.126  0.00  0.00    +0.055 C 
ATOM     27  C   UNL     1      -1.517  -4.859   4.960  0.00  0.00    +0.055 C 
ENDBRANCH  23  24
ENDBRANCH  20  23
ENDBRANCH  10  11
ENDBRANCH   9  10
ENDBRANCH   2   9
BRANCH   2  28
ATOM     28  C   UNL     1       0.825  -0.029  -1.674  0.00  0.00    +0.120 C 
BRANCH  28  29
ATOM     29  N   UNL     1       0.003   0.357  -2.824  0.00  0.00    -0.179 NA
ATOM     30  C   UNL     1      -1.113  -0.493  -3.245  0.00  0.00    +0.131 C 
BRANCH  29  31
ATOM     31  S   UNL     1       0.337   1.754  -3.647  0.00  0.00    +0.061 S 
ATOM     32  O   UNL     1      -0.899   2.222  -4.170  0.00  0.00    -0.153 OA
ATOM     33  O   UNL     1       1.150   2.546  -2.792  0.00  0.00    -0.153 OA
BRANCH  31  34
ATOM     34  C   UNL     1       1.336   1.318  -5.031  0.00  0.00    +0.105 A 
ATOM     35  C   UNL     1       2.705   1.195  -4.884  0.00  0.00    +0.028 A 
ATOM     36  C   UNL     1       3.489   0.852  -5.970  0.00  0.00    +0.002 A 
ATOM     37  C   UNL     1       2.904   0.632  -7.203  0.00  0.00    +0.000 A 
ATOM     38  C   UNL     1       1.535   0.753  -7.350  0.00  0.00    +0.002 A 
ATOM     39  C   UNL     1       0.750   1.092  -6.263  0.00  0.00    +0.028 A 
ENDBRANCH  31  34
ENDBRANCH  29  31
ENDBRANCH  28  29
ENDBRANCH   2  28
TORSDOF 10
