REMARK  Name = ZINC46173248
REMARK  12 active torsions:
REMARK  status: ('A' for Active; 'I' for Inactive)
REMARK    1  A    between atoms: C_1  and  C_2
REMARK    2  A    between atoms: C_2  and  C_3
REMARK    3  A    between atoms: C_3  and  C_4
REMARK    4  A    between atoms: C_4  and  C_5
REMARK    5  A    between atoms: C_7  and  C_10
REMARK    6  A    between atoms: C_10  and  C_12
REMARK    7  A    between atoms: C_10  and  S_13
REMARK    8  A    between atoms: S_13  and  C_16
REMARK    9  A    between atoms: C_16  and  C_17
REMARK   10  A    between atoms: N_19  and  C_20
REMARK   11  A    between atoms: C_20  and  C_22
REMARK   12  A    between atoms: C_20  and  C_23
REMARK                            x       y       z     vdW  Elec       q    Type
REMARK                         _______ _______ _______ _____ _____    ______ ____
ROOT
ATOM      1  S   UNL     1       2.364  -5.095  -6.365  0.00  0.00    -0.011 S 
ATOM      2  O   UNL     1       3.756  -4.875  -6.180  0.00  0.00    -0.173 OA
ATOM      3  O   UNL     1       1.734  -6.161  -5.669  0.00  0.00    -0.173 OA
ENDROOT
BRANCH   1   4
ATOM      4  C   UNL     1       1.485  -3.557  -5.977  0.00  0.00    +0.216 C 
ATOM      5  C   UNL     1       1.973  -2.442  -6.903  0.00  0.00    +0.042 C 
BRANCH   4   8
ATOM      6  C   UNL     1       1.444  -2.513  -2.505  0.00  0.00    +0.172 A 
ATOM      7  N   UNL     1       0.862  -2.769  -3.682  0.00  0.00    -0.194 NA
ATOM      8  C   UNL     1       1.752  -3.173  -4.544  0.00  0.00    +0.251 A 
ATOM      9  O   UNL     1       2.946  -3.188  -3.938  0.00  0.00    -0.336 OA
ATOM     10  N   UNL     1       2.721  -2.747  -2.607  0.00  0.00    -0.061 NA
BRANCH   6  11
ATOM     11  C   UNL     1       0.739  -2.027  -1.265  0.00  0.00    +0.080 C 
BRANCH  11  12
ATOM     12  C   UNL     1       0.718  -0.497  -1.257  0.00  0.00    +0.008 C 
BRANCH  12  14
ATOM     13  C   UNL     1      -0.019   1.526   0.010  0.00  0.00    +0.004 C 
ATOM     14  C   UNL     1       0.002  -0.004   0.002  0.00  0.00    -0.003 C 
ENDBRANCH  12  14
ENDBRANCH  11  12
ENDBRANCH   6  11
ENDBRANCH   4   8
ENDBRANCH   1   4
BRANCH   1  15
ATOM     15  C   UNL     1       2.047  -5.301  -8.139  0.00  0.00    +0.262 C 
BRANCH  15  16
ATOM     16  C   UNL     1       2.722  -6.556  -8.628  0.00  0.00    +0.235 C 
ATOM     17  O   UNL     1       3.355  -7.244  -7.856  0.00  0.00    -0.274 OA
ATOM     18  N   UNL     1       2.622  -6.914  -9.924  0.00  0.00    -0.307 N 
ATOM     19  H   UNL     1       2.116  -6.364 -10.541  0.00  0.00    +0.149 HD
BRANCH  18  20
ATOM     20  C   UNL     1       3.279  -8.135 -10.399  0.00  0.00    +0.100 C 
ATOM     21  C   UNL     1       4.736  -7.828 -10.748  0.00  0.00    +0.033 C 
BRANCH  20  22
ATOM     22  C   UNL     1       2.565  -8.644 -11.624  0.00  0.00    -0.027 A 
ATOM     23  C   UNL     1       2.118  -7.754 -12.583  0.00  0.00    +0.008 A 
ATOM     24  C   UNL     1       1.464  -8.220 -13.708  0.00  0.00    +0.038 A 
ATOM     25  C   UNL     1       1.257  -9.579 -13.874  0.00  0.00    +0.123 A 
ATOM     26  C   UNL     1       1.705 -10.470 -12.914  0.00  0.00    +0.038 A 
ATOM     27  C   UNL     1       2.364 -10.002 -11.792  0.00  0.00    +0.008 A 
ATOM     28  F   UNL     1       0.617 -10.036 -14.973  0.00  0.00    -0.205 F 
ENDBRANCH  20  22
ENDBRANCH  18  20
ENDBRANCH  15  16
ENDBRANCH   1  15
TORSDOF 9
