REMARK  Name = ZINC35374592
REMARK  8 active torsions:
REMARK  status: ('A' for Active; 'I' for Inactive)
REMARK    1  A    between atoms: C_1  and  C_2
REMARK    2  A    between atoms: C_2  and  C_3
REMARK    3  A    between atoms: C_3  and  C_5
REMARK    4  A    between atoms: C_3  and  C_6
REMARK    5  A    between atoms: C_6  and  N_7
REMARK    6  A    between atoms: C_8  and  C_10
REMARK    7  A    between atoms: C_21  and  C_23
REMARK    8  A    between atoms: C_26  and  N_30
REMARK                            x       y       z     vdW  Elec       q    Type
REMARK                         _______ _______ _______ _____ _____    ______ ____
ROOT
ATOM      1  C   UNL     1       2.700  -4.279  -3.603  0.00  0.00    +0.028 C 
ATOM      2  C   UNL     1       1.973  -3.872  -4.920  0.00  0.00    +0.061 C 
ATOM      3  S   UNL     1       2.774  -5.061  -6.083  0.00  0.00    -0.174 S 
ATOM      4  C   UNL     1       3.365  -6.281  -4.846  0.00  0.00    -0.016 C 
ATOM      5  N   UNL     1       2.834  -5.750  -3.574  0.00  0.00    +0.397 N 
ATOM      6  C   UNL     1       4.885  -6.312  -4.837  0.00  0.00    +0.017 C 
ATOM      7  C   UNL     1       5.371  -7.312  -3.781  0.00  0.00    +0.107 C 
ATOM      8  N   UNL     1       4.718  -8.606  -4.022  0.00  0.00    -0.298 N 
ATOM      9  C   UNL     1       3.251  -8.657  -4.096  0.00  0.00    +0.107 C 
ATOM     10  C   UNL     1       2.777  -7.650  -5.150  0.00  0.00    +0.017 C 
ATOM     11  C   UNL     1       5.452  -9.726  -4.175  0.00  0.00    +0.248 C 
ATOM     12  O   UNL     1       6.665  -9.658  -4.216  0.00  0.00    -0.270 OA
ATOM     13  H   UNL     1       3.461  -6.007  -2.826  0.00  0.00    -0.083 HD
ATOM     14  H   UNL     1       1.929  -6.159  -3.397  0.00  0.00    -0.083 HD
ENDROOT
BRANCH  11  15
ATOM     15  C   UNL     1       4.782 -11.038  -4.290  0.00  0.00    +0.055 A 
ATOM     16  C   UNL     1       3.873 -11.450  -3.314  0.00  0.00    +0.017 A 
ATOM     17  C   UNL     1       3.251 -12.676  -3.428  0.00  0.00    +0.033 A 
ATOM     18  C   UNL     1       3.525 -13.498  -4.508  0.00  0.00    +0.128 A 
ATOM     19  C   UNL     1       4.425 -13.097  -5.479  0.00  0.00    +0.053 A 
ATOM     20  C   UNL     1       5.051 -11.870  -5.380  0.00  0.00    +0.055 A 
ATOM     21 CL   UNL     1       6.174 -11.365  -6.604  0.00  0.00    -0.083 Cl
BRANCH  18  22
ATOM     22  N   UNL     1       2.854 -14.812  -4.623  0.00  0.00    +0.056 N 
ATOM     23  O   UNL     1       2.067 -15.165  -3.775  0.00  0.00    -0.126 OA
ATOM     24  O   UNL     1       3.091 -15.532  -5.564  0.00  0.00    -0.126 OA
ENDBRANCH  18  22
ENDBRANCH  11  15
BRANCH   1  26
ATOM     25  N   UNL     1       1.646  -2.509  -2.234  0.00  0.00    -0.316 N 
ATOM     26  C   UNL     1       1.892  -3.821  -2.416  0.00  0.00    +0.200 C 
ATOM     27  O   UNL     1       1.463  -4.634  -1.624  0.00  0.00    -0.278 OA
ATOM     28  H   UNL     1       1.989  -1.859  -2.868  0.00  0.00    +0.149 HD
BRANCH  25  29
ATOM     29  C   UNL     1       0.861  -2.063  -1.080  0.00  0.00    +0.107 C 
BRANCH  29  30
ATOM     30  C   UNL     1       0.730  -0.539  -1.110  0.00  0.00    +0.003 C 
ATOM     31  C   UNL     1      -0.082  -0.121  -2.338  0.00  0.00    +0.009 C 
BRANCH  30  33
ATOM     32  C   UNL     1      -0.002   1.466   0.188  0.00  0.00    +0.004 C 
ATOM     33  C   UNL     1       0.018  -0.064   0.158  0.00  0.00    +0.001 C 
ENDBRANCH  30  33
ENDBRANCH  29  30
ENDBRANCH  25  29
ENDBRANCH   1  26
TORSDOF 6
