REMARK  Name = ZINC39664049
REMARK  8 active torsions:
REMARK  status: ('A' for Active; 'I' for Inactive)
REMARK    1  A    between atoms: C_1  and  O_2
REMARK    2  A    between atoms: O_2  and  C_3
REMARK    3  A    between atoms: C_6  and  C_9
REMARK    4  A    between atoms: C_9  and  C_11
REMARK    5  A    between atoms: C_9  and  N_36
REMARK    6  A    between atoms: C_11  and  N_12
REMARK    7  A    between atoms: C_13  and  C_15
REMARK    8  A    between atoms: C_26  and  C_28
REMARK                            x       y       z     vdW  Elec       q    Type
REMARK                         _______ _______ _______ _____ _____    ______ ____
ROOT
ATOM      1  C   UNL     1     -10.882  -8.657   2.459  0.00  0.00    +0.100 C 
ATOM      2  C   UNL     1      -9.542  -9.409   2.289  0.00  0.00    +0.121 C 
ATOM      3  N   UNL     1      -8.633  -8.780   3.276  0.00  0.00    -0.296 N 
ATOM      4  C   UNL     1      -9.484  -8.546   4.467  0.00  0.00    +0.115 C 
ATOM      5  C   UNL     1     -10.841  -8.095   3.890  0.00  0.00    -0.004 C 
ATOM      6  C   UNL     1     -10.921  -6.572   3.862  0.00  0.00    -0.010 C 
ATOM      7  C   UNL     1     -10.936  -6.040   5.298  0.00  0.00    -0.082 C 
ATOM      8  N   UNL     1     -12.089  -6.598   6.016  0.00  0.00    +0.379 N 
ATOM      9  C   UNL     1     -11.957  -8.056   6.119  0.00  0.00    -0.082 C 
ATOM     10  C   UNL     1     -11.985  -8.673   4.717  0.00  0.00    -0.010 C 
ATOM     11  C   UNL     1      -7.326  -8.486   3.124  0.00  0.00    +0.247 C 
ATOM     12  O   UNL     1      -6.685  -8.061   4.066  0.00  0.00    -0.270 OA
ATOM     13  H   UNL     1     -12.132  -6.199   6.942  0.00  0.00    -0.086 HD
ATOM     14  H   UNL     1     -12.936  -6.372   5.516  0.00  0.00    -0.086 HD
ENDROOT
BRANCH  11  15
ATOM     15  C   UNL     1      -6.671  -8.681   1.813  0.00  0.00    +0.042 A 
ATOM     16  C   UNL     1      -6.910  -7.785   0.771  0.00  0.00    +0.051 A 
ATOM     17  C   UNL     1      -6.296  -7.972  -0.453  0.00  0.00    +0.127 A 
ATOM     18  C   UNL     1      -5.444  -9.047  -0.646  0.00  0.00    +0.076 A 
ATOM     19  C   UNL     1      -5.204  -9.940   0.385  0.00  0.00    +0.127 A 
ATOM     20  C   UNL     1      -5.808  -9.760   1.615  0.00  0.00    +0.051 A 
ATOM     21  F   UNL     1      -4.372 -10.987   0.190  0.00  0.00    -0.205 F 
ATOM     22  F   UNL     1      -6.527  -7.104  -1.463  0.00  0.00    -0.205 F 
ENDBRANCH  11  15
BRANCH   1  24
ATOM     23  N   UNL     1     -12.194  -7.080   1.076  0.00  0.00    -0.316 N 
ATOM     24  C   UNL     1     -10.984  -7.535   1.458  0.00  0.00    +0.218 C 
ATOM     25  O   UNL     1      -9.977  -7.041   0.995  0.00  0.00    -0.275 OA
ATOM     26  H   UNL     1     -12.998  -7.526   1.384  0.00  0.00    +0.149 HD
BRANCH  23  27
ATOM     27  C   UNL     1     -12.293  -5.913   0.196  0.00  0.00    +0.093 C 
BRANCH  27  28
ATOM     28  C   UNL     1     -13.765  -5.531   0.021  0.00  0.00    -0.020 C 
BRANCH  28  32
ATOM     29  C   UNL     1     -15.253  -3.885   3.672  0.00  0.00    +0.120 A 
ATOM     30  C   UNL     1     -15.521  -5.206   3.346  0.00  0.00    +0.046 A 
ATOM     31  C   UNL     1     -15.039  -5.736   2.165  0.00  0.00    +0.005 A 
ATOM     32  C   UNL     1     -14.290  -4.951   1.308  0.00  0.00    -0.059 A 
ATOM     33  C   UNL     1     -14.021  -3.633   1.631  0.00  0.00    +0.005 A 
ATOM     34  C   UNL     1     -14.506  -3.097   2.808  0.00  0.00    +0.046 A 
BRANCH  29  36
ATOM     35  C   UNL     1     -16.488  -4.230   5.674  0.00  0.00    +0.277 C 
ATOM     36  O   UNL     1     -15.727  -3.361   4.833  0.00  0.00    -0.495 OA
ENDBRANCH  29  36
ENDBRANCH  28  32
BRANCH  28  37
ATOM     37  N   UNL     1     -13.887  -4.535  -1.052  0.00  0.00    +0.385 N 
ATOM     38  C   UNL     1     -13.465  -5.124  -2.349  0.00  0.00    -0.078 C 
ATOM     39  C   UNL     1     -14.160  -4.215  -3.394  0.00  0.00    -0.020 C 
ATOM     40  C   UNL     1     -15.523  -3.908  -2.733  0.00  0.00    -0.020 C 
ATOM     41  C   UNL     1     -15.303  -4.146  -1.227  0.00  0.00    -0.078 C 
ATOM     42  H   UNL     1     -13.328  -3.723  -0.839  0.00  0.00    -0.081 HD
ENDBRANCH  28  37
ENDBRANCH  27  28
ENDBRANCH  23  27
ENDBRANCH   1  24
TORSDOF 7
