REMARK  Name = ZINC26279787
REMARK  6 active torsions:
REMARK  status: ('A' for Active; 'I' for Inactive)
REMARK    1  A    between atoms: C_1  and  C_2
REMARK    2  A    between atoms: C_10  and  C_11
REMARK    3  A    between atoms: C_11  and  O_13
REMARK    4  A    between atoms: O_13  and  C_14
REMARK    5  A    between atoms: C_14  and  C_16
REMARK    6  A    between atoms: C_14  and  C_17
REMARK                            x       y       z     vdW  Elec       q    Type
REMARK                         _______ _______ _______ _____ _____    ______ ____
ROOT
ATOM      1  C   UNL     1       0.002  -0.004   0.002  0.00  0.00    +0.259 C 
ATOM      2  C   UNL     1       0.023  -0.522   1.442  0.00  0.00    +0.062 C 
ENDROOT
BRANCH   1   3
ATOM      3  C   UNL     1      -1.228  -0.519  -0.700  0.00  0.00    +0.259 C 
ATOM      4  O   UNL     1      -2.041   0.260  -1.148  0.00  0.00    -0.271 OA
ATOM      5  N   UNL     1      -1.425  -1.847  -0.828  0.00  0.00    -0.266 N 
ATOM      6  C   UNL     1      -2.558  -2.321  -1.474  0.00  0.00    +0.154 A 
ATOM      7  C   UNL     1      -2.779  -3.701  -1.617  0.00  0.00    +0.126 A 
ATOM      8  C   UNL     1      -3.950  -4.121  -2.272  0.00  0.00    +0.183 A 
ATOM      9  N   UNL     1      -3.915  -5.493  -2.265  0.00  0.00    -0.216 NA
ATOM     10  H   UNL     1      -1.145  -4.730  -0.720  0.00  0.00    +0.167 HD
ATOM     11  C   UNL     1      -2.760  -5.869  -1.648  0.00  0.00    +0.199 A 
ATOM     12  N   UNL     1      -2.101  -4.817  -1.258  0.00  0.00    -0.340 N 
ATOM     13  N   UNL     1      -4.796  -3.206  -2.734  0.00  0.00    -0.214 NA
ATOM     14  C   UNL     1      -4.544  -1.923  -2.582  0.00  0.00    +0.225 A 
ATOM     15  N   UNL     1      -3.463  -1.481  -1.965  0.00  0.00    -0.218 NA
ATOM     16  H   UNL     1      -0.687  -2.554  -0.420  0.00  0.00    +0.156 HD
ENDBRANCH   1   3
BRANCH   1  17
ATOM     17  O   UNL     1      -0.018   1.448   0.010  0.00  0.00    -0.448 OA
BRANCH  17  18
ATOM     18  C   UNL     1       1.175   2.076   0.002  0.00  0.00    +0.347 C 
ATOM     19  O   UNL     1       2.204   1.428  -0.011  0.00  0.00    -0.244 OA
BRANCH  18  29
ATOM     20  C   UNL     1       3.709   3.745  -0.001  0.00  0.00    +0.046 C 
ATOM     21  C   UNL     1       2.328   4.349   0.009  0.00  0.00    -0.022 A 
ATOM     22  C   UNL     1       2.171   5.747   0.012  0.00  0.00    -0.007 A 
ATOM     23  C   UNL     1       3.181   6.744   0.008  0.00  0.00    +0.009 A 
ATOM     24  C   UNL     1       2.856   8.062   0.018  0.00  0.00    +0.001 A 
ATOM     25  C   UNL     1       1.532   8.486   0.033  0.00  0.00    +0.001 A 
ATOM     26  C   UNL     1       0.518   7.549   0.038  0.00  0.00    +0.015 A 
ATOM     27  C   UNL     1       0.833   6.207   0.028  0.00  0.00    +0.020 A 
ATOM     28  S   UNL     1      -0.119   4.709   0.029  0.00  0.00    -0.082 S 
ATOM     29  C   UNL     1       1.232   3.543   0.009  0.00  0.00    +0.100 A 
ENDBRANCH  18  29
ENDBRANCH  17  18
ENDBRANCH   1  17
TORSDOF 4
