REMARK  Name = ZINC33597015
REMARK  7 active torsions:
REMARK  status: ('A' for Active; 'I' for Inactive)
REMARK    1  A    between atoms: C_1  and  C_2
REMARK    2  A    between atoms: C_7  and  N_8
REMARK    3  A    between atoms: C_13  and  C_32
REMARK    4  A    between atoms: C_16  and  C_21
REMARK    5  A    between atoms: C_16  and  C_29
REMARK    6  A    between atoms: C_21  and  C_22
REMARK    7  A    between atoms: C_25  and  O_28
REMARK                            x       y       z     vdW  Elec       q    Type
REMARK                         _______ _______ _______ _____ _____    ______ ____
ROOT
ATOM      1  N   UNL     1       1.304   1.827  -0.001  0.00  0.00    -0.210 N 
ATOM      2  C   UNL     1       2.137   0.791  -0.332  0.00  0.00    +0.229 C 
ATOM      3  O   UNL     1       3.338   0.733  -0.174  0.00  0.00    -0.275 OA
ATOM      4  C   UNL     1       1.259  -0.242  -0.926  0.00  0.00    +0.077 C 
ATOM      5  C   UNL     1       1.375  -1.736  -0.738  0.00  0.00    -0.027 C 
ATOM      6  N   UNL     1      -0.049  -2.191  -0.888  0.00  0.00    +0.396 N 
ATOM      7  C   UNL     1      -0.932  -1.038  -0.513  0.00  0.00    +0.052 C 
ATOM      8  C   UNL     1       0.002  -0.004   0.002  0.00  0.00    +0.086 C 
ATOM      9  C   UNL     1      -0.018   1.457   0.010  0.00  0.00    +0.229 C 
ATOM     10  O   UNL     1      -0.989   2.183   0.019  0.00  0.00    -0.275 OA
ATOM     11  H   UNL     1      -0.231  -2.491  -1.930  0.00  0.00    -0.083 HD
ATOM     12  H   UNL     1      -0.232  -3.047  -0.222  0.00  0.00    -0.083 HD
ENDROOT
BRANCH   5  13
ATOM     13  C   UNL     1       2.246  -2.344  -1.807  0.00  0.00    -0.057 A 
ATOM     14  C   UNL     1       1.724  -2.598  -3.061  0.00  0.00    +0.006 A 
ATOM     15  C   UNL     1       2.521  -3.153  -4.045  0.00  0.00    +0.049 A 
ATOM     16  C   UNL     1       3.845  -3.465  -3.773  0.00  0.00    +0.162 A 
ATOM     17  C   UNL     1       4.369  -3.211  -2.511  0.00  0.00    +0.162 A 
ATOM     18  C   UNL     1       3.565  -2.651  -1.529  0.00  0.00    +0.051 A 
ATOM     19  O   UNL     1       5.668  -3.501  -2.225  0.00  0.00    -0.485 OA
ATOM     20  C   UNL     1       6.337  -4.402  -3.115  0.00  0.00    +0.270 C 
ATOM     21  C   UNL     1       6.032  -3.970  -4.556  0.00  0.00    +0.270 C 
ATOM     22  O   UNL     1       4.614  -4.020  -4.748  0.00  0.00    -0.485 OA
ENDBRANCH   5  13
BRANCH   1  29
ATOM     23  C   UNL     1       1.541   3.691  -2.138  0.00  0.00    +0.045 C 
ATOM     24  C   UNL     1       1.882   4.062  -0.717  0.00  0.00    -0.029 A 
ATOM     25  C   UNL     1       2.324   5.337  -0.422  0.00  0.00    +0.005 A 
ATOM     26  C   UNL     1       2.636   5.677   0.881  0.00  0.00    +0.000 A 
ATOM     27  C   UNL     1       2.508   4.743   1.892  0.00  0.00    +0.002 A 
ATOM     28  C   UNL     1       2.062   3.468   1.604  0.00  0.00    +0.024 A 
ATOM     29  C   UNL     1       1.752   3.122   0.296  0.00  0.00    +0.047 A 
ENDBRANCH   1  29
BRANCH   7  30
ATOM     30  C   UNL     1      -1.906  -1.449   0.561  0.00  0.00    +0.347 C 
ATOM     31  O   UNL     1      -2.167  -0.688   1.463  0.00  0.00    -0.248 OA
ATOM     32  O   UNL     1      -2.483  -2.659   0.516  0.00  0.00    -0.248 OA
ENDBRANCH   7  30
BRANCH   7  33
ATOM     33  C   UNL     1      -1.679  -0.517  -1.742  0.00  0.00    +0.035 C 
BRANCH  33  34
ATOM     34  C   UNL     1      -2.620  -1.581  -2.247  0.00  0.00    -0.048 A 
ATOM     35  C   UNL     1      -2.186  -2.494  -3.190  0.00  0.00    +0.007 A 
ATOM     36  C   UNL     1      -3.045  -3.474  -3.650  0.00  0.00    +0.045 A 
ATOM     37  C   UNL     1      -4.346  -3.535  -3.173  0.00  0.00    +0.117 A 
ATOM     38  C   UNL     1      -4.780  -2.614  -2.230  0.00  0.00    +0.045 A 
ATOM     39  C   UNL     1      -3.916  -1.639  -1.769  0.00  0.00    +0.007 A 
BRANCH  37  40
ATOM     40  O   UNL     1      -5.194  -4.495  -3.627  0.00  0.00    -0.507 OA
ATOM     41  H   UNL     1      -6.225  -4.542  -3.248  0.00  0.00    +0.292 HD
ENDBRANCH  37  40
ENDBRANCH  33  34
ENDBRANCH   7  33
TORSDOF 6
