REMARK  Name = ZINC32971713
REMARK  12 active torsions:
REMARK  status: ('A' for Active; 'I' for Inactive)
REMARK    1  A    between atoms: C_1  and  C_2
REMARK    2  A    between atoms: C_5  and  S_8
REMARK    3  A    between atoms: S_8  and  N_11
REMARK    4  A    between atoms: N_11  and  C_12
REMARK    5  A    between atoms: N_11  and  C_30
REMARK    6  A    between atoms: C_12  and  C_13
REMARK    7  A    between atoms: C_13  and  C_14
REMARK    8  A    between atoms: N_16  and  C_17
REMARK    9  A    between atoms: C_17  and  C_19
REMARK   10  A    between atoms: C_17  and  C_20
REMARK   11  A    between atoms: C_23  and  S_26
REMARK   12  A    between atoms: S_26  and  N_29
REMARK                            x       y       z     vdW  Elec       q    Type
REMARK                         _______ _______ _______ _____ _____    ______ ____
ROOT
ATOM      1  C   UNL     1      -1.403   4.884   8.002  0.00  0.00    +0.116 C 
ENDROOT
BRANCH   1   2
ATOM      2  C   UNL     1      -2.171   4.199   6.901  0.00  0.00    +0.215 C 
ATOM      3  O   UNL     1      -3.123   3.497   7.171  0.00  0.00    -0.276 OA
ATOM      4  N   UNL     1      -1.801   4.366   5.616  0.00  0.00    -0.309 N 
ATOM      5  H   UNL     1      -0.938   5.003   5.371  0.00  0.00    +0.149 HD
BRANCH   4   6
ATOM      6  C   UNL     1      -2.548   3.701   4.546  0.00  0.00    +0.100 C 
ATOM      7  C   UNL     1      -3.754   4.558   4.157  0.00  0.00    +0.033 C 
BRANCH   6   8
ATOM      8  C   UNL     1      -1.653   3.519   3.347  0.00  0.00    -0.027 A 
ATOM      9  C   UNL     1      -1.708   2.348   2.615  0.00  0.00    +0.007 A 
ATOM     10  C   UNL     1      -0.888   2.181   1.515  0.00  0.00    +0.029 A 
ATOM     11  C   UNL     1      -0.012   3.185   1.147  0.00  0.00    +0.105 A 
ATOM     12  C   UNL     1       0.047   4.354   1.883  0.00  0.00    +0.029 A 
ATOM     13  C   UNL     1      -0.777   4.523   2.979  0.00  0.00    +0.007 A 
BRANCH  11  14
ATOM     14  S   UNL     1       1.034   2.972  -0.255  0.00  0.00    +0.056 S 
ATOM     15  O   UNL     1       1.179   1.572  -0.444  0.00  0.00    -0.153 OA
ATOM     16  O   UNL     1       2.148   3.835  -0.065  0.00  0.00    -0.153 OA
BRANCH  14  17
ATOM     17  N   UNL     1       0.210   3.546  -1.572  0.00  0.00    -0.204 NA
ATOM     18  H   UNL     1       0.832   3.430  -2.472  0.00  0.00    +0.144 HD
ATOM     19  H   UNL     1      -0.025   4.610  -1.423  0.00  0.00    +0.144 HD
ENDBRANCH  14  17
ENDBRANCH  11  14
ENDBRANCH   6   8
ENDBRANCH   4   6
ENDBRANCH   1   2
BRANCH   1  20
ATOM     20  C   UNL     1      -2.025   4.530   9.354  0.00  0.00    +0.141 C 
BRANCH  20  21
ATOM     21  N   UNL     1      -1.278   5.196  10.424  0.00  0.00    -0.203 N 
BRANCH  21  22
ATOM     22  C   UNL     1      -0.129   4.600  10.948  0.00  0.00    +0.051 A 
ATOM     23  C   UNL     1      -0.204   3.350  11.550  0.00  0.00    +0.025 A 
ATOM     24  C   UNL     1       0.935   2.762  12.063  0.00  0.00    +0.002 A 
ATOM     25  C   UNL     1       2.148   3.421  11.988  0.00  0.00    +0.000 A 
ATOM     26  C   UNL     1       2.227   4.667  11.395  0.00  0.00    +0.002 A 
ATOM     27  C   UNL     1       1.092   5.259  10.875  0.00  0.00    +0.025 A 
ENDBRANCH  21  22
BRANCH  21  28
ATOM     28  S   UNL     1      -1.797   6.654  11.013  0.00  0.00    +0.075 S 
ATOM     29  O   UNL     1      -0.691   7.235  11.690  0.00  0.00    -0.150 OA
ATOM     30  O   UNL     1      -2.465   7.309   9.943  0.00  0.00    -0.150 OA
BRANCH  28  35
ATOM     31  C   UNL     1      -5.978   5.502  15.208  0.00  0.00    +0.044 C 
ATOM     32  C   UNL     1      -4.933   5.790  14.160  0.00  0.00    -0.050 A 
ATOM     33  C   UNL     1      -3.602   5.886  14.519  0.00  0.00    +0.005 A 
ATOM     34  C   UNL     1      -2.644   6.150  13.558  0.00  0.00    +0.029 A 
ATOM     35  C   UNL     1      -3.018   6.318  12.238  0.00  0.00    +0.109 A 
ATOM     36  C   UNL     1      -4.350   6.227  11.879  0.00  0.00    +0.029 A 
ATOM     37  C   UNL     1      -5.307   5.958  12.840  0.00  0.00    +0.005 A 
ENDBRANCH  28  35
ENDBRANCH  21  28
ENDBRANCH  20  21
ENDBRANCH   1  20
TORSDOF 10
