REMARK  Name = ZINC32409482
REMARK  5 active torsions:
REMARK  status: ('A' for Active; 'I' for Inactive)
REMARK    1  A    between atoms: C_1  and  C_2
REMARK    2  A    between atoms: C_5  and  S_9
REMARK    3  A    between atoms: S_9  and  N_12
REMARK    4  A    between atoms: C_19  and  S_21
REMARK    5  A    between atoms: S_21  and  N_24
REMARK                            x       y       z     vdW  Elec       q    Type
REMARK                         _______ _______ _______ _____ _____    ______ ____
ROOT
ATOM      1  N   UNL     1       1.651  -5.000  -0.035  0.00  0.00    -0.202 N 
ATOM      2  C   UNL     1       2.452  -5.224  -1.241  0.00  0.00    +0.136 C 
ATOM      3  C   UNL     1       3.842  -5.639  -0.731  0.00  0.00    +0.058 C 
ATOM      4  C   UNL     1       3.715  -5.617   0.776  0.00  0.00    -0.021 A 
ATOM      5  C   UNL     1       2.424  -5.232   1.104  0.00  0.00    +0.055 A 
ATOM      6  C   UNL     1       2.068  -5.134   2.450  0.00  0.00    +0.027 A 
ATOM      7  C   UNL     1       2.992  -5.410   3.436  0.00  0.00    +0.030 A 
ATOM      8  C   UNL     1       4.278  -5.788   3.098  0.00  0.00    +0.105 A 
ATOM      9  C   UNL     1       4.636  -5.897   1.767  0.00  0.00    +0.034 A 
ENDROOT
BRANCH   1  10
ATOM     10  S   UNL     1       0.063  -4.531  -0.024  0.00  0.00    +0.075 S 
ATOM     11  O   UNL     1      -0.476  -4.952   1.221  0.00  0.00    -0.150 OA
ATOM     12  O   UNL     1      -0.489  -4.937  -1.270  0.00  0.00    -0.150 OA
BRANCH  10  17
ATOM     13  C   UNL     1      -0.018   1.503   0.010  0.00  0.00    +0.045 C 
ATOM     14  C   UNL     1       0.002  -0.004   0.002  0.00  0.00    -0.032 A 
ATOM     15  C   UNL     1       0.006  -0.689  -1.199  0.00  0.00    +0.007 A 
ATOM     16  C   UNL     1       0.025  -2.071  -1.207  0.00  0.00    +0.029 A 
ATOM     17  C   UNL     1       0.040  -2.769  -0.013  0.00  0.00    +0.110 A 
ATOM     18  C   UNL     1       0.036  -2.086   1.188  0.00  0.00    +0.049 A 
ATOM     19  C   UNL     1       0.023  -0.702   1.196  0.00  0.00    +0.046 A 
ATOM     20 CL   UNL     1       0.025   0.157   2.704  0.00  0.00    -0.083 Cl
ENDBRANCH  10  17
ENDBRANCH   1  10
BRANCH   8  21
ATOM     21  S   UNL     1       5.455  -6.140   4.361  0.00  0.00    +0.056 S 
ATOM     22  O   UNL     1       6.739  -5.943   3.785  0.00  0.00    -0.153 OA
ATOM     23  O   UNL     1       5.026  -5.444   5.522  0.00  0.00    -0.153 OA
BRANCH  21  24
ATOM     24  N   UNL     1       5.335  -7.756   4.706  0.00  0.00    -0.204 NA
ATOM     25  H   UNL     1       6.114  -8.245   5.013  0.00  0.00    +0.144 HD
ATOM     26  H   UNL     1       4.486  -8.212   4.601  0.00  0.00    +0.144 HD
ENDBRANCH  21  24
ENDBRANCH   8  21
TORSDOF 4
