REMARK  Name = ZINC00841824
REMARK  7 active torsions:
REMARK  status: ('A' for Active; 'I' for Inactive)
REMARK    1  A    between atoms: C_4  and  N_7
REMARK    2  A    between atoms: C_8  and  C_10
REMARK    3  A    between atoms: C_10  and  S_11
REMARK    4  A    between atoms: S_11  and  C_12
REMARK    5  A    between atoms: C_13  and  C_27
REMARK    6  A    between atoms: C_14  and  C_20
REMARK    7  A    between atoms: C_23  and  O_26
REMARK                            x       y       z     vdW  Elec       q    Type
REMARK                         _______ _______ _______ _____ _____    ______ ____
ROOT
ATOM      1  C   UNL     1       6.276  -5.205   0.371  0.00  0.00    +0.082 C 
ATOM      2  C   UNL     1       6.423  -6.555   0.464  0.00  0.00    +0.065 C 
ATOM      3  C   UNL     1       7.799  -7.161   0.554  0.00  0.00    +0.070 C 
ATOM      4  C   UNL     1       8.779  -6.325  -0.271  0.00  0.00    +0.109 C 
ATOM      5  C   UNL     1       8.599  -4.866   0.059  0.00  0.00    +0.218 C 
ATOM      6  O   UNL     1       9.559  -4.126   0.057  0.00  0.00    -0.275 OA
ATOM      7  N   UNL     1       7.380  -4.379   0.352  0.00  0.00    -0.279 N 
ATOM      8  H   UNL     1       7.279  -3.437   0.555  0.00  0.00    +0.155 HD
ENDROOT
BRANCH   3   9
ATOM      9  C   UNL     1       8.245  -7.183   1.993  0.00  0.00    -0.039 A 
ATOM     10  C   UNL     1       8.349  -6.001   2.702  0.00  0.00    +0.008 A 
ATOM     11  C   UNL     1       8.758  -6.018   4.022  0.00  0.00    +0.045 A 
ATOM     12  C   UNL     1       9.065  -7.224   4.635  0.00  0.00    +0.117 A 
ATOM     13  C   UNL     1       8.960  -8.409   3.922  0.00  0.00    +0.045 A 
ATOM     14  C   UNL     1       8.546  -8.387   2.604  0.00  0.00    +0.008 A 
BRANCH  12  15
ATOM     15  O   UNL     1       9.468  -7.244   5.933  0.00  0.00    -0.507 OA
ATOM     16  H   UNL     1       8.745  -7.332   6.568  0.00  0.00    +0.292 HD
ENDBRANCH  12  15
ENDBRANCH   3   9
BRANCH   2  17
ATOM     17  C   UNL     1       5.267  -7.400   0.477  0.00  0.00    +0.098 C 
ATOM     18  N   UNL     1       4.350  -8.071   0.488  0.00  0.00    -0.191 NA
ENDBRANCH   2  17
BRANCH   1  19
ATOM     19  S   UNL     1       4.661  -4.506   0.267  0.00  0.00    -0.100 S 
BRANCH  19  20
ATOM     20  C   UNL     1       4.962  -2.721   0.153  0.00  0.00    +0.171 C 
BRANCH  20  22
ATOM     21  N   UNL     1       3.622  -0.651  -0.037  0.00  0.00    -0.285 N 
ATOM     22  C   UNL     1       3.645  -1.995   0.057  0.00  0.00    +0.227 C 
ATOM     23  O   UNL     1       2.606  -2.620   0.064  0.00  0.00    -0.275 OA
ATOM     24  H   UNL     1       4.452  -0.156  -0.121  0.00  0.00    +0.155 HD
BRANCH  21  28
ATOM     25  C   UNL     1      -0.015   1.381   0.029  0.00  0.00    +0.000 A 
ATOM     26  C   UNL     1       0.140   0.218   0.763  0.00  0.00    +0.002 A 
ATOM     27  C   UNL     1       1.344  -0.457   0.743  0.00  0.00    +0.023 A 
ATOM     28  C   UNL     1       2.400   0.031  -0.015  0.00  0.00    +0.033 A 
ATOM     29  C   UNL     1       2.241   1.198  -0.751  0.00  0.00    +0.023 A 
ATOM     30  C   UNL     1       1.034   1.870  -0.727  0.00  0.00    +0.002 A 
ENDBRANCH  21  28
ENDBRANCH  20  22
ENDBRANCH  19  20
ENDBRANCH   1  19
TORSDOF 7
