REMARK  Name = ZINC02774730
REMARK  7 active torsions:
REMARK  status: ('A' for Active; 'I' for Inactive)
REMARK    1  A    between atoms: C_1  and  C_2
REMARK    2  A    between atoms: C_2  and  O_3
REMARK    3  A    between atoms: O_3  and  C_4
REMARK    4  A    between atoms: C_4  and  C_6
REMARK    5  A    between atoms: C_7  and  C_35
REMARK    6  A    between atoms: C_14  and  C_15
REMARK    7  A    between atoms: C_26  and  C_28
REMARK                            x       y       z     vdW  Elec       q    Type
REMARK                         _______ _______ _______ _____ _____    ______ ____
ROOT
ATOM      1  C   UNL     1      -5.599   2.926   0.671  0.00  0.00    +0.085 C 
ATOM      2  C   UNL     1      -5.157   4.215   0.564  0.00  0.00    +0.053 C 
ATOM      3  N   UNL     1      -3.857   4.481   0.533  0.00  0.00    -0.228 NA
ATOM      4  C   UNL     1      -2.908   3.582   0.599  0.00  0.00    +0.178 A 
ATOM      5  N   UNL     1      -3.135   2.229   0.709  0.00  0.00    -0.275 N 
ATOM      6  C   UNL     1      -2.081   1.404   0.762  0.00  0.00    +0.268 A 
ATOM      7  O   UNL     1      -2.233   0.200   0.855  0.00  0.00    -0.266 OA
ATOM      8  C   UNL     1      -0.738   1.995   0.711  0.00  0.00    +0.081 A 
ATOM      9  C   UNL     1       0.476   1.386   0.750  0.00  0.00    +0.030 C 
ATOM     10  S   UNL     1      -1.132   3.732   0.574  0.00  0.00    -0.046 S 
ATOM     11  C   UNL     1      -4.568   1.824   0.753  0.00  0.00    +0.162 C 
ATOM     12  C   UNL     1      -6.153   5.342   0.480  0.00  0.00    +0.066 C 
ENDROOT
BRANCH   9  13
ATOM     13  C   UNL     1       1.697   2.191   0.867  0.00  0.00    -0.002 A 
ATOM     14  C   UNL     1       1.624   3.523   1.295  0.00  0.00    +0.059 A 
ATOM     15  C   UNL     1       2.776   4.274   1.408  0.00  0.00    +0.167 A 
ATOM     16  C   UNL     1       4.012   3.710   1.085  0.00  0.00    +0.168 A 
ATOM     17  C   UNL     1       4.087   2.392   0.656  0.00  0.00    +0.070 A 
ATOM     18  C   UNL     1       2.942   1.632   0.545  0.00  0.00    +0.052 A 
ATOM     19 CL   UNL     1       3.041  -0.016   0.008  0.00  0.00    -0.083 Cl
ATOM     20  O   UNL     1       4.981   4.652   1.275  0.00  0.00    -0.453 OA
ATOM     21  C   UNL     1       4.290   5.913   1.320  0.00  0.00    +0.466 C 
ATOM     22  O   UNL     1       2.976   5.567   1.798  0.00  0.00    -0.453 OA
ENDBRANCH   9  13
BRANCH  11  23
ATOM     23  C   UNL     1      -4.797   1.069   2.037  0.00  0.00    -0.020 A 
ATOM     24  C   UNL     1      -4.192   1.493   3.205  0.00  0.00    +0.007 A 
ATOM     25  C   UNL     1      -4.406   0.804   4.384  0.00  0.00    +0.020 A 
ATOM     26  C   UNL     1      -5.218  -0.316   4.393  0.00  0.00    +0.041 A 
ATOM     27  C   UNL     1      -5.819  -0.743   3.222  0.00  0.00    +0.020 A 
ATOM     28  C   UNL     1      -5.609  -0.050   2.045  0.00  0.00    +0.007 A 
ATOM     29 CL   UNL     1      -5.483  -1.185   5.872  0.00  0.00    -0.084 Cl
ENDBRANCH  11  23
BRANCH   1  30
ATOM     30  C   UNL     1      -6.972   2.634   0.705  0.00  0.00    +0.339 C 
ATOM     31  O   UNL     1      -7.787   3.538   0.753  0.00  0.00    -0.245 OA
BRANCH  30  32
ATOM     32  O   UNL     1      -7.391   1.349   0.683  0.00  0.00    -0.462 OA
BRANCH  32  34
ATOM     33  C   UNL     1      -9.080  -0.378   0.687  0.00  0.00    +0.048 C 
ATOM     34  C   UNL     1      -8.801   1.126   0.719  0.00  0.00    +0.229 C 
ENDBRANCH  32  34
ENDBRANCH  30  32
ENDBRANCH   1  30
TORSDOF 5
