REMARK  Name = ZINC19852872
REMARK  8 active torsions:
REMARK  status: ('A' for Active; 'I' for Inactive)
REMARK    1  A    between atoms: C_3  and  C_8
REMARK    2  A    between atoms: C_8  and  N_9
REMARK    3  A    between atoms: C_11  and  N_30
REMARK    4  A    between atoms: C_14  and  C_16
REMARK    5  A    between atoms: N_18  and  C_19
REMARK    6  A    between atoms: C_19  and  C_20
REMARK    7  A    between atoms: C_20  and  C_21
REMARK    8  A    between atoms: N_30  and  C_31
REMARK                            x       y       z     vdW  Elec       q    Type
REMARK                         _______ _______ _______ _____ _____    ______ ____
ROOT
ATOM      1  N   UNL     1       7.937   0.042   7.676  0.00  0.00    -0.289 NA
ATOM      2  C   UNL     1       8.898  -0.852   8.348  0.00  0.00    +0.070 C 
ATOM      3  C   UNL     1       9.543  -1.733   7.257  0.00  0.00    -0.055 C 
ATOM      4  C   UNL     1       8.502  -1.683   6.108  0.00  0.00    +0.014 C 
ATOM      5  C   UNL     1       7.977  -0.230   6.224  0.00  0.00    +0.142 C 
ENDROOT
BRANCH   5   6
ATOM      6  C   UNL     1       6.595  -0.123   5.632  0.00  0.00    +0.230 C 
ATOM      7  O   UNL     1       5.661   0.211   6.330  0.00  0.00    -0.274 OA
ATOM      8  N   UNL     1       6.397  -0.397   4.327  0.00  0.00    -0.314 N 
ATOM      9  H   UNL     1       7.245  -0.700   3.695  0.00  0.00    +0.149 HD
BRANCH   8  10
ATOM     10  C   UNL     1       5.054  -0.292   3.752  0.00  0.00    +0.109 C 
BRANCH  10  11
ATOM     11  C   UNL     1       5.106  -0.655   2.267  0.00  0.00    +0.054 C 
BRANCH  11  12
ATOM     12  C   UNL     1       3.724  -0.547   1.675  0.00  0.00    -0.042 A 
ATOM     13  C   UNL     1       2.886  -1.647   1.676  0.00  0.00    +0.007 A 
ATOM     14  C   UNL     1       1.617  -1.553   1.135  0.00  0.00    +0.050 A 
ATOM     15  C   UNL     1       1.183  -0.356   0.589  0.00  0.00    +0.166 A 
ATOM     16  C   UNL     1       2.028   0.751   0.586  0.00  0.00    +0.166 A 
ATOM     17  C   UNL     1       3.298   0.650   1.131  0.00  0.00    +0.053 A 
ATOM     18  O   UNL     1       1.376   1.797  -0.001  0.00  0.00    -0.453 OA
ATOM     19  C   UNL     1      -0.018   1.436   0.010  0.00  0.00    +0.466 C 
ATOM     20  O   UNL     1       0.002  -0.004   0.002  0.00  0.00    -0.453 OA
ENDBRANCH  11  12
ENDBRANCH  10  11
ENDBRANCH   8  10
ENDBRANCH   5   6
BRANCH   3  21
ATOM     21  N   UNL     1       9.719  -3.110   7.739  0.00  0.00    +0.384 N 
ATOM     22  H   UNL     1       8.947  -3.337   8.489  0.00  0.00    -0.085 HD
ATOM     23  H   UNL     1       9.627  -3.808   6.894  0.00  0.00    -0.085 HD
BRANCH  21  24
ATOM     24  C   UNL     1      11.041  -3.286   8.354  0.00  0.00    -0.071 C 
ATOM     25  C   UNL     1      12.071  -3.604   7.268  0.00  0.00    -0.016 C 
ATOM     26  C   UNL     1      13.480  -3.398   7.827  0.00  0.00    -0.002 C 
ATOM     27  C   UNL     1      13.527  -2.095   8.628  0.00  0.00    -0.000 C 
ATOM     28  C   UNL     1      13.748  -2.415  10.108  0.00  0.00    -0.000 C 
ATOM     29  C   UNL     1      12.443  -2.932  10.717  0.00  0.00    -0.000 C 
ATOM     30  C   UNL     1      12.210  -4.377  10.274  0.00  0.00    -0.002 C 
ATOM     31  C   UNL     1      10.986  -4.440   9.358  0.00  0.00    -0.016 C 
ENDBRANCH  21  24
ENDBRANCH   3  21
BRANCH   1  32
ATOM     32  C   UNL     1       8.244   1.451   7.957  0.00  0.00    +0.120 C 
BRANCH  32  35
ATOM     33  C   UNL     1       6.439   2.462  11.114  0.00  0.00    +0.002 A 
ATOM     34  C   UNL     1       6.704   2.193   9.784  0.00  0.00    +0.005 A 
ATOM     35  C   UNL     1       7.957   1.749   9.405  0.00  0.00    -0.032 A 
ATOM     36  C   UNL     1       8.949   1.585  10.355  0.00  0.00    +0.025 A 
ATOM     37  C   UNL     1       8.685   1.859  11.685  0.00  0.00    +0.041 A 
ATOM     38  C   UNL     1       7.429   2.298  12.064  0.00  0.00    +0.020 A 
ATOM     39 CL   UNL     1       9.930   1.653  12.877  0.00  0.00    -0.084 Cl
ENDBRANCH  32  35
ENDBRANCH   1  32
TORSDOF 8
