REMARK  Name = ZINC39560898
REMARK  9 active torsions:
REMARK  status: ('A' for Active; 'I' for Inactive)
REMARK    1  A    between atoms: C_1  and  C_2
REMARK    2  A    between atoms: C_2  and  C_3
REMARK    3  A    between atoms: C_6  and  N_28
REMARK    4  A    between atoms: C_12  and  C_24
REMARK    5  A    between atoms: C_24  and  O_26
REMARK    6  A    between atoms: O_26  and  C_27
REMARK    7  A    between atoms: N_28  and  C_29
REMARK    8  A    between atoms: C_29  and  C_30
REMARK    9  A    between atoms: C_30  and  C_31
REMARK                            x       y       z     vdW  Elec       q    Type
REMARK                         _______ _______ _______ _____ _____    ______ ____
ROOT
ATOM      1  C   UNL     1       0.805  -0.404  -1.255  0.00  0.00    -0.065 C 
ATOM      2  C   UNL     1       0.734  -1.920  -1.457  0.00  0.00    +0.003 C 
ATOM      3  C   UNL     1       1.539  -2.308  -2.700  0.00  0.00    +0.051 C 
ATOM      4  C   UNL     1       2.977  -1.803  -2.548  0.00  0.00    +0.009 C 
ATOM      5  C   UNL     1       2.952  -0.291  -2.318  0.00  0.00    -0.015 C 
ATOM      6  N   UNL     1       2.205  -0.001  -1.085  0.00  0.00    +0.396 N 
ATOM      7  C   UNL     1       2.288   1.424  -0.752  0.00  0.00    +0.048 C 
ATOM      8  C   UNL     1       3.686   1.752  -0.206  0.00  0.00    +0.033 C 
ATOM      9  C   UNL     1       4.700   1.180  -1.166  0.00  0.00    -0.023 C 
ATOM     10  C   UNL     1       6.013   1.425  -1.285  0.00  0.00    -0.014 C 
ATOM     11  C   UNL     1       6.918   2.340  -0.509  0.00  0.00    +0.064 C 
ATOM     12  C   UNL     1       8.318   2.244  -1.046  0.00  0.00    -0.022 C 
ATOM     13  C   UNL     1       8.693   1.465  -2.055  0.00  0.00    -0.002 C 
ATOM     14  C   UNL     1       7.811   0.618  -2.757  0.00  0.00    +0.028 C 
ATOM     15  C   UNL     1       6.475   0.609  -2.362  0.00  0.00    +0.068 C 
ATOM     16  N   UNL     1       5.430  -0.083  -2.837  0.00  0.00    -0.253 NA
ATOM     17  C   UNL     1       4.359   0.229  -2.167  0.00  0.00    +0.032 C 
ATOM     18  H   UNL     1       2.608  -0.530  -0.326  0.00  0.00    -0.079 HD
ENDROOT
BRANCH   1  20
ATOM     19  C   UNL     1       0.651  -0.651   1.227  0.00  0.00    +0.002 C 
ATOM     20  C   UNL     1       0.007  -0.017  -0.008  0.00  0.00    -0.019 C 
ENDBRANCH   1  20
BRANCH   7  21
ATOM     21  C   UNL     1       2.031   2.243  -1.990  0.00  0.00    +0.294 C 
ATOM     22  O   UNL     1       2.689   2.056  -2.986  0.00  0.00    -0.253 OA
BRANCH  21  23
ATOM     23  O   UNL     1       1.071   3.181  -1.987  0.00  0.00    -0.469 OA
ATOM     24  C   UNL     1       0.881   3.920  -3.195  0.00  0.00    +0.280 C 
ENDBRANCH  21  23
ENDBRANCH   7  21
BRANCH   3  25
ATOM     25  N   UNL     1       0.927  -1.701  -3.889  0.00  0.00    -0.313 NA
ATOM     26  H   UNL     1      -0.071  -1.609  -3.776  0.00  0.00    +0.122 HD
BRANCH  25  27
ATOM     27  C   UNL     1       1.252  -2.469  -5.099  0.00  0.00    +0.087 C 
BRANCH  27  28
ATOM     28  C   UNL     1       0.600  -1.807  -6.314  0.00  0.00    +0.070 C 
BRANCH  28  29
ATOM     29  C   UNL     1       0.933  -2.595  -7.555  0.00  0.00    +0.034 A 
ATOM     30  C   UNL     1       2.050  -2.467  -8.297  0.00  0.00    +0.105 A 
ATOM     31  N   UNL     1       1.948  -3.367  -9.323  0.00  0.00    -0.352 N 
ATOM     32  H   UNL     1       2.599  -3.514 -10.027  0.00  0.00    +0.166 HD
ATOM     33  C   UNL     1       0.772  -4.014  -9.172  0.00  0.00    +0.171 A 
ATOM     34  N   UNL     1       0.173  -3.550  -8.110  0.00  0.00    -0.350 N 
ATOM     35  H   UNL     1      -0.688  -3.848  -7.775  0.00  0.00    +0.166 HD
ENDBRANCH  28  29
ENDBRANCH  27  28
ENDBRANCH  25  27
ENDBRANCH   3  25
TORSDOF 7
