REMARK  Name = ZINC00913757
REMARK  9 active torsions:
REMARK  status: ('A' for Active; 'I' for Inactive)
REMARK    1  A    between atoms: C_1  and  C_2
REMARK    2  A    between atoms: C_7  and  C_14
REMARK    3  A    between atoms: C_14  and  N_15
REMARK    4  A    between atoms: N_15  and  C_16
REMARK    5  A    between atoms: N_15  and  S_26
REMARK    6  A    between atoms: C_16  and  C_17
REMARK    7  A    between atoms: S_26  and  C_29
REMARK    8  A    between atoms: C_32  and  O_35
REMARK    9  A    between atoms: O_35  and  C_36
REMARK                            x       y       z     vdW  Elec       q    Type
REMARK                         _______ _______ _______ _____ _____    ______ ____
ROOT
ATOM      1  N   UNL     1       6.095  -0.970   0.849  0.00  0.00    -0.168 NA
ENDROOT
BRANCH   1   2
ATOM      2  S   UNL     1       6.875   0.386   0.306  0.00  0.00    +0.061 S 
ATOM      3  O   UNL     1       6.964   0.265  -1.107  0.00  0.00    -0.153 OA
ATOM      4  O   UNL     1       6.250   1.494   0.939  0.00  0.00    -0.153 OA
BRANCH   2   5
ATOM      5  C   UNL     1       8.525   0.319   0.922  0.00  0.00    +0.106 A 
ATOM      6  C   UNL     1       8.850   0.971   2.097  0.00  0.00    +0.032 A 
ATOM      7  C   UNL     1      10.141   0.916   2.585  0.00  0.00    +0.047 A 
ATOM      8  C   UNL     1      11.114   0.214   1.889  0.00  0.00    +0.120 A 
ATOM      9  C   UNL     1      10.787  -0.435   0.708  0.00  0.00    +0.047 A 
ATOM     10  C   UNL     1       9.493  -0.381   0.227  0.00  0.00    +0.032 A 
BRANCH   8  11
ATOM     11  O   UNL     1      12.387   0.162   2.365  0.00  0.00    -0.495 OA
ATOM     12  C   UNL     1      12.651   0.854   3.587  0.00  0.00    +0.277 C 
ENDBRANCH   8  11
ENDBRANCH   2   5
ENDBRANCH   1   2
BRANCH   1  13
ATOM     13  C   UNL     1       6.210  -2.228   0.107  0.00  0.00    +0.150 C 
BRANCH  13  20
ATOM     14  C   UNL     1       0.627  -2.553  -5.580  0.00  0.00    +0.044 C 
ATOM     15  C   UNL     1       1.819  -2.399  -4.671  0.00  0.00    -0.048 A 
ATOM     16  C   UNL     1       2.998  -1.860  -5.168  0.00  0.00    +0.004 A 
ATOM     17  C   UNL     1       4.090  -1.712  -4.361  0.00  0.00    +0.010 A 
ATOM     18  C   UNL     1       4.020  -2.107  -3.021  0.00  0.00    -0.001 A 
ATOM     19  C   UNL     1       5.171  -1.963  -2.128  0.00  0.00    +0.020 A 
ATOM     20  C   UNL     1       5.045  -2.363  -0.838  0.00  0.00    +0.033 A 
ATOM     21  C   UNL     1       3.827  -2.910  -0.380  0.00  0.00    +0.254 A 
ATOM     22  O   UNL     1       3.736  -3.268   0.781  0.00  0.00    -0.268 OA
ATOM     23  N   UNL     1       2.763  -3.041  -1.191  0.00  0.00    -0.322 N 
ATOM     24  H   UNL     1       1.913  -3.426  -0.831  0.00  0.00    +0.169 HD
ATOM     25  C   UNL     1       2.826  -2.653  -2.513  0.00  0.00    +0.049 A 
ATOM     26  C   UNL     1       1.728  -2.795  -3.354  0.00  0.00    +0.029 A 
ENDBRANCH  13  20
ENDBRANCH   1  13
BRANCH   1  27
ATOM     27  C   UNL     1       5.289  -0.912   2.071  0.00  0.00    +0.145 C 
BRANCH  27  28
ATOM     28  C   UNL     1       6.122  -1.357   3.245  0.00  0.00    -0.028 A 
ATOM     29  C   UNL     1       6.777  -0.418   4.021  0.00  0.00    +0.009 A 
ATOM     30  C   UNL     1       7.543  -0.822   5.099  0.00  0.00    +0.050 A 
ATOM     31  C   UNL     1       7.657  -2.169   5.403  0.00  0.00    +0.166 A 
ATOM     32  C   UNL     1       6.998  -3.114   4.621  0.00  0.00    +0.167 A 
ATOM     33  C   UNL     1       6.231  -2.702   3.543  0.00  0.00    +0.054 A 
ATOM     34  O   UNL     1       7.265  -4.356   5.120  0.00  0.00    -0.453 OA
ATOM     35  C   UNL     1       7.760  -4.136   6.454  0.00  0.00    +0.466 C 
ATOM     36  O   UNL     1       8.338  -2.818   6.392  0.00  0.00    -0.453 OA
ENDBRANCH  27  28
ENDBRANCH   1  27
TORSDOF 7
