REMARK  Name = ZINC37030657
REMARK  7 active torsions:
REMARK  status: ('A' for Active; 'I' for Inactive)
REMARK    1  A    between atoms: C_1  and  C_2
REMARK    2  A    between atoms: C_2  and  C_3
REMARK    3  A    between atoms: C_2  and  C_4
REMARK    4  A    between atoms: C_4  and  C_5
REMARK    5  A    between atoms: C_5  and  N_6
REMARK    6  A    between atoms: N_6  and  C_7
REMARK    7  A    between atoms: C_10  and  C_13
REMARK                            x       y       z     vdW  Elec       q    Type
REMARK                         _______ _______ _______ _____ _____    ______ ____
ROOT
ATOM      1  C   UNL     1      -3.029  -3.936  -0.221  0.00  0.00    +0.027 A 
ATOM      2  C   UNL     1      -1.962  -4.819  -0.335  0.00  0.00    +0.023 A 
ATOM      3  C   UNL     1      -2.196  -6.174  -0.445  0.00  0.00    +0.012 A 
ATOM      4  C   UNL     1      -3.503  -6.657  -0.440  0.00  0.00    +0.002 A 
ATOM      5  C   UNL     1      -4.572  -5.769  -0.325  0.00  0.00    +0.012 A 
ATOM      6  C   UNL     1      -4.334  -4.416  -0.211  0.00  0.00    +0.023 A 
ENDROOT
BRANCH   4   7
ATOM      7  C   UNL     1      -3.758  -8.114  -0.558  0.00  0.00    +0.096 A 
ATOM      8  C   UNL     1      -5.022  -8.734  -0.573  0.00  0.00    +0.101 A 
ATOM      9  C   UNL     1      -4.826 -10.072  -0.695  0.00  0.00    +0.267 A 
ATOM     10  O   UNL     1      -5.796 -11.020  -0.748  0.00  0.00    -0.266 OA
ATOM     11  N   UNL     1      -3.488 -10.291  -0.755  0.00  0.00    -0.243 N 
ATOM     12  H   UNL     1      -3.055 -11.154  -0.844  0.00  0.00    +0.192 HD
ATOM     13  N   UNL     1      -2.841  -9.051  -0.673  0.00  0.00    -0.171 NA
ENDBRANCH   4   7
BRANCH   1  14
ATOM     14  N   UNL     1      -2.790  -2.565  -0.111  0.00  0.00    -0.344 N 
ATOM     15  H   UNL     1      -3.534  -1.948  -0.027  0.00  0.00    +0.146 HD
BRANCH  14  16
ATOM     16  C   UNL     1      -1.416  -2.058  -0.121  0.00  0.00    +0.102 C 
BRANCH  16  17
ATOM     17  C   UNL     1      -1.433  -0.534   0.013  0.00  0.00    +0.021 C 
BRANCH  17  19
ATOM     18  C   UNL     1      -0.019   1.526   0.010  0.00  0.00    +0.007 C 
ATOM     19  C   UNL     1       0.002  -0.004   0.002  0.00  0.00    -0.016 C 
ATOM     20  C   UNL     1       0.742  -0.511   1.242  0.00  0.00    +0.007 C 
ENDBRANCH  17  19
ENDBRANCH  16  17
ENDBRANCH  14  16
ENDBRANCH   1  14
TORSDOF 5
