REMARK  Name = ZINC20758647
REMARK  5 active torsions:
REMARK  status: ('A' for Active; 'I' for Inactive)
REMARK    1  A    between atoms: C_1  and  S_2
REMARK    2  A    between atoms: S_2  and  C_3
REMARK    3  A    between atoms: C_6  and  C_9
REMARK    4  A    between atoms: C_20  and  S_25
REMARK    5  A    between atoms: S_25  and  N_28
REMARK                            x       y       z     vdW  Elec       q    Type
REMARK                         _______ _______ _______ _____ _____    ______ ____
ROOT
ATOM      1  C   UNL     1       1.238   2.179   0.002  0.00  0.00    +0.105 C 
ATOM      2  C   UNL     1       2.390   1.796   0.914  0.00  0.00    +0.029 C 
ATOM      3  C   UNL     1       3.624   2.709   0.903  0.00  0.00    +0.033 C 
ATOM      4  C   UNL     1       4.740   1.722   1.252  0.00  0.00    -0.030 C 
ATOM      5  C   UNL     1       4.390   0.494   0.889  0.00  0.00    -0.023 C 
ATOM      6  C   UNL     1       3.051   0.552   0.248  0.00  0.00    +0.049 C 
ATOM      7  C   UNL     1       2.093  -0.571   0.330  0.00  0.00    -0.018 A 
ATOM      8  C   UNL     1       2.498  -1.878   0.497  0.00  0.00    +0.034 A 
ATOM      9  C   UNL     1       1.564  -2.897   0.548  0.00  0.00    +0.105 A 
ATOM     10  C   UNL     1       0.217  -2.606   0.431  0.00  0.00    +0.030 A 
ATOM     11  C   UNL     1      -0.198  -1.300   0.270  0.00  0.00    +0.025 A 
ATOM     12  C   UNL     1       0.731  -0.268   0.222  0.00  0.00    +0.031 A 
ATOM     13  N   UNL     1       0.284   1.050   0.070  0.00  0.00    -0.336 N 
ATOM     14  H   UNL     1      -0.797   1.239   0.002  0.00  0.00    +0.147 HD
ENDROOT
BRANCH   1  18
ATOM     15  C   UNL     1       2.634   2.691  -4.005  0.00  0.00    +0.008 A 
ATOM     16  C   UNL     1       2.189   1.446  -3.576  0.00  0.00    +0.015 A 
ATOM     17  C   UNL     1       1.739   1.284  -2.281  0.00  0.00    +0.006 A 
ATOM     18  C   UNL     1       1.730   2.359  -1.411  0.00  0.00    -0.027 A 
ATOM     19  C   UNL     1       2.168   3.601  -1.836  0.00  0.00    +0.006 A 
ATOM     20  C   UNL     1       2.624   3.769  -3.128  0.00  0.00    +0.015 A 
BRANCH  15  22
ATOM     21  C   UNL     1       3.671   4.654  -5.740  0.00  0.00    +0.090 C 
ATOM     22  S   UNL     1       3.209   2.902  -5.657  0.00  0.00    -0.129 S 
ENDBRANCH  15  22
ENDBRANCH   1  18
BRANCH   9  23
ATOM     23  S   UNL     1       2.091  -4.565   0.760  0.00  0.00    +0.056 S 
ATOM     24  O   UNL     1       1.060  -5.386   0.228  0.00  0.00    -0.153 OA
ATOM     25  O   UNL     1       3.432  -4.629   0.296  0.00  0.00    -0.153 OA
BRANCH  23  26
ATOM     26  N   UNL     1       2.138  -4.860   2.389  0.00  0.00    -0.204 NA
ATOM     27  H   UNL     1       2.464  -5.896   2.564  0.00  0.00    +0.144 HD
ATOM     28  H   UNL     1       1.136  -4.713   2.817  0.00  0.00    +0.144 HD
ENDBRANCH  23  26
ENDBRANCH   9  23
TORSDOF 4
