REMARK  Name = ZINC27030022
REMARK  7 active torsions:
REMARK  status: ('A' for Active; 'I' for Inactive)
REMARK    1  A    between atoms: C_1  and  C_2
REMARK    2  A    between atoms: C_4  and  C_23
REMARK    3  A    between atoms: C_7  and  C_11
REMARK    4  A    between atoms: C_11  and  S_12
REMARK    5  A    between atoms: S_12  and  C_13
REMARK    6  A    between atoms: C_15  and  C_22
REMARK    7  A    between atoms: C_18  and  C_21
REMARK                            x       y       z     vdW  Elec       q    Type
REMARK                         _______ _______ _______ _____ _____    ______ ____
ROOT
ATOM      1  C   UNL     1       4.707   3.031  -0.027  0.00  0.00    +0.134 C 
ENDROOT
BRANCH   1   8
ATOM      2  C   UNL     1      -2.490   4.333   0.048  0.00  0.00    +0.066 C 
ATOM      3  C   UNL     1      -1.187   3.576   0.032  0.00  0.00    +0.044 A 
ATOM      4  C   UNL     1      -1.196   2.174   0.019  0.00  0.00    +0.044 A 
ATOM      5  C   UNL     1      -0.018   1.503   0.010  0.00  0.00    +0.025 A 
ATOM      6  N   UNL     1       1.148   2.211   0.003  0.00  0.00    -0.288 N 
ATOM      7  C   UNL     1       2.463   1.833  -0.011  0.00  0.00    +0.118 A 
ATOM      8  C   UNL     1       3.201   2.963  -0.012  0.00  0.00    +0.072 A 
ATOM      9  N   UNL     1       2.374   4.013   0.001  0.00  0.00    -0.215 NA
ATOM     10  C   UNL     1       1.121   3.582   0.010  0.00  0.00    +0.235 A 
ATOM     11  N   UNL     1      -0.051   4.233   0.025  0.00  0.00    -0.217 NA
ATOM     12  C   UNL     1       0.002  -0.004   0.002  0.00  0.00    +0.064 C 
ENDBRANCH   1   8
BRANCH   1  13
ATOM     13  S   UNL     1       5.293   3.067  -1.739  0.00  0.00    -0.086 S 
BRANCH  13  14
ATOM     14  C   UNL     1       7.032   3.143  -1.465  0.00  0.00    +0.129 C 
ATOM     15  N   UNL     1       7.473   3.156  -0.249  0.00  0.00    -0.365 N 
ATOM     16  C   UNL     1       8.888   3.196   0.099  0.00  0.00    +0.080 C 
ATOM     17  C   UNL     1       9.716   3.729  -1.073  0.00  0.00    +0.046 C 
ATOM     18  C   UNL     1       9.312   2.961  -2.341  0.00  0.00    +0.071 C 
ATOM     19  N   UNL     1       7.874   3.181  -2.552  0.00  0.00    -0.323 N 
ATOM     20  C   UNL     1      10.102   3.487  -3.541  0.00  0.00    +0.028 C 
ATOM     21  C   UNL     1       9.084   4.111   1.310  0.00  0.00    +0.030 C 
ATOM     22  H   UNL     1       7.489   3.372  -3.565  0.00  0.00    +0.148 HD
ATOM     23  H   UNL     1       6.765   3.136   0.593  0.00  0.00    +0.162 HD
ENDBRANCH  13  14
ENDBRANCH   1  13
TORSDOF 3
