REMARK  Name = ZINC12419841
REMARK  11 active torsions:
REMARK  status: ('A' for Active; 'I' for Inactive)
REMARK    1  A    between atoms: C_1  and  C_2
REMARK    2  A    between atoms: C_2  and  C_3
REMARK    3  A    between atoms: C_3  and  C_4
REMARK    4  A    between atoms: C_4  and  C_5
REMARK    5  A    between atoms: C_5  and  O_6
REMARK    6  A    between atoms: O_6  and  C_7
REMARK    7  A    between atoms: C_9  and  O_32
REMARK    8  A    between atoms: C_12  and  C_13
REMARK    9  A    between atoms: C_27  and  N_31
REMARK   10  A    between atoms: C_28  and  C_29
REMARK   11  A    between atoms: O_32  and  C_33
REMARK                            x       y       z     vdW  Elec       q    Type
REMARK                         _______ _______ _______ _____ _____    ______ ____
ROOT
ATOM      1  C   UNL     1       0.002  -0.004   0.002  0.00  0.00    +0.109 C 
ATOM      2  C   UNL     1       1.353  -0.502  -0.437  0.00  0.00    +0.093 A 
ATOM      3  C   UNL     1       1.480  -1.842  -0.867  0.00  0.00    +0.200 A 
ATOM      4  O   UNL     1       0.518  -2.593  -0.887  0.00  0.00    -0.287 OA
ATOM      5  C   UNL     1       2.817  -2.300  -1.292  0.00  0.00    +0.065 A 
ATOM      6  C   UNL     1       3.036  -3.604  -1.729  0.00  0.00    +0.015 A 
ATOM      7  C   UNL     1       4.302  -3.987  -2.116  0.00  0.00    +0.001 A 
ATOM      8  C   UNL     1       5.351  -3.081  -2.071  0.00  0.00    +0.004 A 
ATOM      9  C   UNL     1       5.146  -1.787  -1.640  0.00  0.00    +0.047 A 
ATOM     10  C   UNL     1       3.877  -1.381  -1.245  0.00  0.00    +0.143 A 
ATOM     11  O   UNL     1       3.652  -0.124  -0.818  0.00  0.00    -0.424 OA
ATOM     12  C   UNL     1       2.440   0.311  -0.425  0.00  0.00    +0.301 A 
ATOM     13  O   UNL     1       2.334   1.593  -0.010  0.00  0.00    -0.410 OA
ATOM     14  C   UNL     1       1.139   2.204   0.003  0.00  0.00    +0.202 C 
ATOM     15  C   UNL     1      -0.018   1.499   0.010  0.00  0.00    +0.098 C 
ENDROOT
BRANCH   1  21
ATOM     16  C   UNL     1      -1.395  -1.328   1.609  0.00  0.00    +0.128 A 
ATOM     17  C   UNL     1      -1.665  -1.798   2.885  0.00  0.00    +0.091 A 
ATOM     18  C   UNL     1      -0.832  -1.454   3.938  0.00  0.00    +0.124 A 
ATOM     19  C   UNL     1       0.270  -0.641   3.713  0.00  0.00    +0.046 A 
ATOM     20  C   UNL     1       0.540  -0.178   2.440  0.00  0.00    +0.012 A 
ATOM     21  C   UNL     1      -0.292  -0.515   1.389  0.00  0.00    +0.007 A 
BRANCH  18  22
ATOM     22  O   UNL     1      -1.094  -1.914   5.190  0.00  0.00    -0.495 OA
ATOM     23  C   UNL     1      -0.194  -1.520   6.227  0.00  0.00    +0.277 C 
ENDBRANCH  18  22
BRANCH  16  24
ATOM     24  O   UNL     1      -2.209  -1.664   0.574  0.00  0.00    -0.492 OA
BRANCH  24  25
ATOM     25  C   UNL     1      -3.326  -2.504   0.873  0.00  0.00    +0.229 C 
BRANCH  25  26
ATOM     26  C   UNL     1      -4.120  -2.772  -0.407  0.00  0.00    +0.041 C 
BRANCH  26  27
ATOM     27  C   UNL     1      -5.315  -3.671  -0.087  0.00  0.00    +0.003 C 
BRANCH  27  29
ATOM     28  C   UNL     1      -7.305  -4.839  -1.046  0.00  0.00    +0.004 C 
ATOM     29  C   UNL     1      -6.110  -3.939  -1.367  0.00  0.00    -0.003 C 
ENDBRANCH  27  29
ENDBRANCH  26  27
ENDBRANCH  25  26
ENDBRANCH  24  25
ENDBRANCH  16  24
ENDBRANCH   1  21
BRANCH  14  30
ATOM     30  N   UNL     1       1.088   3.576   0.008  0.00  0.00    -0.328 N 
ATOM     31  H   UNL     1       0.230   4.030   0.017  0.00  0.00    +0.145 HD
ATOM     32  H   UNL     1       1.909   4.092   0.003  0.00  0.00    +0.145 HD
ENDBRANCH  14  30
BRANCH  15  33
ATOM     33  C   UNL     1      -1.272   2.192   0.020  0.00  0.00    +0.101 C 
ATOM     34  N   UNL     1      -2.266   2.742   0.028  0.00  0.00    -0.191 NA
ENDBRANCH  15  33
TORSDOF 9
