REMARK  Name = ZINC19300855
REMARK  8 active torsions:
REMARK  status: ('A' for Active; 'I' for Inactive)
REMARK    1  A    between atoms: C_1  and  C_2
REMARK    2  A    between atoms: C_3  and  C_25
REMARK    3  A    between atoms: C_4  and  C_16
REMARK    4  A    between atoms: C_10  and  C_14
REMARK    5  A    between atoms: C_10  and  C_15
REMARK    6  A    between atoms: C_19  and  N_22
REMARK    7  A    between atoms: C_25  and  O_27
REMARK    8  A    between atoms: O_27  and  C_28
REMARK                            x       y       z     vdW  Elec       q    Type
REMARK                         _______ _______ _______ _____ _____    ______ ____
ROOT
ATOM      1  C   UNL     1       0.180  -4.191  -0.839  0.00  0.00    +0.061 C 
ATOM      2  C   UNL     1       0.056  -2.752  -0.409  0.00  0.00    +0.016 C 
ATOM      3  C   UNL     1      -1.153  -2.163  -0.390  0.00  0.00    +0.065 C 
ATOM      4  C   UNL     1      -1.316  -0.735   0.040  0.00  0.00    +0.092 C 
ATOM      5  C   UNL     1       0.002  -0.004   0.002  0.00  0.00    +0.024 C 
ATOM      6  C   UNL     1       1.167  -0.685  -0.034  0.00  0.00    +0.016 C 
ATOM      7  N   UNL     1       1.172  -2.054  -0.042  0.00  0.00    -0.321 N 
ATOM      8  C   UNL     1       2.490   0.040  -0.069  0.00  0.00    +0.058 C 
ATOM      9  C   UNL     1       2.365   1.374   0.670  0.00  0.00    -0.023 C 
ATOM     10  C   UNL     1       1.260   2.198   0.002  0.00  0.00    +0.086 C 
ATOM     11  C   UNL     1      -0.017   1.402   0.010  0.00  0.00    +0.162 C 
ATOM     12  O   UNL     1      -1.083   1.984   0.018  0.00  0.00    -0.292 OA
ATOM     13  C   UNL     1       2.002   1.118   2.134  0.00  0.00    +0.011 C 
ATOM     14  C   UNL     1       3.693   2.130   0.595  0.00  0.00    +0.011 C 
ATOM     15  H   UNL     1       2.086  -2.592   0.250  0.00  0.00    +0.152 HD
ENDROOT
BRANCH   4  16
ATOM     16  C   UNL     1      -1.861  -0.701   1.444  0.00  0.00    -0.035 A 
ATOM     17  C   UNL     1      -1.138  -1.263   2.480  0.00  0.00    +0.007 A 
ATOM     18  C   UNL     1      -1.636  -1.227   3.769  0.00  0.00    +0.033 A 
ATOM     19  C   UNL     1      -2.861  -0.639   4.021  0.00  0.00    +0.126 A 
ATOM     20  C   UNL     1      -3.587  -0.082   2.984  0.00  0.00    +0.033 A 
ATOM     21  C   UNL     1      -3.087  -0.113   1.696  0.00  0.00    +0.007 A 
BRANCH  19  22
ATOM     22  N   UNL     1      -3.397  -0.606   5.400  0.00  0.00    +0.056 N 
ATOM     23  O   UNL     1      -4.477  -0.088   5.622  0.00  0.00    -0.126 OA
ATOM     24  O   UNL     1      -2.758  -1.097   6.314  0.00  0.00    -0.126 OA
ENDBRANCH  19  22
ENDBRANCH   4  16
BRANCH   3  25
ATOM     25  C   UNL     1      -2.292  -2.904  -0.782  0.00  0.00    +0.337 C 
ATOM     26  O   UNL     1      -2.172  -4.064  -1.133  0.00  0.00    -0.245 OA
BRANCH  25  27
ATOM     27  O   UNL     1      -3.511  -2.326  -0.768  0.00  0.00    -0.465 OA
ATOM     28  C   UNL     1      -4.617  -3.134  -1.176  0.00  0.00    +0.280 C 
ENDBRANCH  25  27
ENDBRANCH   3  25
TORSDOF 4
