REMARK  Name = ZINC66244031
REMARK  7 active torsions:
REMARK  status: ('A' for Active; 'I' for Inactive)
REMARK    1  A    between atoms: C_1  and  C_2
REMARK    2  A    between atoms: N_5  and  C_11
REMARK    3  A    between atoms: C_7  and  C_10
REMARK    4  A    between atoms: C_11  and  C_12
REMARK    5  A    between atoms: C_17  and  C_18
REMARK    6  A    between atoms: C_18  and  N_19
REMARK    7  A    between atoms: N_22  and  C_23
REMARK                            x       y       z     vdW  Elec       q    Type
REMARK                         _______ _______ _______ _____ _____    ______ ____
ROOT
ATOM      1  C   UNL     1       3.755   0.236  -3.201  0.00  0.00    -0.029 A 
ATOM      2  C   UNL     1       4.167   1.438  -3.746  0.00  0.00    +0.005 A 
ATOM      3  C   UNL     1       5.224   2.126  -3.181  0.00  0.00    +0.000 A 
ATOM      4  C   UNL     1       5.869   1.613  -2.071  0.00  0.00    +0.000 A 
ATOM      5  C   UNL     1       5.457   0.411  -1.526  0.00  0.00    +0.006 A 
ATOM      6  C   UNL     1       4.396  -0.275  -2.089  0.00  0.00    -0.024 A 
ENDROOT
BRANCH   1   7
ATOM      7  C   UNL     1       2.603  -0.514  -3.817  0.00  0.00    +0.120 C 
BRANCH   7  11
ATOM      8  C   UNL     1       3.597  -4.421  -5.165  0.00  0.00    +0.039 C 
ATOM      9  C   UNL     1       2.632  -3.582  -6.004  0.00  0.00    +0.130 C 
ATOM     10  C   UNL     1       2.041  -2.466  -5.138  0.00  0.00    +0.116 C 
ATOM     11  N   UNL     1       3.120  -1.569  -4.699  0.00  0.00    -0.293 NA
ATOM     12  C   UNL     1       3.822  -0.993  -5.855  0.00  0.00    +0.116 C 
ATOM     13  C   UNL     1       4.395  -2.124  -6.713  0.00  0.00    +0.130 C 
ATOM     14  O   UNL     1       3.336  -3.003  -7.106  0.00  0.00    -0.371 OA
ATOM     15  C   UNL     1       5.058  -1.534  -7.959  0.00  0.00    +0.039 C 
ENDBRANCH   7  11
ENDBRANCH   1   7
BRANCH   6  16
ATOM     16  C   UNL     1       3.943  -1.582  -1.492  0.00  0.00    +0.151 C 
BRANCH  16  17
ATOM     17  N   UNL     1       4.565  -2.692  -2.217  0.00  0.00    -0.353 N 
ATOM     18  C   UNL     1       4.393  -3.984  -1.777  0.00  0.00    +0.173 C 
ATOM     19  N   UNL     1       3.734  -4.215  -0.677  0.00  0.00    -0.371 N 
ATOM     20  N   UNL     1       4.917  -5.032  -2.499  0.00  0.00    -0.328 N 
ATOM     21  H   UNL     1       5.098  -2.517  -3.009  0.00  0.00    +0.163 HD
ATOM     22  H   UNL     1       3.693  -5.114  -0.316  0.00  0.00    +0.159 HD
ATOM     23  H   UNL     1       5.487  -4.858  -3.264  0.00  0.00    +0.169 HD
ATOM     24  H   UNL     1       3.285  -3.487  -0.218  0.00  0.00    +0.159 HD
BRANCH  20  25
ATOM     25  C   UNL     1       4.628  -6.350  -2.129  0.00  0.00    +0.042 A 
ATOM     26  C   UNL     1       3.349  -6.689  -1.704  0.00  0.00    +0.026 A 
ATOM     27  C   UNL     1       3.067  -7.990  -1.340  0.00  0.00    +0.002 A 
ATOM     28  C   UNL     1       4.055  -8.956  -1.397  0.00  0.00    +0.000 A 
ATOM     29  C   UNL     1       5.329  -8.622  -1.819  0.00  0.00    +0.002 A 
ATOM     30  C   UNL     1       5.616  -7.323  -2.190  0.00  0.00    +0.026 A 
ENDBRANCH  20  25
ENDBRANCH  16  17
ENDBRANCH   6  16
TORSDOF 5
