REMARK  Name = ZINC08791252
REMARK  5 active torsions:
REMARK  status: ('A' for Active; 'I' for Inactive)
REMARK    1  A    between atoms: C_2  and  C_3
REMARK    2  A    between atoms: C_3  and  N_4
REMARK    3  A    between atoms: C_5  and  C_7
REMARK    4  A    between atoms: C_12  and  N_13
REMARK    5  A    between atoms: C_29  and  C_34
REMARK                            x       y       z     vdW  Elec       q    Type
REMARK                         _______ _______ _______ _____ _____    ______ ____
ROOT
ATOM      1  N   UNL     1      -1.318   2.074   0.900  0.00  0.00    -0.192 N 
ATOM      2  C   UNL     1      -0.148   1.434   1.230  0.00  0.00    +0.248 C 
ATOM      3  O   UNL     1       0.323   1.251   2.332  0.00  0.00    -0.273 OA
ATOM      4  C   UNL     1       0.433   0.992  -0.098  0.00  0.00    +0.170 C 
ATOM      5  C   UNL     1       1.795   1.662  -0.312  0.00  0.00    +0.069 C 
ATOM      6  C   UNL     1       2.088   1.739  -1.789  0.00  0.00    -0.015 A 
ATOM      7  C   UNL     1       3.381   1.927  -2.423  0.00  0.00    +0.003 A 
ATOM      8  C   UNL     1       4.671   2.081  -1.908  0.00  0.00    +0.010 A 
ATOM      9  C   UNL     1       5.686   2.244  -2.819  0.00  0.00    +0.001 A 
ATOM     10  C   UNL     1       5.455   2.256  -4.185  0.00  0.00    +0.002 A 
ATOM     11  C   UNL     1       4.187   2.106  -4.721  0.00  0.00    +0.026 A 
ATOM     12  C   UNL     1       3.138   1.938  -3.820  0.00  0.00    +0.047 A 
ATOM     13  N   UNL     1       1.796   1.766  -3.999  0.00  0.00    -0.356 N 
ATOM     14  H   UNL     1       1.346   1.733  -4.858  0.00  0.00    +0.166 HD
ATOM     15  C   UNL     1       1.179   1.644  -2.782  0.00  0.00    +0.046 A 
ATOM     16  C   UNL     1      -0.302   1.426  -2.546  0.00  0.00    +0.155 C 
ATOM     17  N   UNL     1      -0.509   1.542  -1.097  0.00  0.00    -0.260 N 
ATOM     18  C   UNL     1      -1.509   2.117  -0.426  0.00  0.00    +0.317 C 
ATOM     19  O   UNL     1      -2.479   2.623  -0.956  0.00  0.00    -0.252 OA
ENDROOT
BRANCH  16  20
ATOM     20  C   UNL     1      -0.705   0.053  -3.021  0.00  0.00    -0.021 A 
ATOM     21  C   UNL     1      -0.202  -1.070  -2.392  0.00  0.00    +0.008 A 
ATOM     22  C   UNL     1      -0.574  -2.329  -2.823  0.00  0.00    +0.038 A 
ATOM     23  C   UNL     1      -1.444  -2.466  -3.892  0.00  0.00    +0.123 A 
ATOM     24  C   UNL     1      -1.943  -1.339  -4.524  0.00  0.00    +0.038 A 
ATOM     25  C   UNL     1      -1.574  -0.081  -4.088  0.00  0.00    +0.008 A 
ATOM     26  F   UNL     1      -1.805  -3.696  -4.317  0.00  0.00    -0.205 F 
ENDBRANCH  16  20
BRANCH   1  32
ATOM     27  C   UNL     1      -2.032   3.950   2.261  0.00  0.00    +0.059 A 
ATOM     28  C   UNL     1      -2.918   4.491   3.195  0.00  0.00    +0.015 A 
ATOM     29  C   UNL     1      -3.941   3.716   3.700  0.00  0.00    +0.001 A 
ATOM     30  C   UNL     1      -4.097   2.405   3.282  0.00  0.00    +0.002 A 
ATOM     31  C   UNL     1      -3.231   1.859   2.356  0.00  0.00    +0.025 A 
ATOM     32  C   UNL     1      -2.196   2.624   1.837  0.00  0.00    +0.058 A 
BRANCH  27  34
ATOM     33  N   UNL     1      -0.777   6.046   2.131  0.00  0.00    -0.308 N 
ATOM     34  C   UNL     1      -0.931   4.772   1.721  0.00  0.00    +0.246 C 
ATOM     35  O   UNL     1      -0.164   4.299   0.905  0.00  0.00    -0.270 OA
ATOM     36  H   UNL     1      -1.390   6.423   2.782  0.00  0.00    +0.149 HD
BRANCH  33  37
ATOM     37  C   UNL     1       0.315   6.862   1.595  0.00  0.00    +0.131 C 
BRANCH  37  39
ATOM     38  C   UNL     1       1.319   8.719   2.820  0.00  0.00    +0.005 C 
ATOM     39  C   UNL     1       0.265   8.236   2.211  0.00  0.00    -0.016 C 
ENDBRANCH  37  39
ENDBRANCH  33  37
ENDBRANCH  27  34
ENDBRANCH   1  32
TORSDOF 5
