REMARK  Name = ZINC15981622
REMARK  16 active torsions:
REMARK  status: ('A' for Active; 'I' for Inactive)
REMARK    1  A    between atoms: C_1  and  C_2
REMARK    2  A    between atoms: C_2  and  N_3
REMARK    3  A    between atoms: N_3  and  C_4
REMARK    4  A    between atoms: N_3  and  C_6
REMARK    5  A    between atoms: C_4  and  C_5
REMARK    6  A    between atoms: C_6  and  C_7
REMARK    7  A    between atoms: C_7  and  C_8
REMARK    8  A    between atoms: C_8  and  C_9
REMARK    9  A    between atoms: C_9  and  C_11
REMARK   10  A    between atoms: C_9  and  N_12
REMARK   11  A    between atoms: C_13  and  C_24
REMARK   12  A    between atoms: N_17  and  C_18
REMARK   13  A    between atoms: C_26  and  O_32
REMARK   14  A    between atoms: C_29  and  O_30
REMARK   15  A    between atoms: O_30  and  C_31
REMARK   16  A    between atoms: O_32  and  C_33
REMARK                            x       y       z     vdW  Elec       q    Type
REMARK                         _______ _______ _______ _____ _____    ______ ____
ROOT
ATOM      1  N   UNL     1       0.353   3.402   0.456  0.00  0.00    -0.318 N 
ATOM      2  C   UNL     1       0.663   2.087   0.240  0.00  0.00    +0.061 A 
ATOM      3  C   UNL     1      -0.323   1.169   0.189  0.00  0.00    +0.075 A 
ATOM      4  S   UNL     1      -1.780   2.169   0.446  0.00  0.00    -0.059 S 
ATOM      5  C   UNL     1      -0.968   3.751   0.615  0.00  0.00    +0.152 A 
ATOM      6  N   UNL     1      -1.496   4.941   0.830  0.00  0.00    -0.334 N 
ATOM      7  H   UNL     1      -0.857   5.836   0.822  0.00  0.00    +0.168 HD
ENDROOT
BRANCH   6   8
ATOM      8  C   UNL     1      -2.838   5.061   1.064  0.00  0.00    +0.059 A 
ATOM      9  C   UNL     1      -3.354   4.894   2.356  0.00  0.00    +0.028 A 
ATOM     10  C   UNL     1      -4.719   5.026   2.539  0.00  0.00    +0.022 A 
ATOM     11  C   UNL     1      -5.523   5.316   1.451  0.00  0.00    +0.111 A 
ATOM     12  N   UNL     1      -5.011   5.468   0.245  0.00  0.00    -0.261 NA
ATOM     13  C   UNL     1      -3.718   5.358   0.020  0.00  0.00    +0.136 A 
ENDBRANCH   6   8
BRANCH   2  14
ATOM     14  C   UNL     1       2.072   1.676   0.064  0.00  0.00    +0.044 A 
ATOM     15  C   UNL     1       3.044   2.098   0.972  0.00  0.00    +0.059 A 
ATOM     16  C   UNL     1       4.361   1.704   0.805  0.00  0.00    +0.121 A 
ATOM     17  C   UNL     1       4.716   0.899  -0.269  0.00  0.00    +0.049 A 
ATOM     18  C   UNL     1       3.759   0.482  -1.175  0.00  0.00    +0.050 A 
ATOM     19  C   UNL     1       2.438   0.865  -1.016  0.00  0.00    +0.129 A 
BRANCH  19  20
ATOM     20  O   UNL     1       1.498   0.453  -1.908  0.00  0.00    -0.494 OA
ATOM     21  C   UNL     1       1.943  -0.372  -2.986  0.00  0.00    +0.277 C 
ENDBRANCH  19  20
BRANCH  16  22
ATOM     22  O   UNL     1       5.308   2.110   1.692  0.00  0.00    -0.495 OA
ATOM     23  C   UNL     1       6.647   1.671   1.456  0.00  0.00    +0.277 C 
ENDBRANCH  16  22
ENDBRANCH   2  14
BRANCH   1  24
ATOM     24  C   UNL     1       1.406   4.419   0.516  0.00  0.00    +0.087 C 
ATOM     25  C   UNL     1       0.780   5.787   0.793  0.00  0.00    +0.031 C 
BRANCH  24  26
ATOM     26  C   UNL     1       2.152   4.461  -0.819  0.00  0.00    +0.023 C 
BRANCH  26  27
ATOM     27  C   UNL     1       3.322   5.441  -0.719  0.00  0.00    -0.017 C 
BRANCH  27  28
ATOM     28  C   UNL     1       4.068   5.483  -2.055  0.00  0.00    -0.079 C 
BRANCH  28  29
ATOM     29  N   UNL     1       5.192   6.424  -1.959  0.00  0.00    +0.379 N 
ATOM     30  H   UNL     1       4.801   7.379  -1.579  0.00  0.00    -0.082 HD
BRANCH  29  32
ATOM     31  C   UNL     1       6.833   4.654  -1.545  0.00  0.00    -0.017 C 
ATOM     32  C   UNL     1       6.203   5.941  -1.009  0.00  0.00    -0.082 C 
ENDBRANCH  29  32
BRANCH  29  33
ATOM     33  C   UNL     1       5.786   6.671  -3.279  0.00  0.00    -0.082 C 
ATOM     34  C   UNL     1       6.840   7.774  -3.166  0.00  0.00    -0.017 C 
ENDBRANCH  29  33
ENDBRANCH  28  29
ENDBRANCH  27  28
ENDBRANCH  26  27
ENDBRANCH  24  26
ENDBRANCH   1  24
TORSDOF 11
