REMARK  Name = ZINC43528237
REMARK  13 active torsions:
REMARK  status: ('A' for Active; 'I' for Inactive)
REMARK    1  A    between atoms: C_1  and  C_2
REMARK    2  A    between atoms: C_2  and  C_3
REMARK    3  A    between atoms: C_3  and  C_4
REMARK    4  A    between atoms: C_3  and  C_6
REMARK    5  A    between atoms: C_4  and  C_5
REMARK    6  A    between atoms: C_8  and  C_18
REMARK    7  A    between atoms: C_10  and  C_12
REMARK    8  A    between atoms: C_27  and  C_29
REMARK    9  A    between atoms: C_29  and  N_30
REMARK   10  A    between atoms: N_30  and  C_31
REMARK   11  A    between atoms: C_31  and  C_32
REMARK   12  A    between atoms: C_35  and  C_37
REMARK   13  A    between atoms: C_37  and  O_38
REMARK                            x       y       z     vdW  Elec       q    Type
REMARK                         _______ _______ _______ _____ _____    ______ ____
ROOT
ATOM      1  C   UNL     1       2.062  -5.342  -0.184  0.00  0.00    +0.024 C 
ATOM      2  C   UNL     1       3.488  -4.794  -0.096  0.00  0.00    -0.069 C 
ATOM      3  N   UNL     1       3.895  -4.679   1.307  0.00  0.00    +0.381 N 
ATOM      4  C   UNL     1       3.021  -3.746   2.022  0.00  0.00    -0.078 C 
ATOM      5  C   UNL     1       1.579  -4.260   2.004  0.00  0.00    -0.015 C 
ATOM      6  C   UNL     1       1.535  -5.590   1.235  0.00  0.00    -0.007 C 
ATOM      7  C   UNL     1       2.474  -6.582   1.934  0.00  0.00    -0.013 C 
ATOM      8  C   UNL     1       3.889  -5.992   1.955  0.00  0.00    -0.086 C 
ATOM      9  H   UNL     1       4.834  -4.312   1.338  0.00  0.00    -0.082 HD
ENDROOT
BRANCH   1  12
ATOM     10  C   UNL     1       0.550  -2.094  -1.374  0.00  0.00    +0.048 A 
ATOM     11  C   UNL     1       1.386  -2.981  -0.711  0.00  0.00    +0.047 A 
ATOM     12  C   UNL     1       1.179  -4.341  -0.883  0.00  0.00    +0.047 A 
ATOM     13  N   UNL     1       0.197  -4.749  -1.669  0.00  0.00    -0.232 NA
ATOM     14  C   UNL     1      -0.584  -3.875  -2.288  0.00  0.00    +0.160 A 
ATOM     15  N   UNL     1      -0.416  -2.568  -2.140  0.00  0.00    -0.232 NA
BRANCH  14  16
ATOM     16  C   UNL     1      -1.677  -4.371  -3.161  0.00  0.00    +0.022 A 
ATOM     17  C   UNL     1      -1.893  -5.741  -3.333  0.00  0.00    +0.031 A 
ATOM     18  C   UNL     1      -2.920  -6.159  -4.154  0.00  0.00    +0.111 A 
ATOM     19  N   UNL     1      -3.691  -5.285  -4.772  0.00  0.00    -0.263 NA
ATOM     20  C   UNL     1      -3.521  -3.984  -4.637  0.00  0.00    +0.111 A 
ATOM     21  C   UNL     1      -2.521  -3.481  -3.830  0.00  0.00    +0.031 A 
ENDBRANCH  14  16
BRANCH  10  22
ATOM     22  C   UNL     1       0.739  -0.607  -1.217  0.00  0.00    +0.037 C 
BRANCH  22  24
ATOM     23  C   UNL     1      -1.499  -0.318  -0.142  0.00  0.00    +0.004 C 
ATOM     24  C   UNL     1       0.009  -0.130   0.041  0.00  0.00    +0.006 C 
ENDBRANCH  22  24
BRANCH  22  25
ATOM     25  C   UNL     1       2.230  -0.292  -1.091  0.00  0.00    +0.006 C 
ATOM     26  C   UNL     1       2.432   1.225  -1.078  0.00  0.00    +0.004 C 
ENDBRANCH  22  25
ENDBRANCH  10  22
ENDBRANCH   1  12
BRANCH   8  27
ATOM     27  C   UNL     1       4.356  -5.845   3.404  0.00  0.00    -0.098 C 
BRANCH  27  28
ATOM     28  N   UNL     1       5.668  -5.184   3.431  0.00  0.00    +0.383 N 
ATOM     29  H   UNL     1       6.335  -5.739   2.917  0.00  0.00    -0.085 HD
ATOM     30  H   UNL     1       5.593  -4.271   3.008  0.00  0.00    -0.085 HD
BRANCH  28  31
ATOM     31  C   UNL     1       6.117  -5.043   4.822  0.00  0.00    -0.007 C 
BRANCH  31  32
ATOM     32  C   UNL     1       7.463  -4.365   4.850  0.00  0.00    +0.089 A 
ATOM     33  C   UNL     1       7.673  -3.039   4.929  0.00  0.00    +0.043 A 
ATOM     34  C   UNL     1       9.074  -2.846   4.926  0.00  0.00    +0.047 A 
ATOM     35  C   UNL     1       9.635  -4.065   4.844  0.00  0.00    +0.130 A 
ATOM     36  O   UNL     1       8.654  -4.982   4.804  0.00  0.00    -0.464 OA
BRANCH  35  37
ATOM     37  C   UNL     1      11.114  -4.354   4.809  0.00  0.00    +0.230 C 
BRANCH  37  38
ATOM     38  O   UNL     1      11.597  -4.529   6.143  0.00  0.00    -0.387 OA
ATOM     39  H   UNL     1      12.543  -4.719   6.197  0.00  0.00    +0.210 HD
ENDBRANCH  37  38
ENDBRANCH  35  37
ENDBRANCH  31  32
ENDBRANCH  28  31
ENDBRANCH  27  28
ENDBRANCH   8  27
TORSDOF 11
