REMARK  Name = ZINC02247301
REMARK  9 active torsions:
REMARK  status: ('A' for Active; 'I' for Inactive)
REMARK    1  A    between atoms: C_1  and  C_2
REMARK    2  A    between atoms: C_2  and  O_3
REMARK    3  A    between atoms: O_3  and  C_4
REMARK    4  A    between atoms: C_4  and  C_6
REMARK    5  A    between atoms: C_7  and  N_19
REMARK    6  A    between atoms: C_20  and  C_22
REMARK    7  A    between atoms: C_22  and  N_56
REMARK    8  A    between atoms: C_24  and  C_31
REMARK    9  A    between atoms: C_27  and  C_30
REMARK                            x       y       z     vdW  Elec       q    Type
REMARK                         _______ _______ _______ _____ _____    ______ ____
ROOT
ATOM      1  C   UNL     1       1.756  -0.127  -7.319  0.00  0.00    +0.147 A 
ATOM      2  C   UNL     1       1.386  -0.200  -5.991  0.00  0.00    +0.073 A 
ATOM      3  C   UNL     1      -0.051   0.071  -5.941  0.00  0.00    +0.025 A 
ATOM      4  C   UNL     1      -0.980   0.144  -4.895  0.00  0.00    +0.061 A 
ATOM      5  C   UNL     1      -2.298   0.433  -5.168  0.00  0.00    +0.167 A 
ATOM      6  C   UNL     1      -2.711   0.658  -6.487  0.00  0.00    +0.168 A 
ATOM      7  C   UNL     1      -1.801   0.595  -7.525  0.00  0.00    +0.075 A 
ATOM      8  C   UNL     1      -0.465   0.304  -7.266  0.00  0.00    +0.053 A 
ATOM      9  N   UNL     1       0.637   0.178  -8.082  0.00  0.00    -0.347 N 
ATOM     10  H   UNL     1       0.632   0.285  -9.046  0.00  0.00    +0.166 HD
ATOM     11  O   UNL     1      -4.050   0.920  -6.482  0.00  0.00    -0.453 OA
ATOM     12  C   UNL     1      -4.531   0.450  -5.209  0.00  0.00    +0.466 C 
ATOM     13  O   UNL     1      -3.382   0.555  -4.347  0.00  0.00    -0.453 OA
ENDROOT
BRANCH   2  14
ATOM     14  N   UNL     1       2.216  -0.484  -4.912  0.00  0.00    -0.285 N 
ATOM     15  C   UNL     1       2.051   0.170  -3.744  0.00  0.00    +0.201 C 
ATOM     16  O   UNL     1       1.117   0.930  -3.602  0.00  0.00    -0.278 OA
ATOM     17  H   UNL     1       2.915  -1.151  -4.999  0.00  0.00    +0.155 HD
BRANCH  15  18
ATOM     18  C   UNL     1       3.026  -0.045  -2.616  0.00  0.00    +0.019 C 
BRANCH  18  26
ATOM     19  C   UNL     1       2.660   2.156  -1.675  0.00  0.00    -0.075 C 
ATOM     20  C   UNL     1       2.056   2.904  -0.485  0.00  0.00    -0.031 C 
ATOM     21  C   UNL     1       2.826   2.537   0.787  0.00  0.00    +0.003 C 
ATOM     22  C   UNL     1       2.772   1.020   0.987  0.00  0.00    -0.031 C 
ATOM     23  C   UNL     1       3.355   0.326  -0.246  0.00  0.00    -0.075 C 
ATOM     24  C   UNL     1       1.318   0.582   1.180  0.00  0.00    +0.005 C 
ATOM     25  C   UNL     1       2.156   4.412  -0.725  0.00  0.00    +0.005 C 
ATOM     26  N   UNL     1       2.554   0.701  -1.431  0.00  0.00    +0.386 N 
ATOM     27  H   UNL     1       1.571   0.463  -1.258  0.00  0.00    -0.081 HD
ENDBRANCH  18  26
ENDBRANCH  15  18
ENDBRANCH   2  14
BRANCH   1  28
ATOM     28  C   UNL     1       3.066  -0.329  -7.822  0.00  0.00    +0.358 C 
ATOM     29  O   UNL     1       3.957  -0.681  -7.072  0.00  0.00    -0.243 OA
BRANCH  28  30
ATOM     30  O   UNL     1       3.324  -0.130  -9.131  0.00  0.00    -0.460 OA
BRANCH  30  32
ATOM     31  C   UNL     1       4.765  -0.079 -11.071  0.00  0.00    +0.048 C 
ATOM     32  C   UNL     1       4.666  -0.352  -9.569  0.00  0.00    +0.229 C 
ENDBRANCH  30  32
ENDBRANCH  28  30
ENDBRANCH   1  28
TORSDOF 6
