REMARK  Name = ZINC58990697
REMARK  8 active torsions:
REMARK  status: ('A' for Active; 'I' for Inactive)
REMARK    1  A    between atoms: C_1  and  C_2
REMARK    2  A    between atoms: C_5  and  C_7
REMARK    3  A    between atoms: N_8  and  N_9
REMARK    4  A    between atoms: C_10  and  C_12
REMARK    5  A    between atoms: C_12  and  S_13
REMARK    6  A    between atoms: S_13  and  C_14
REMARK    7  A    between atoms: C_17  and  C_20
REMARK    8  A    between atoms: N_18  and  N_19
REMARK                            x       y       z     vdW  Elec       q    Type
REMARK                         _______ _______ _______ _____ _____    ______ ____
ROOT
ATOM      1  C   UNL     1       8.767  -5.978  -0.073  0.00  0.00    +0.209 A 
ATOM      2  N   UNL     1       8.306  -7.209  -0.083  0.00  0.00    -0.121 NA
ATOM      3  N   UNL     1       9.282  -8.045  -0.090  0.00  0.00    -0.127 NA
ATOM      4  C   UNL     1      10.425  -7.400  -0.085  0.00  0.00    +0.182 A 
ATOM      5  N   UNL     1      10.131  -6.056  -0.080  0.00  0.00    -0.224 N 
ENDROOT
BRANCH   4   6
ATOM      6  C   UNL     1      11.775  -8.004  -0.091  0.00  0.00    +0.021 A 
ATOM      7  C   UNL     1      12.890  -7.230   0.234  0.00  0.00    +0.013 A 
ATOM      8  C   UNL     1      14.147  -7.799   0.227  0.00  0.00    +0.016 A 
ATOM      9  C   UNL     1      14.303  -9.134  -0.101  0.00  0.00    +0.018 A 
ATOM     10  C   UNL     1      13.201  -9.907  -0.425  0.00  0.00    +0.016 A 
ATOM     11  C   UNL     1      11.938  -9.352  -0.415  0.00  0.00    +0.013 A 
ATOM     12 BR   UNL     1      16.029  -9.906  -0.109  0.00  0.00    -0.050 Br
ENDBRANCH   4   6
BRANCH   5  13
ATOM     13  N   UNL     1      11.017  -5.017  -0.079  0.00  0.00    -0.295 N 
ATOM     14  H   UNL     1      11.257  -4.747   0.863  0.00  0.00    +0.163 HD
ATOM     15  H   UNL     1      11.843  -5.246  -0.611  0.00  0.00    +0.163 HD
ENDBRANCH   5  13
BRANCH   1  16
ATOM     16  S   UNL     1       7.805  -4.502  -0.060  0.00  0.00    -0.075 S 
BRANCH  16  17
ATOM     17  C   UNL     1       6.091  -5.096  -0.056  0.00  0.00    +0.174 C 
BRANCH  17  19
ATOM     18  N   UNL     1       3.819  -4.118  -0.039  0.00  0.00    -0.206 N 
ATOM     19  C   UNL     1       5.151  -3.917  -0.045  0.00  0.00    +0.242 C 
ATOM     20  O   UNL     1       5.595  -2.788  -0.041  0.00  0.00    -0.273 OA
ATOM     21  H   UNL     1       3.464  -5.021  -0.042  0.00  0.00    +0.177 HD
BRANCH  18  23
ATOM     22  C   UNL     1       1.659  -3.217  -0.024  0.00  0.00    +0.176 C 
ATOM     23  N   UNL     1       2.945  -3.023  -0.029  0.00  0.00    -0.185 NA
BRANCH  22  28
ATOM     24  C   UNL     1      -0.018   1.503   0.010  0.00  0.00    +0.086 C 
ATOM     25  C   UNL     1       0.002  -0.004   0.002  0.00  0.00    +0.103 A 
ATOM     26  C   UNL     1      -1.084  -0.804   0.003  0.00  0.00    +0.045 A 
ATOM     27  C   UNL     1      -0.619  -2.132  -0.007  0.00  0.00    +0.051 A 
ATOM     28  C   UNL     1       0.745  -2.071  -0.013  0.00  0.00    +0.148 A 
ATOM     29  O   UNL     1       1.104  -0.771  -0.013  0.00  0.00    -0.459 OA
ENDBRANCH  22  28
ENDBRANCH  18  23
ENDBRANCH  17  19
ENDBRANCH  16  17
ENDBRANCH   1  16
TORSDOF 7
