REMARK  Name = ZINC12330015
REMARK  2 active torsions:
REMARK  status: ('A' for Active; 'I' for Inactive)
REMARK    1  A    between atoms: C_12  and  C_14
REMARK    2  A    between atoms: C_23  and  C_25
REMARK                            x       y       z     vdW  Elec       q    Type
REMARK                         _______ _______ _______ _____ _____    ______ ____
ROOT
ATOM      1  C   UNL     1     -12.759   0.787   1.381  0.00  0.00    +0.082 C 
ATOM      2  C   UNL     1     -12.165  -0.605   1.602  0.00  0.00    +0.021 C 
ATOM      3  C   UNL     1     -11.398   0.434   0.783  0.00  0.00    -0.015 C 
ATOM      4  C   UNL     1     -11.318   0.227  -0.732  0.00  0.00    +0.026 C 
ATOM      5  C   UNL     1     -10.071  -0.607  -1.051  0.00  0.00    +0.108 C 
ATOM      6  N   UNL     1      -8.910   0.009  -0.396  0.00  0.00    -0.297 N 
ATOM      7  C   UNL     1      -8.929   0.209   1.058  0.00  0.00    +0.108 C 
ATOM      8  C   UNL     1     -10.155   1.064   1.419  0.00  0.00    +0.026 C 
ATOM      9  C   UNL     1      -7.837   0.382  -1.121  0.00  0.00    +0.247 C 
ATOM     10  O   UNL     1      -7.871   0.319  -2.335  0.00  0.00    -0.270 OA
ENDROOT
BRANCH   1  22
ATOM     11  C   UNL     1     -15.737   8.369   0.453  0.00  0.00    +0.005 A 
ATOM     12  C   UNL     1     -16.603   8.632   1.507  0.00  0.00    +0.018 A 
ATOM     13  C   UNL     1     -16.512   7.881   2.661  0.00  0.00    +0.084 A 
ATOM     14  C   UNL     1     -14.772   6.638   1.792  0.00  0.00    +0.099 A 
ATOM     15  C   UNL     1     -14.804   7.359   0.603  0.00  0.00    +0.042 A 
ATOM     16  N   UNL     1     -13.843   5.617   1.954  0.00  0.00    -0.314 N 
ATOM     17  C   UNL     1     -13.973   4.991   3.276  0.00  0.00    +0.125 C 
ATOM     18  C   UNL     1     -12.823   4.000   3.485  0.00  0.00    +0.126 C 
ATOM     19  N   UNL     1     -12.803   3.062   2.352  0.00  0.00    -0.298 N 
ATOM     20  C   UNL     1     -12.805   3.616   0.989  0.00  0.00    +0.126 C 
ATOM     21  C   UNL     1     -13.962   4.622   0.879  0.00  0.00    +0.125 C 
ATOM     22  C   UNL     1     -12.779   1.730   2.557  0.00  0.00    +0.219 C 
ATOM     23  O   UNL     1     -12.774   1.291   3.687  0.00  0.00    -0.275 OA
ATOM     24  N   UNL     1     -15.611   6.878   2.841  0.00  0.00    -0.350 N 
ATOM     25  H   UNL     1     -15.566   6.335   3.711  0.00  0.00    +0.166 HD
ENDBRANCH   1  22
BRANCH   9  26
ATOM     26  C   UNL     1      -6.618   0.866  -0.442  0.00  0.00    +0.038 A 
ATOM     27  C   UNL     1      -6.024   0.070   0.544  0.00  0.00    +0.015 A 
ATOM     28  C   UNL     1      -4.893   0.457   1.213  0.00  0.00    +0.027 A 
ATOM     29  C   UNL     1      -4.340   1.693   0.876  0.00  0.00    +0.047 A 
ATOM     30  C   UNL     1      -4.934   2.510  -0.123  0.00  0.00    +0.004 A 
ATOM     31  C   UNL     1      -6.085   2.108  -0.799  0.00  0.00    +0.023 A 
ATOM     32  C   UNL     1      -4.110   3.699  -0.209  0.00  0.00    -0.019 A 
ATOM     33  C   UNL     1      -3.112   3.554   0.690  0.00  0.00    +0.020 A 
ATOM     34  N   UNL     1      -3.245   2.356   1.342  0.00  0.00    -0.358 N 
ATOM     35  H   UNL     1      -2.648   2.029   2.034  0.00  0.00    +0.166 HD
ATOM     36  C   UNL     1      -2.029   4.584   0.912  0.00  0.00    +0.053 C 
ATOM     37  C   UNL     1      -2.011   5.542  -0.284  0.00  0.00    +0.006 C 
ATOM     38  C   UNL     1      -3.431   6.047  -0.554  0.00  0.00    +0.005 C 
ATOM     39  C   UNL     1      -4.282   4.898  -1.106  0.00  0.00    +0.037 C 
ENDBRANCH   9  26
TORSDOF 2
