REMARK  Name = ZINC67463117
REMARK  9 active torsions:
REMARK  status: ('A' for Active; 'I' for Inactive)
REMARK    1  A    between atoms: C_1  and  C_2
REMARK    2  A    between atoms: C_2  and  C_3
REMARK    3  A    between atoms: C_2  and  C_4
REMARK    4  A    between atoms: C_4  and  N_5
REMARK    5  A    between atoms: C_6  and  C_8
REMARK    6  A    between atoms: C_8  and  N_9
REMARK    7  A    between atoms: C_15  and  C_18
REMARK    8  A    between atoms: C_18  and  C_20
REMARK    9  A    between atoms: C_18  and  O_27
REMARK                            x       y       z     vdW  Elec       q    Type
REMARK                         _______ _______ _______ _____ _____    ______ ____
ROOT
ATOM      1  N   UNL     1      -3.932  -4.690  -0.250  0.00  0.00    -0.291 N 
ATOM      2  C   UNL     1      -4.163  -6.013  -0.358  0.00  0.00    +0.303 C 
ATOM      3  O   UNL     1      -3.238  -6.778  -0.555  0.00  0.00    -0.253 OA
ATOM      4  N   UNL     1      -5.419  -6.489  -0.247  0.00  0.00    -0.286 N 
ATOM      5  C   UNL     1      -6.559  -5.571  -0.126  0.00  0.00    +0.109 C 
ATOM      6  C   UNL     1      -7.370  -5.953   1.117  0.00  0.00    +0.025 C 
ATOM      7  C   UNL     1      -7.758  -7.431   1.033  0.00  0.00    +0.025 C 
ATOM      8  C   UNL     1      -6.494  -8.292   0.998  0.00  0.00    +0.025 C 
ATOM      9  C   UNL     1      -5.674  -7.936  -0.252  0.00  0.00    +0.109 C 
ATOM     10  H   UNL     1      -4.676  -4.073  -0.167  0.00  0.00    +0.151 HD
ENDROOT
BRANCH   1  11
ATOM     11  C   UNL     1      -2.557  -4.183  -0.259  0.00  0.00    +0.201 C 
BRANCH  11  13
ATOM     12  N   UNL     1      -1.416  -1.994  -0.111  0.00  0.00    -0.314 N 
ATOM     13  C   UNL     1      -2.575  -2.682  -0.126  0.00  0.00    +0.230 C 
ATOM     14  O   UNL     1      -3.631  -2.094  -0.033  0.00  0.00    -0.274 OA
ATOM     15  H   UNL     1      -0.571  -2.464  -0.185  0.00  0.00    +0.149 HD
BRANCH  12  16
ATOM     16  C   UNL     1      -1.433  -0.534   0.018  0.00  0.00    +0.107 C 
BRANCH  16  18
ATOM     17  C   UNL     1      -0.018   1.525   0.018  0.00  0.00    +0.009 C 
ATOM     18  C   UNL     1       0.003  -0.005   0.009  0.00  0.00    -0.000 C 
ATOM     19  C   UNL     1       0.742  -0.513   1.249  0.00  0.00    +0.009 C 
ENDBRANCH  16  18
ENDBRANCH  12  16
ENDBRANCH  11  13
ENDBRANCH   1  11
BRANCH   7  20
ATOM     20  C   UNL     1      -8.597  -7.807   2.256  0.00  0.00    +0.148 C 
BRANCH  20  21
ATOM     21  C   UNL     1      -8.980  -9.263   2.174  0.00  0.00    -0.019 A 
ATOM     22  C   UNL     1      -8.114 -10.233   2.641  0.00  0.00    +0.007 A 
ATOM     23  C   UNL     1      -8.464 -11.568   2.566  0.00  0.00    +0.020 A 
ATOM     24  C   UNL     1      -9.683 -11.933   2.023  0.00  0.00    +0.041 A 
ATOM     25  C   UNL     1     -10.550 -10.961   1.555  0.00  0.00    +0.020 A 
ATOM     26  C   UNL     1     -10.201  -9.627   1.636  0.00  0.00    +0.007 A 
ATOM     27 CL   UNL     1     -10.124 -13.609   1.928  0.00  0.00    -0.084 Cl
ENDBRANCH  20  21
BRANCH  20  28
ATOM     28  O   UNL     1      -7.836  -7.582   3.444  0.00  0.00    -0.387 OA
ATOM     29  H   UNL     1      -7.018  -8.095   3.490  0.00  0.00    +0.210 HD
ENDBRANCH  20  28
ENDBRANCH   7  20
TORSDOF 7
