REMARK  Name = ZINC39227705
REMARK  11 active torsions:
REMARK  status: ('A' for Active; 'I' for Inactive)
REMARK    1  A    between atoms: C_1  and  C_2
REMARK    2  A    between atoms: C_2  and  C_4
REMARK    3  A    between atoms: C_2  and  O_35
REMARK    4  A    between atoms: C_4  and  N_5
REMARK    5  A    between atoms: N_5  and  C_6
REMARK    6  A    between atoms: C_6  and  C_7
REMARK    7  A    between atoms: C_7  and  C_9
REMARK    8  A    between atoms: C_7  and  O_10
REMARK    9  A    between atoms: C_11  and  C_13
REMARK   10  A    between atoms: C_16  and  C_19
REMARK   11  A    between atoms: N_31  and  C_34
REMARK                            x       y       z     vdW  Elec       q    Type
REMARK                         _______ _______ _______ _____ _____    ______ ____
ROOT
ATOM      1  C   UNL     1       1.687  -4.407  -0.359  0.00  0.00    +0.037 A 
ATOM      2  C   UNL     1       0.609  -5.026  -0.998  0.00  0.00    +0.013 A 
ATOM      3  C   UNL     1       0.428  -6.385  -0.880  0.00  0.00    +0.009 A 
ATOM      4  C   UNL     1       1.320  -7.146  -0.123  0.00  0.00    -0.018 A 
ATOM      5  C   UNL     1       2.397  -6.529   0.515  0.00  0.00    +0.009 A 
ATOM      6  C   UNL     1       2.583  -5.170   0.394  0.00  0.00    +0.013 A 
ENDROOT
BRANCH   4   7
ATOM      7  C   UNL     1       1.124  -8.609   0.003  0.00  0.00    -0.017 A 
ATOM      8  C   UNL     1       0.052  -9.230  -0.638  0.00  0.00    +0.012 A 
ATOM      9  C   UNL     1      -0.125 -10.590  -0.515  0.00  0.00    +0.046 A 
ATOM     10  C   UNL     1       0.761 -11.350   0.246  0.00  0.00    +0.124 A 
ATOM     11  C   UNL     1       1.829 -10.736   0.880  0.00  0.00    -0.005 A 
ATOM     12  C   UNL     1       2.013  -9.371   0.758  0.00  0.00    +0.015 A 
ATOM     13  C   UNL     1       2.816 -11.528   1.701  0.00  0.00    +0.043 C 
ATOM     14  C   UNL     1       2.208 -12.883   2.071  0.00  0.00    +0.052 C 
ATOM     15  C   UNL     1       1.615 -13.508   0.803  0.00  0.00    +0.108 C 
ATOM     16  O   UNL     1       0.542 -12.687   0.346  0.00  0.00    -0.486 OA
ATOM     17  C   UNL     1       1.095 -14.911   1.120  0.00  0.00    +0.029 C 
ATOM     18  C   UNL     1       0.579 -15.561  -0.166  0.00  0.00    -0.075 C 
ATOM     19  N   UNL     1       1.669 -15.648  -1.145  0.00  0.00    +0.378 N 
ATOM     20  C   UNL     1       2.119 -14.300  -1.509  0.00  0.00    -0.075 C 
ATOM     21  C   UNL     1       2.696 -13.600  -0.276  0.00  0.00    +0.029 C 
ATOM     22  C   UNL     1       1.192 -16.345  -2.346  0.00  0.00    -0.096 C 
ATOM     23  H   UNL     1       2.439 -16.162  -0.744  0.00  0.00    -0.082 HD
ENDBRANCH   4   7
BRANCH   1  25
ATOM     24  N   UNL     1       0.819  -2.122  -0.460  0.00  0.00    -0.293 N 
ATOM     25  C   UNL     1       1.882  -2.949  -0.485  0.00  0.00    +0.247 C 
ATOM     26  O   UNL     1       3.003  -2.495  -0.612  0.00  0.00    -0.270 OA
BRANCH  24  27
ATOM     27  C   UNL     1       1.006  -0.681  -0.649  0.00  0.00    +0.139 C 
BRANCH  27  29
ATOM     28  C   UNL     1       1.430   1.490   0.512  0.00  0.00    +0.039 C 
ATOM     29  C   UNL     1       1.234  -0.014   0.709  0.00  0.00    +0.129 C 
BRANCH  29  30
ATOM     30  O   UNL     1       0.099  -0.241   1.548  0.00  0.00    -0.391 OA
ATOM     31  H   UNL     1       0.175   0.155   2.427  0.00  0.00    +0.210 HD
ENDBRANCH  29  30
ENDBRANCH  27  29
ENDBRANCH  24  27
BRANCH  24  32
ATOM     32  C   UNL     1      -0.525  -2.663  -0.243  0.00  0.00    +0.139 C 
BRANCH  32  33
ATOM     33  C   UNL     1      -1.291  -2.672  -1.568  0.00  0.00    +0.129 C 
ATOM     34  C   UNL     1      -2.624  -3.401  -1.382  0.00  0.00    +0.039 C 
BRANCH  33  35
ATOM     35  O   UNL     1      -1.538  -1.327  -1.984  0.00  0.00    -0.391 OA
ATOM     36  H   UNL     1      -2.061  -0.811  -1.356  0.00  0.00    +0.210 HD
ENDBRANCH  33  35
ENDBRANCH  32  33
ENDBRANCH  24  32
ENDBRANCH   1  25
TORSDOF 8
