REMARK  Name = ZINC14474071
REMARK  7 active torsions:
REMARK  status: ('A' for Active; 'I' for Inactive)
REMARK    1  A    between atoms: C_1  and  C_2
REMARK    2  A    between atoms: C_4  and  C_35
REMARK    3  A    between atoms: C_6  and  N_8
REMARK    4  A    between atoms: N_8  and  S_9
REMARK    5  A    between atoms: S_9  and  C_12
REMARK    6  A    between atoms: C_25  and  C_28
REMARK    7  A    between atoms: C_33  and  O_34
REMARK                            x       y       z     vdW  Elec       q    Type
REMARK                         _______ _______ _______ _____ _____    ______ ____
ROOT
ATOM      1  C   UNL     1      -1.831   1.261  -0.048  0.00  0.00    +0.109 A 
ATOM      2  C   UNL     1      -1.877  -0.120  -0.097  0.00  0.00    +0.030 A 
ATOM      3  C   UNL     1      -0.706  -0.839  -0.231  0.00  0.00    +0.025 A 
ATOM      4  C   UNL     1       0.512  -0.174  -0.316  0.00  0.00    +0.031 A 
ATOM      5  C   UNL     1       0.562   1.207  -0.265  0.00  0.00    -0.018 A 
ATOM      6  C   UNL     1      -0.621   1.921  -0.126  0.00  0.00    +0.034 A 
ATOM      7  C   UNL     1       1.850   1.982  -0.346  0.00  0.00    +0.049 C 
ATOM      8  C   UNL     1       1.976   2.796   0.934  0.00  0.00    -0.023 C 
ATOM      9  C   UNL     1       2.727   2.167   1.804  0.00  0.00    -0.030 C 
ATOM     10  C   UNL     1       3.212   0.848   1.230  0.00  0.00    +0.033 C 
ATOM     11  C   UNL     1       3.088   1.069  -0.296  0.00  0.00    +0.029 C 
ATOM     12  C   UNL     1       2.861  -0.245  -1.020  0.00  0.00    +0.108 C 
ATOM     13  N   UNL     1       1.687  -0.920  -0.456  0.00  0.00    -0.336 N 
ATOM     14  H   UNL     1       1.725  -1.852  -0.189  0.00  0.00    +0.147 HD
ENDROOT
BRANCH  12  15
ATOM     15  C   UNL     1       2.631   0.022  -2.485  0.00  0.00    +0.014 A 
ATOM     16  C   UNL     1       1.350  -0.012  -3.001  0.00  0.00    +0.009 A 
ATOM     17  C   UNL     1       1.137   0.238  -4.344  0.00  0.00    +0.001 A 
ATOM     18  C   UNL     1       2.207   0.513  -5.177  0.00  0.00    +0.004 A 
ATOM     19  C   UNL     1       3.490   0.544  -4.667  0.00  0.00    +0.046 A 
ATOM     20  C   UNL     1       3.706   0.298  -3.318  0.00  0.00    +0.122 A 
BRANCH  20  21
ATOM     21  O   UNL     1       4.967   0.328  -2.814  0.00  0.00    -0.506 OA
ATOM     22  H   UNL     1       5.421  -0.526  -2.839  0.00  0.00    +0.292 HD
ENDBRANCH  20  21
ENDBRANCH  12  15
BRANCH   1  23
ATOM     23  S   UNL     1      -3.323   2.183   0.122  0.00  0.00    +0.072 S 
ATOM     24  O   UNL     1      -3.102   3.435  -0.514  0.00  0.00    -0.150 OA
ATOM     25  O   UNL     1      -4.382   1.314  -0.255  0.00  0.00    -0.150 OA
BRANCH  23  26
ATOM     26  N   UNL     1      -3.522   2.500   1.735  0.00  0.00    -0.216 N 
ATOM     27  H   UNL     1      -3.536   3.417   2.051  0.00  0.00    +0.174 HD
BRANCH  26  33
ATOM     28  C   UNL     1      -5.625  -1.773   2.947  0.00  0.00    +0.044 C 
ATOM     29  C   UNL     1      -4.683  -0.638   3.255  0.00  0.00    -0.048 A 
ATOM     30  C   UNL     1      -3.963  -0.638   4.436  0.00  0.00    +0.006 A 
ATOM     31  C   UNL     1      -3.097   0.401   4.721  0.00  0.00    -0.048 A 
ATOM     32  C   UNL     1      -2.948   1.444   3.828  0.00  0.00    +0.028 A 
ATOM     33  C   UNL     1      -3.670   1.447   2.641  0.00  0.00    +0.049 A 
ATOM     34  C   UNL     1      -4.543   0.404   2.359  0.00  0.00    +0.028 A 
ATOM     35  C   UNL     1      -2.315   0.397   6.010  0.00  0.00    +0.044 C 
ENDBRANCH  26  33
ENDBRANCH  23  26
ENDBRANCH   1  23
TORSDOF 5
