REMARK  Name = ZINC28792538
REMARK  7 active torsions:
REMARK  status: ('A' for Active; 'I' for Inactive)
REMARK    1  A    between atoms: C_4  and  C_7
REMARK    2  A    between atoms: C_9  and  C_12
REMARK    3  A    between atoms: N_14  and  N_15
REMARK    4  A    between atoms: C_16  and  C_18
REMARK    5  A    between atoms: C_18  and  C_19
REMARK    6  A    between atoms: C_19  and  C_21
REMARK    7  A    between atoms: C_19  and  N_26
REMARK                            x       y       z     vdW  Elec       q    Type
REMARK                         _______ _______ _______ _____ _____    ______ ____
ROOT
ATOM      1  N   UNL     1       7.810  -5.032  -0.112  0.00  0.00    -0.234 N 
ATOM      2  C   UNL     1       9.152  -5.148  -0.124  0.00  0.00    +0.231 C 
ATOM      3  O   UNL     1       9.847  -4.154  -0.120  0.00  0.00    -0.274 OA
ATOM      4  H   UNL     1       7.254  -5.827  -0.114  0.00  0.00    +0.173 HD
ENDROOT
BRANCH   1   7
ATOM      5  C   UNL     1       5.874  -3.646  -0.083  0.00  0.00    +0.282 C 
ATOM      6  O   UNL     1       5.178  -4.642  -0.086  0.00  0.00    -0.267 OA
ATOM      7  N   UNL     1       7.217  -3.763  -0.095  0.00  0.00    -0.229 N 
ATOM      8  H   UNL     1       7.772  -2.967  -0.093  0.00  0.00    +0.173 HD
BRANCH   5  11
ATOM      9  C   UNL     1       3.696  -0.685  -0.037  0.00  0.00    +0.168 A 
ATOM     10  C   UNL     1       3.860  -2.034  -0.052  0.00  0.00    +0.086 A 
ATOM     11  C   UNL     1       5.246  -2.302  -0.066  0.00  0.00    +0.170 A 
ATOM     12  N   UNL     1       5.881  -1.154  -0.060  0.00  0.00    -0.073 NA
ATOM     13  O   UNL     1       4.916  -0.118  -0.047  0.00  0.00    -0.354 OA
BRANCH   9  17
ATOM     14  C   UNL     1      -0.017   1.379   0.010  0.00  0.00    +0.000 A 
ATOM     15  C   UNL     1       1.168   2.093   0.002  0.00  0.00    +0.001 A 
ATOM     16  C   UNL     1       2.377   1.429  -0.013  0.00  0.00    +0.011 A 
ATOM     17  C   UNL     1       2.403   0.034  -0.021  0.00  0.00    +0.020 A 
ATOM     18  C   UNL     1       1.204  -0.681  -0.013  0.00  0.00    +0.011 A 
ATOM     19  C   UNL     1       0.002  -0.004   0.002  0.00  0.00    +0.001 A 
ENDBRANCH   9  17
ENDBRANCH   5  11
ENDBRANCH   1   7
BRANCH   2  20
ATOM     20  C   UNL     1       9.790  -6.513  -0.141  0.00  0.00    +0.125 C 
BRANCH  20  21
ATOM     21  C   UNL     1      11.313  -6.364  -0.153  0.00  0.00    +0.120 C 
BRANCH  21  22
ATOM     22  N   UNL     1      11.732  -5.725  -1.402  0.00  0.00    -0.292 N 
ATOM     23  C   UNL     1      12.893  -5.042  -1.453  0.00  0.00    +0.298 C 
ATOM     24  O   UNL     1      13.592  -4.956  -0.463  0.00  0.00    -0.253 OA
ATOM     25  N   UNL     1      13.278  -4.453  -2.603  0.00  0.00    -0.313 N 
ATOM     26  H   UNL     1      11.174  -5.793  -2.193  0.00  0.00    +0.151 HD
ATOM     27  H   UNL     1      12.720  -4.521  -3.393  0.00  0.00    +0.146 HD
ATOM     28  H   UNL     1      14.114  -3.961  -2.640  0.00  0.00    +0.146 HD
ENDBRANCH  21  22
BRANCH  21  29
ATOM     29  C   UNL     1      11.952  -7.725  -0.046  0.00  0.00    +0.010 A 
ATOM     30  C   UNL     1      12.474  -8.341   1.043  0.00  0.00    +0.013 A 
ATOM     31  C   UNL     1      13.013  -9.606   0.904  0.00  0.00    +0.008 A 
ATOM     32  C   UNL     1      13.004 -10.194  -0.318  0.00  0.00    +0.045 A 
ATOM     33  S   UNL     1      12.210  -8.949  -1.321  0.00  0.00    -0.100 S 
ENDBRANCH  21  29
ENDBRANCH  20  21
ENDBRANCH   2  20
TORSDOF 7
