REMARK  Name = ZINC04532006
REMARK  7 active torsions:
REMARK  status: ('A' for Active; 'I' for Inactive)
REMARK    1  A    between atoms: C_1  and  C_2
REMARK    2  A    between atoms: C_2  and  C_4
REMARK    3  A    between atoms: C_2  and  C_32
REMARK    4  A    between atoms: C_10  and  C_31
REMARK    5  A    between atoms: C_11  and  O_30
REMARK    6  A    between atoms: C_22  and  C_29
REMARK    7  A    between atoms: C_25  and  O_28
REMARK                            x       y       z     vdW  Elec       q    Type
REMARK                         _______ _______ _______ _____ _____    ______ ____
ROOT
ATOM      1  C   UNL     1      -0.691  -7.941   0.950  0.00  0.00    +0.011 C 
ATOM      2  C   UNL     1      -1.784  -8.250  -0.108  0.00  0.00    +0.005 C 
ATOM      3  C   UNL     1      -1.931  -6.970  -0.974  0.00  0.00    +0.005 C 
ATOM      4  C   UNL     1      -0.703  -6.129  -0.589  0.00  0.00    +0.001 C 
ATOM      5  C   UNL     1      -0.600  -6.402   0.925  0.00  0.00    +0.001 C 
ATOM      6  C   UNL     1       0.637  -5.793   1.523  0.00  0.00    +0.121 C 
ATOM      7  C   UNL     1       0.939  -4.417   0.910  0.00  0.00    +0.036 C 
ATOM      8  C   UNL     1      -0.280  -3.802   0.242  0.00  0.00    +0.001 C 
ATOM      9  C   UNL     1      -0.761  -4.667  -0.917  0.00  0.00    -0.004 C 
ATOM     10  C   UNL     1      -2.119  -4.203  -1.428  0.00  0.00    +0.004 C 
ATOM     11  C   UNL     1      -2.118  -2.671  -1.553  0.00  0.00    +0.004 C 
ATOM     12  C   UNL     1      -0.675  -2.195  -1.613  0.00  0.00    -0.002 C 
ATOM     13  C   UNL     1       0.018  -2.390  -0.266  0.00  0.00    -0.026 C 
ATOM     14  C   UNL     1       1.509  -2.133  -0.443  0.00  0.00    +0.010 C 
ATOM     15  C   UNL     1       1.727  -0.702  -0.944  0.00  0.00    +0.032 C 
ATOM     16  C   UNL     1       0.959  -0.435  -2.233  0.00  0.00    +0.115 C 
ATOM     17  C   UNL     1      -0.532  -0.750  -2.072  0.00  0.00    +0.035 C 
ATOM     18  C   UNL     1      -0.544  -1.411   0.768  0.00  0.00    +0.012 C 
ATOM     19  C   UNL     1      -1.847  -5.904   1.675  0.00  0.00    +0.014 C 
ENDROOT
BRANCH   1  21
ATOM     20  C   UNL     1       0.393 -10.101   0.337  0.00  0.00    +0.019 C 
ATOM     21  C   UNL     1       0.622  -8.603   0.552  0.00  0.00    +0.103 C 
BRANCH  21  22
ATOM     22  C   UNL     1       1.638  -8.403   1.647  0.00  0.00    +0.359 C 
ATOM     23  O   UNL     1       1.278  -8.073   2.752  0.00  0.00    -0.246 OA
ATOM     24  O   UNL     1       2.943  -8.591   1.394  0.00  0.00    -0.246 OA
ENDBRANCH  21  22
ENDBRANCH   1  21
BRANCH  16  25
ATOM     25  O   UNL     1       1.109   0.942  -2.593  0.00  0.00    -0.392 OA
ATOM     26  H   UNL     1       2.027   1.219  -2.713  0.00  0.00    +0.210 HD
ENDBRANCH  16  25
BRANCH   6  27
ATOM     27  O   UNL     1       0.459  -5.642   2.942  0.00  0.00    -0.391 OA
ATOM     28  H   UNL     1       1.220  -5.253   3.395  0.00  0.00    +0.210 HD
ENDBRANCH   6  27
TORSDOF 4
