REMARK  Name = ZINC65304893
REMARK  6 active torsions:
REMARK  status: ('A' for Active; 'I' for Inactive)
REMARK    1  A    between atoms: C_6  and  C_7
REMARK    2  A    between atoms: C_7  and  N_8
REMARK    3  A    between atoms: N_10  and  C_11
REMARK    4  A    between atoms: C_14  and  C_17
REMARK    5  A    between atoms: N_20  and  C_21
REMARK    6  A    between atoms: C_21  and  C_22
REMARK                            x       y       z     vdW  Elec       q    Type
REMARK                         _______ _______ _______ _____ _____    ______ ____
ROOT
ATOM      1  N   UNL     1      -1.385  -2.125  -1.655  0.00  0.00    -0.353 N 
ATOM      2  C   UNL     1      -2.687  -2.134  -1.726  0.00  0.00    +0.176 C 
ATOM      3  N   UNL     1      -3.314  -1.820  -2.911  0.00  0.00    -0.328 N 
ATOM      4  N   UNL     1      -3.433  -2.458  -0.618  0.00  0.00    -0.357 N 
ATOM      5  H   UNL     1      -0.858  -1.907  -2.439  0.00  0.00    +0.163 HD
ATOM      6  H   UNL     1      -2.997  -2.603   0.236  0.00  0.00    +0.162 HD
ATOM      7  H   UNL     1      -4.276  -1.915  -2.991  0.00  0.00    +0.169 HD
ENDROOT
BRANCH   3   8
ATOM      8  C   UNL     1      -2.567  -1.366  -3.995  0.00  0.00    +0.042 A 
ATOM      9  C   UNL     1      -1.448  -0.566  -3.780  0.00  0.00    +0.026 A 
ATOM     10  C   UNL     1      -0.710  -0.117  -4.845  0.00  0.00    +0.017 A 
ATOM     11  C   UNL     1      -1.082  -0.464  -6.148  0.00  0.00    +0.063 A 
ATOM     12  C   UNL     1      -2.208  -1.268  -6.360  0.00  0.00    +0.017 A 
ATOM     13  C   UNL     1      -2.937  -1.718  -5.290  0.00  0.00    +0.026 A 
BRANCH  11  14
ATOM     14  C   UNL     1      -0.293   0.017  -7.294  0.00  0.00    +0.387 C 
ATOM     15  O   UNL     1       0.690   0.721  -7.107  0.00  0.00    -0.241 OA
ATOM     16  O   UNL     1      -0.621  -0.287  -8.433  0.00  0.00    -0.241 OA
ENDBRANCH  11  14
ENDBRANCH   3   8
BRANCH   1  17
ATOM     17  C   UNL     1      -0.719  -2.443  -0.390  0.00  0.00    +0.151 C 
BRANCH  17  23
ATOM     18  C   UNL     1       1.434  -1.167  -0.354  0.00  0.00    +0.008 A 
ATOM     19  C   UNL     1       2.803  -1.091  -0.524  0.00  0.00    +0.038 A 
ATOM     20  C   UNL     1       3.515  -2.213  -0.913  0.00  0.00    +0.123 A 
ATOM     21  C   UNL     1       2.854  -3.409  -1.133  0.00  0.00    +0.038 A 
ATOM     22  C   UNL     1       1.484  -3.483  -0.963  0.00  0.00    +0.008 A 
ATOM     23  C   UNL     1       0.774  -2.362  -0.574  0.00  0.00    -0.028 A 
ATOM     24  F   UNL     1       4.854  -2.140  -1.079  0.00  0.00    -0.205 F 
ENDBRANCH  17  23
ENDBRANCH   1  17
BRANCH   4  25
ATOM     25  C   UNL     1      -4.889  -2.585  -0.727  0.00  0.00    +0.122 C 
BRANCH  25  26
ATOM     26  C   UNL     1      -5.481  -2.875   0.654  0.00  0.00    -0.011 C 
ATOM     27  C   UNL     1      -4.905  -4.188   1.190  0.00  0.00    +0.012 C 
ATOM     28  C   UNL     1      -5.497  -4.478   2.571  0.00  0.00    -0.010 C 
ATOM     29  C   UNL     1      -7.018  -4.596   2.459  0.00  0.00    +0.007 C 
ATOM     30  C   UNL     1      -7.594  -3.284   1.923  0.00  0.00    -0.010 C 
ATOM     31  C   UNL     1      -7.002  -2.994   0.542  0.00  0.00    +0.012 C 
ATOM     32  C   UNL     1      -7.240  -2.143   2.879  0.00  0.00    +0.007 C 
ATOM     33  C   UNL     1      -5.718  -2.025   2.991  0.00  0.00    -0.010 C 
ATOM     34  C   UNL     1      -5.143  -3.337   3.527  0.00  0.00    +0.007 C 
ATOM     35  C   UNL     1      -5.127  -1.735   1.610  0.00  0.00    +0.012 C 
ENDBRANCH  25  26
ENDBRANCH   4  25
TORSDOF 6
