REMARK  Name = ZINC14743627
REMARK  8 active torsions:
REMARK  status: ('A' for Active; 'I' for Inactive)
REMARK    1  A    between atoms: C_1  and  C_2
REMARK    2  A    between atoms: C_2  and  C_4
REMARK    3  A    between atoms: C_2  and  N_11
REMARK    4  A    between atoms: C_12  and  C_14
REMARK    5  A    between atoms: C_16  and  C_30
REMARK    6  A    between atoms: C_18  and  S_20
REMARK    7  A    between atoms: S_20  and  N_23
REMARK    8  A    between atoms: N_23  and  C_24
REMARK                            x       y       z     vdW  Elec       q    Type
REMARK                         _______ _______ _______ _____ _____    ______ ____
ROOT
ATOM      1  C   UNL     1      -1.214   3.597   0.027  0.00  0.00    +0.039 A 
ATOM      2  C   UNL     1      -0.017   4.312   0.026  0.00  0.00    +0.023 A 
ATOM      3  C   UNL     1      -0.045   5.703   0.033  0.00  0.00    +0.005 A 
ATOM      4  C   UNL     1      -1.267   6.374   0.043  0.00  0.00    +0.038 A 
ATOM      5  C   UNL     1      -2.450   5.661   0.044  0.00  0.00    +0.107 A 
ATOM      6  C   UNL     1      -2.432   4.281   0.031  0.00  0.00    +0.041 A 
ENDROOT
BRANCH   3   7
ATOM      7  C   UNL     1       1.225   6.471   0.032  0.00  0.00    +0.093 A 
ATOM      8  C   UNL     1       2.521   5.930  -0.076  0.00  0.00    +0.049 A 
ATOM      9  C   UNL     1       3.401   6.954  -0.037  0.00  0.00    +0.105 A 
ATOM     10  N   UNL     1       2.701   8.101   0.090  0.00  0.00    -0.284 N 
ATOM     11  H   UNL     1       3.088   9.022   0.148  0.00  0.00    +0.188 HD
ATOM     12  N   UNL     1       1.339   7.779   0.126  0.00  0.00    -0.174 NA
ENDBRANCH   3   7
BRANCH   1  14
ATOM     13  N   UNL     1      -0.018   1.461   0.010  0.00  0.00    -0.305 N 
ATOM     14  C   UNL     1      -1.194   2.119   0.019  0.00  0.00    +0.245 C 
ATOM     15  O   UNL     1      -2.238   1.497   0.021  0.00  0.00    -0.270 OA
ATOM     16  H   UNL     1       0.816   1.957   0.005  0.00  0.00    +0.150 HD
BRANCH  13  18
ATOM     17  C   UNL     1      -0.130  -0.508  -1.437  0.00  0.00    +0.033 C 
ATOM     18  C   UNL     1       0.002  -0.004   0.002  0.00  0.00    +0.100 C 
BRANCH  18  19
ATOM     19  C   UNL     1       1.302  -0.492   0.588  0.00  0.00    -0.027 A 
ATOM     20  C   UNL     1       2.484   0.157   0.282  0.00  0.00    +0.008 A 
ATOM     21  C   UNL     1       3.676  -0.287   0.822  0.00  0.00    +0.038 A 
ATOM     22  C   UNL     1       3.688  -1.388   1.661  0.00  0.00    +0.123 A 
ATOM     23  C   UNL     1       2.504  -2.040   1.962  0.00  0.00    +0.038 A 
ATOM     24  C   UNL     1       1.313  -1.592   1.425  0.00  0.00    +0.008 A 
ATOM     25  F   UNL     1       4.854  -1.825   2.186  0.00  0.00    -0.205 F 
ENDBRANCH  18  19
ENDBRANCH  13  18
ENDBRANCH   1  14
BRANCH   5  26
ATOM     26  S   UNL     1      -3.990   6.517   0.057  0.00  0.00    +0.059 S 
ATOM     27  O   UNL     1      -4.948   5.623   0.607  0.00  0.00    -0.153 OA
ATOM     28  O   UNL     1      -3.737   7.800   0.613  0.00  0.00    -0.153 OA
BRANCH  26  29
ATOM     29  N   UNL     1      -4.426   6.764  -1.522  0.00  0.00    -0.187 NA
ATOM     30  H   UNL     1      -4.479   7.666  -1.875  0.00  0.00    +0.148 HD
BRANCH  29  31
ATOM     31  C   UNL     1      -4.730   5.620  -2.385  0.00  0.00    +0.077 C 
ATOM     32  C   UNL     1      -3.479   5.228  -3.173  0.00  0.00    +0.020 C 
ATOM     33  C   UNL     1      -3.797   4.034  -4.075  0.00  0.00    +0.002 C 
ATOM     34  C   UNL     1      -4.915   4.413  -5.048  0.00  0.00    +0.000 C 
ATOM     35  C   UNL     1      -6.166   4.804  -4.260  0.00  0.00    +0.002 C 
ATOM     36  C   UNL     1      -5.848   5.999  -3.359  0.00  0.00    +0.020 C 
ENDBRANCH  29  31
ENDBRANCH  26  29
ENDBRANCH   5  26
TORSDOF 7
