REMARK  Name = ZINC64343327
REMARK  7 active torsions:
REMARK  status: ('A' for Active; 'I' for Inactive)
REMARK    1  A    between atoms: C_14  and  C_15
REMARK    2  A    between atoms: N_16  and  N_17
REMARK    3  A    between atoms: C_18  and  C_20
REMARK    4  A    between atoms: C_20  and  C_22
REMARK    5  A    between atoms: C_20  and  N_32
REMARK    6  A    between atoms: C_22  and  C_23
REMARK    7  A    between atoms: C_33  and  C_35
REMARK                            x       y       z     vdW  Elec       q    Type
REMARK                         _______ _______ _______ _____ _____    ______ ____
ROOT
ATOM      1  C   UNL     1       9.767   0.562   0.109  0.00  0.00    +0.165 C 
ENDROOT
BRANCH   1   3
ATOM      2  N   UNL     1       7.301   0.383   0.030  0.00  0.00    -0.205 N 
ATOM      3  C   UNL     1       8.492  -0.241   0.117  0.00  0.00    +0.253 C 
ATOM      4  O   UNL     1       8.538  -1.451   0.200  0.00  0.00    -0.272 OA
ATOM      5  H   UNL     1       7.264   1.350  -0.037  0.00  0.00    +0.177 HD
BRANCH   2   7
ATOM      6  C   UNL     1       4.965   0.239  -0.045  0.00  0.00    +0.139 C 
ATOM      7  N   UNL     1       6.116  -0.364   0.038  0.00  0.00    -0.188 NA
BRANCH   6  21
ATOM      8  C   UNL     1       3.826  -4.737  -0.110  0.00  0.00    +0.001 A 
ATOM      9  C   UNL     1       5.007  -3.998  -0.117  0.00  0.00    +0.001 A 
ATOM     10  C   UNL     1       4.998  -2.638  -0.094  0.00  0.00    +0.009 A 
ATOM     11  C   UNL     1       3.771  -1.952  -0.063  0.00  0.00    -0.009 A 
ATOM     12  C   UNL     1       2.528  -2.727  -0.056  0.00  0.00    -0.017 A 
ATOM     13  C   UNL     1       2.608  -4.136  -0.080  0.00  0.00    +0.008 A 
ATOM     14  C   UNL     1       1.294  -2.078  -0.024  0.00  0.00    +0.017 A 
ATOM     15  C   UNL     1       1.239  -0.684   0.001  0.00  0.00    -0.017 A 
ATOM     16  C   UNL     1       0.003  -0.004   0.033  0.00  0.00    +0.008 A 
ATOM     17  C   UNL     1      -0.016   1.353   0.057  0.00  0.00    +0.001 A 
ATOM     18  C   UNL     1       1.161   2.101   0.051  0.00  0.00    +0.001 A 
ATOM     19  C   UNL     1       2.383   1.507   0.020  0.00  0.00    +0.009 A 
ATOM     20  C   UNL     1       2.474   0.104  -0.006  0.00  0.00    -0.009 A 
ATOM     21  C   UNL     1       3.726  -0.543  -0.038  0.00  0.00    +0.010 A 
ENDBRANCH   6  21
ENDBRANCH   2   7
ENDBRANCH   1   3
BRANCH   1  22
ATOM     22  N   UNL     1      10.888  -0.303  -0.265  0.00  0.00    -0.299 N 
ATOM     23  C   UNL     1      11.187  -1.381   0.487  0.00  0.00    +0.251 C 
ATOM     24  O   UNL     1      10.526  -1.635   1.477  0.00  0.00    -0.270 OA
ATOM     25  H   UNL     1      11.415  -0.101  -1.054  0.00  0.00    +0.150 HD
BRANCH  23  26
ATOM     26  C   UNL     1      12.309  -2.247   0.113  0.00  0.00    +0.074 A 
ATOM     27  C   UNL     1      12.775  -3.393   0.739  0.00  0.00    +0.021 A 
ATOM     28  C   UNL     1      13.858  -3.998   0.147  0.00  0.00    +0.008 A 
ATOM     29  C   UNL     1      14.386  -3.452  -0.976  0.00  0.00    +0.046 A 
ATOM     30  S   UNL     1      13.425  -2.106  -1.270  0.00  0.00    -0.092 S 
ENDBRANCH  23  26
ENDBRANCH   1  22
BRANCH   1  31
ATOM     31  C   UNL     1      10.012   1.142   1.503  0.00  0.00    +0.065 C 
BRANCH  31  32
ATOM     32  C   UNL     1      11.218   2.045   1.466  0.00  0.00    -0.039 C 
ATOM     33  C   UNL     1      11.224   3.388   1.308  0.00  0.00    -0.001 A 
ATOM     34  C   UNL     1      10.150   4.373   1.128  0.00  0.00    +0.010 A 
ATOM     35  C   UNL     1      10.473   5.679   0.992  0.00  0.00    +0.001 A 
ATOM     36  C   UNL     1      11.805   6.115   1.018  0.00  0.00    +0.002 A 
ATOM     37  C   UNL     1      12.846   5.270   1.179  0.00  0.00    +0.026 A 
ATOM     38  C   UNL     1      12.622   3.874   1.332  0.00  0.00    +0.043 A 
ATOM     39  N   UNL     1      13.449   2.871   1.499  0.00  0.00    -0.380 N 
ATOM     40  C   UNL     1      12.667   1.634   1.606  0.00  0.00    +0.144 C 
ATOM     41  H   UNL     1      14.415   2.936   1.548  0.00  0.00    +0.160 HD
ENDBRANCH  31  32
ENDBRANCH   1  31
TORSDOF 7
