REMARK  Name = ZINC09012679
REMARK  6 active torsions:
REMARK  status: ('A' for Active; 'I' for Inactive)
REMARK    1  A    between atoms: C_1  and  C_2
REMARK    2  A    between atoms: N_24  and  C_27
REMARK    3  A    between atoms: C_29  and  O_37
REMARK    4  A    between atoms: C_30  and  N_34
REMARK    5  A    between atoms: C_32  and  C_33
REMARK    6  A    between atoms: O_37  and  C_38
REMARK                            x       y       z     vdW  Elec       q    Type
REMARK                         _______ _______ _______ _____ _____    ______ ____
ROOT
ATOM      1  C   UNL     1      -2.517   6.893   0.096  0.00  0.00    +0.044 C 
ATOM      2  C   UNL     1      -2.848   5.616   0.825  0.00  0.00    -0.049 A 
ATOM      3  C   UNL     1      -2.264   4.425   0.437  0.00  0.00    +0.008 A 
ATOM      4  C   UNL     1      -2.550   3.253   1.104  0.00  0.00    -0.026 A 
ATOM      5  C   UNL     1      -3.467   3.258   2.153  0.00  0.00    +0.054 A 
ATOM      6  C   UNL     1      -4.049   4.462   2.543  0.00  0.00    +0.063 A 
ATOM      7  C   UNL     1      -3.738   5.634   1.883  0.00  0.00    +0.025 A 
ATOM      8 CL   UNL     1      -5.173   4.489   3.866  0.00  0.00    -0.082 Cl
ATOM      9  N   UNL     1      -3.655   1.961   2.637  0.00  0.00    -0.285 N 
ATOM     10  C   UNL     1      -2.910   1.060   1.974  0.00  0.00    +0.212 C 
ATOM     11  O   UNL     1      -2.889  -0.139   2.159  0.00  0.00    -0.277 OA
ATOM     12  C   UNL     1      -2.103   1.828   0.953  0.00  0.00    +0.053 C 
ATOM     13  C   UNL     1      -2.316   1.295  -0.445  0.00  0.00    +0.089 C 
ATOM     14  C   UNL     1      -0.882   1.640  -1.052  0.00  0.00    +0.074 C 
ATOM     15  C   UNL     1      -0.013   1.086   0.008  0.00  0.00    -0.054 C 
ATOM     16  C   UNL     1      -0.040   2.973   1.488  0.00  0.00    -0.076 C 
ATOM     17  C   UNL     1       1.252   3.065   0.668  0.00  0.00    -0.020 C 
ATOM     18  C   UNL     1       1.408   1.688  -0.002  0.00  0.00    -0.016 C 
ATOM     19  C   UNL     1      -1.156   1.531  -2.464  0.00  0.00    +0.228 C 
ATOM     20  O   UNL     1      -0.380   1.151  -3.315  0.00  0.00    -0.275 OA
ATOM     21  N   UNL     1      -2.461   1.919  -2.640  0.00  0.00    -0.210 N 
ATOM     22  C   UNL     1      -3.144   2.018  -1.460  0.00  0.00    +0.229 C 
ATOM     23  O   UNL     1      -4.204   2.576  -1.275  0.00  0.00    -0.275 OA
ATOM     24  H   UNL     1      -4.255   1.737   3.365  0.00  0.00    +0.155 HD
ATOM     25  N   UNL     1      -0.642   1.663   1.222  0.00  0.00    +0.395 N 
ATOM     26  H   UNL     1      -0.499   1.041   2.027  0.00  0.00    -0.079 HD
ENDROOT
BRANCH  21  27
ATOM     27  C   UNL     1      -3.030   2.187  -3.893  0.00  0.00    +0.050 A 
ATOM     28  C   UNL     1      -2.982   3.470  -4.418  0.00  0.00    +0.072 A 
ATOM     29  C   UNL     1      -3.546   3.731  -5.657  0.00  0.00    +0.152 A 
ATOM     30  C   UNL     1      -4.157   2.708  -6.369  0.00  0.00    +0.168 A 
ATOM     31  C   UNL     1      -4.203   1.431  -5.845  0.00  0.00    +0.041 A 
ATOM     32  C   UNL     1      -3.638   1.167  -4.612  0.00  0.00    -0.026 A 
ATOM     33  C   UNL     1      -3.686  -0.229  -4.045  0.00  0.00    +0.046 C 
BRANCH  30  34
ATOM     34  N   UNL     1      -4.759   2.986  -7.692  0.00  0.00    +0.060 N 
ATOM     35  O   UNL     1      -5.295   2.090  -8.318  0.00  0.00    -0.126 OA
ATOM     36  O   UNL     1      -4.718   4.112  -8.156  0.00  0.00    -0.126 OA
ENDBRANCH  30  34
BRANCH  29  37
ATOM     37  O   UNL     1      -3.500   4.987  -6.174  0.00  0.00    -0.493 OA
ATOM     38  C   UNL     1      -2.855   5.990  -5.387  0.00  0.00    +0.277 C 
ENDBRANCH  29  37
ENDBRANCH  21  27
TORSDOF 3
