REMARK  Name = ZINC06195034
REMARK  12 active torsions:
REMARK  status: ('A' for Active; 'I' for Inactive)
REMARK    1  A    between atoms: C_1  and  C_2
REMARK    2  A    between atoms: C_2  and  O_3
REMARK    3  A    between atoms: O_3  and  C_4
REMARK    4  A    between atoms: C_13  and  C_25
REMARK    5  A    between atoms: C_15  and  C_21
REMARK    6  A    between atoms: C_15  and  C_23
REMARK    7  A    between atoms: C_16  and  N_20
REMARK    8  A    between atoms: C_17  and  C_18
REMARK    9  A    between atoms: C_29  and  O_33
REMARK   10  A    between atoms: C_30  and  O_31
REMARK   11  A    between atoms: O_31  and  C_32
REMARK   12  A    between atoms: O_33  and  C_34
REMARK                            x       y       z     vdW  Elec       q    Type
REMARK                         _______ _______ _______ _____ _____    ______ ____
ROOT
ATOM      1  C   UNL     1      -3.640  -0.342   1.828  0.00  0.00    +0.403 C 
ATOM      2  O   UNL     1      -3.904  -0.443   0.646  0.00  0.00    -0.226 OA
ATOM      3  N   UNL     1      -2.840   0.654   2.257  0.00  0.00    -0.263 N 
ATOM      4  C   UNL     1      -2.418   0.748   3.666  0.00  0.00    +0.138 C 
ATOM      5  C   UNL     1      -0.910   0.768   3.676  0.00  0.00    -0.003 C 
ATOM      6  C   UNL     1      -0.227   1.242   2.653  0.00  0.00    -0.026 C 
ATOM      7  C   UNL     1      -0.848   1.827   1.420  0.00  0.00    +0.048 C 
ATOM      8  C   UNL     1      -2.350   1.690   1.341  0.00  0.00    +0.120 C 
ATOM      9  C   UNL     1      -0.149   1.228   0.198  0.00  0.00    +0.071 C 
ATOM     10  C   UNL     1       1.322   1.647   0.216  0.00  0.00    +0.188 C 
ATOM     11  C   UNL     1       1.960   1.374   1.545  0.00  0.00    +0.054 C 
ATOM     12  C   UNL     1       1.259   1.195   2.693  0.00  0.00    +0.074 C 
ENDROOT
BRANCH   9  13
ATOM     13  C   UNL     1      -0.803   1.737  -1.060  0.00  0.00    +0.004 A 
ATOM     14  C   UNL     1      -1.044   3.089  -1.217  0.00  0.00    +0.008 A 
ATOM     15  C   UNL     1      -1.640   3.559  -2.372  0.00  0.00    +0.004 A 
ATOM     16  C   UNL     1      -2.006   2.678  -3.372  0.00  0.00    +0.049 A 
ATOM     17  C   UNL     1      -1.773   1.321  -3.220  0.00  0.00    +0.162 A 
ATOM     18  C   UNL     1      -1.168   0.848  -2.059  0.00  0.00    +0.165 A 
BRANCH  18  19
ATOM     19  O   UNL     1      -0.937  -0.483  -1.904  0.00  0.00    -0.491 OA
ATOM     20  C   UNL     1      -2.003  -1.268  -1.367  0.00  0.00    +0.277 C 
ENDBRANCH  18  19
BRANCH  17  21
ATOM     21  O   UNL     1      -2.132   0.453  -4.203  0.00  0.00    -0.491 OA
ATOM     22  C   UNL     1      -2.748   1.009  -5.367  0.00  0.00    +0.277 C 
ENDBRANCH  17  21
ENDBRANCH   9  13
BRANCH  11  23
ATOM     23  N   UNL     1       3.323   1.302   1.603  0.00  0.00    -0.358 N 
ATOM     24  H   UNL     1       3.823   1.104   2.563  0.00  0.00    +0.142 HD
ATOM     25  H   UNL     1       3.921   1.444   0.691  0.00  0.00    +0.142 HD
ENDBRANCH  11  23
BRANCH  12  26
ATOM     26  C   UNL     1       1.943   0.962   3.929  0.00  0.00    +0.101 C 
ATOM     27  N   UNL     1       2.486   0.777   4.910  0.00  0.00    -0.191 NA
ENDBRANCH  12  26
BRANCH  10  28
ATOM     28  C   UNL     1       2.046   0.901  -0.826  0.00  0.00    +0.091 C 
ATOM     29  N   UNL     1       2.605   0.325  -1.630  0.00  0.00    -0.194 NA
ENDBRANCH  10  28
BRANCH  10  30
ATOM     30  C   UNL     1       1.415   3.087  -0.072  0.00  0.00    +0.091 C 
ATOM     31  N   UNL     1       1.486   4.199  -0.295  0.00  0.00    -0.194 NA
ENDBRANCH  10  30
BRANCH   1  32
ATOM     32  O   UNL     1      -4.148  -1.224   2.709  0.00  0.00    -0.451 OA
BRANCH  32  34
ATOM     33  C   UNL     1      -5.480  -3.170   3.318  0.00  0.00    +0.048 C 
ATOM     34  C   UNL     1      -5.002  -2.270   2.176  0.00  0.00    +0.230 C 
ENDBRANCH  32  34
ENDBRANCH   1  32
TORSDOF 9
