REMARK  Name = ZINC04031347
REMARK  7 active torsions:
REMARK  status: ('A' for Active; 'I' for Inactive)
REMARK    1  A    between atoms: C_1  and  C_2
REMARK    2  A    between atoms: C_3  and  O_22
REMARK    3  A    between atoms: C_6  and  C_10
REMARK    4  A    between atoms: C_7  and  O_8
REMARK    5  A    between atoms: O_8  and  C_9
REMARK    6  A    between atoms: C_18  and  O_21
REMARK    7  A    between atoms: O_22  and  C_23
REMARK                            x       y       z     vdW  Elec       q    Type
REMARK                         _______ _______ _______ _____ _____    ______ ____
ROOT
ATOM      1  C   UNL     1       1.343   2.018   0.000  0.00  0.00    -0.031 C 
ATOM      2  C   UNL     1       1.938   1.412  -1.271  0.00  0.00    +0.011 C 
ATOM      3  C   UNL     1       3.412   1.798  -1.394  0.00  0.00    +0.005 C 
ATOM      4  C   UNL     1       3.989   1.189  -2.674  0.00  0.00    +0.000 C 
ATOM      5  C   UNL     1       3.859  -0.335  -2.624  0.00  0.00    +0.003 C 
ATOM      6  C   UNL     1       2.383  -0.722  -2.489  0.00  0.00    +0.035 C 
ATOM      7  C   UNL     1       1.819  -0.114  -1.205  0.00  0.00    +0.066 C 
ATOM      8  C   UNL     1       0.344  -0.493  -1.051  0.00  0.00    +0.016 C 
ATOM      9  C   UNL     1      -0.214   0.169   0.211  0.00  0.00    -0.079 C 
ATOM     10  N   UNL     1      -0.079   1.635   0.111  0.00  0.00    +0.384 N 
ATOM     11  H   UNL     1      -0.584   1.965  -0.721  0.00  0.00    -0.085 HD
ATOM     12  H   UNL     1      -0.482   2.070   0.950  0.00  0.00    -0.085 HD
ENDROOT
BRANCH   1  18
ATOM     13  C   UNL     1       5.603   1.688   2.622  0.00  0.00    +0.051 C 
ATOM     14  C   UNL     1       4.142   1.356   2.456  0.00  0.00    +0.033 A 
ATOM     15  C   UNL     1       3.493   0.585   3.408  0.00  0.00    +0.126 A 
ATOM     16  C   UNL     1       2.148   0.281   3.253  0.00  0.00    +0.046 A 
ATOM     17  C   UNL     1       1.456   0.745   2.151  0.00  0.00    +0.009 A 
ATOM     18  C   UNL     1       2.100   1.513   1.201  0.00  0.00    -0.019 A 
ATOM     19  C   UNL     1       3.447   1.815   1.348  0.00  0.00    +0.128 A 
BRANCH  19  20
ATOM     20  O   UNL     1       4.082   2.566   0.410  0.00  0.00    -0.495 OA
ATOM     21  C   UNL     1       4.078   3.982   0.601  0.00  0.00    +0.277 C 
ENDBRANCH  19  20
BRANCH  15  22
ATOM     22  O   UNL     1       4.172   0.129   4.493  0.00  0.00    -0.495 OA
ATOM     23  C   UNL     1       3.440  -0.659   5.434  0.00  0.00    +0.277 C 
ENDBRANCH  15  22
ENDBRANCH   1  18
BRANCH   7  24
ATOM     24  O   UNL     1       2.556  -0.601  -0.082  0.00  0.00    -0.388 OA
ATOM     25  H   UNL     1       2.519  -1.561   0.027  0.00  0.00    +0.210 HD
ENDBRANCH   7  24
TORSDOF 4
