REMARK  Name = ZINC39675015
REMARK  9 active torsions:
REMARK  status: ('A' for Active; 'I' for Inactive)
REMARK    1  A    between atoms: C_1  and  C_2
REMARK    2  A    between atoms: C_4  and  C_34
REMARK    3  A    between atoms: N_5  and  C_7
REMARK    4  A    between atoms: C_7  and  C_8
REMARK    5  A    between atoms: C_8  and  N_9
REMARK    6  A    between atoms: C_10  and  C_12
REMARK    7  A    between atoms: C_23  and  C_25
REMARK    8  A    between atoms: C_25  and  O_26
REMARK    9  A    between atoms: O_26  and  C_27
REMARK                            x       y       z     vdW  Elec       q    Type
REMARK                         _______ _______ _______ _____ _____    ______ ____
ROOT
ATOM      1  C   UNL     1       2.723  -6.622   3.912  0.00  0.00    +0.100 C 
ATOM      2  C   UNL     1       1.967  -7.789   3.238  0.00  0.00    +0.121 C 
ATOM      3  N   UNL     1       3.023  -8.573   2.555  0.00  0.00    -0.297 N 
ATOM      4  C   UNL     1       4.164  -8.558   3.501  0.00  0.00    +0.115 C 
ATOM      5  C   UNL     1       4.163  -7.132   4.087  0.00  0.00    -0.004 C 
ATOM      6  C   UNL     1       4.535  -7.168   5.566  0.00  0.00    -0.010 C 
ATOM      7  C   UNL     1       5.990  -7.623   5.710  0.00  0.00    -0.082 C 
ATOM      8  N   UNL     1       6.869  -6.696   4.986  0.00  0.00    +0.379 N 
ATOM      9  C   UNL     1       6.565  -6.737   3.551  0.00  0.00    -0.082 C 
ATOM     10  C   UNL     1       5.135  -6.245   3.315  0.00  0.00    -0.010 C 
ATOM     11  C   UNL     1       2.959  -9.166   1.346  0.00  0.00    +0.253 C 
ATOM     12  O   UNL     1       3.916  -9.779   0.920  0.00  0.00    -0.272 OA
ATOM     13  H   UNL     1       6.725  -5.759   5.332  0.00  0.00    -0.086 HD
ATOM     14  H   UNL     1       7.831  -6.962   5.133  0.00  0.00    -0.086 HD
ENDROOT
BRANCH   1  16
ATOM     15  N   UNL     1       2.765  -4.172   3.574  0.00  0.00    -0.313 N 
ATOM     16  C   UNL     1       2.701  -5.402   3.028  0.00  0.00    +0.218 C 
ATOM     17  O   UNL     1       2.627  -5.528   1.824  0.00  0.00    -0.275 OA
ATOM     18  H   UNL     1       2.824  -4.072   4.537  0.00  0.00    +0.149 HD
BRANCH  15  19
ATOM     19  C   UNL     1       2.744  -2.986   2.714  0.00  0.00    +0.127 C 
BRANCH  19  20
ATOM     20  C   UNL     1       2.827  -1.727   3.579  0.00  0.00    +0.162 C 
BRANCH  20  25
ATOM     21  C   UNL     1       4.381   2.075   0.695  0.00  0.00    +0.067 C 
ATOM     22  C   UNL     1       3.508   1.115   1.461  0.00  0.00    +0.060 A 
ATOM     23  C   UNL     1       2.112   1.158   1.538  0.00  0.00    +0.047 A 
ATOM     24  C   UNL     1       1.707   0.129   2.317  0.00  0.00    +0.036 A 
ATOM     25  N   UNL     1       2.807  -0.542   2.719  0.00  0.00    -0.267 N 
ATOM     26  N   UNL     1       3.925   0.094   2.164  0.00  0.00    -0.176 NA
ATOM     27  C   UNL     1       0.281  -0.208   2.673  0.00  0.00    +0.065 C 
ENDBRANCH  20  25
ENDBRANCH  19  20
ENDBRANCH  15  19
ENDBRANCH   1  16
BRANCH  11  28
ATOM     28  C   UNL     1       1.700  -9.069   0.524  0.00  0.00    +0.324 C 
BRANCH  28  29
ATOM     29  O   UNL     1       1.879  -9.773  -0.707  0.00  0.00    -0.483 OA
BRANCH  29  30
ATOM     30  C   UNL     1       0.830  -9.784  -1.570  0.00  0.00    +0.123 A 
ATOM     31  C   UNL     1      -0.346  -9.124  -1.242  0.00  0.00    +0.046 A 
ATOM     32  C   UNL     1      -1.412  -9.135  -2.120  0.00  0.00    +0.005 A 
ATOM     33  C   UNL     1      -1.308  -9.803  -3.327  0.00  0.00    +0.020 A 
ATOM     34  C   UNL     1      -0.137 -10.461  -3.657  0.00  0.00    +0.044 A 
ATOM     35  C   UNL     1       0.934 -10.448  -2.783  0.00  0.00    +0.065 A 
ATOM     36 CL   UNL     1      -0.010 -11.299  -5.172  0.00  0.00    -0.083 Cl
ENDBRANCH  29  30
ENDBRANCH  28  29
ENDBRANCH  11  28
TORSDOF 7
