REMARK  Name = ZINC36610119
REMARK  8 active torsions:
REMARK  status: ('A' for Active; 'I' for Inactive)
REMARK    1  A    between atoms: C_4  and  C_7
REMARK    2  A    between atoms: C_7  and  C_9
REMARK    3  A    between atoms: C_7  and  N_18
REMARK    4  A    between atoms: N_11  and  C_12
REMARK    5  A    between atoms: N_18  and  C_19
REMARK    6  A    between atoms: C_25  and  C_27
REMARK    7  A    between atoms: C_28  and  O_34
REMARK    8  A    between atoms: C_32  and  O_33
REMARK                            x       y       z     vdW  Elec       q    Type
REMARK                         _______ _______ _______ _____ _____    ______ ____
ROOT
ATOM      1  N   UNL     1       3.704  -1.812   0.979  0.00  0.00    -0.251 N 
ATOM      2  C   UNL     1       4.942  -2.222   1.318  0.00  0.00    +0.259 C 
ATOM      3  O   UNL     1       5.895  -1.914   0.627  0.00  0.00    -0.269 OA
ENDROOT
BRANCH   1   4
ATOM      4  C   UNL     1       2.597  -2.254   1.711  0.00  0.00    +0.038 A 
ATOM      5  C   UNL     1       2.216  -3.588   1.661  0.00  0.00    +0.023 A 
ATOM      6  C   UNL     1       1.123  -4.021   2.385  0.00  0.00    +0.002 A 
ATOM      7  C   UNL     1       0.406  -3.126   3.159  0.00  0.00    +0.000 A 
ATOM      8  C   UNL     1       0.782  -1.796   3.211  0.00  0.00    +0.002 A 
ATOM      9  C   UNL     1       1.879  -1.359   2.494  0.00  0.00    +0.023 A 
ENDBRANCH   1   4
BRANCH   2  10
ATOM     10  C   UNL     1       5.142  -3.041   2.524  0.00  0.00    +0.120 A 
ATOM     11  C   UNL     1       5.226  -4.437   2.424  0.00  0.00    +0.133 A 
ATOM     12  C   UNL     1       5.415  -5.199   3.566  0.00  0.00    +0.046 A 
ATOM     13  C   UNL     1       5.521  -4.587   4.801  0.00  0.00    +0.007 A 
ATOM     14  C   UNL     1       5.439  -3.211   4.912  0.00  0.00    +0.046 A 
ATOM     15  C   UNL     1       5.256  -2.430   3.782  0.00  0.00    +0.133 A 
BRANCH  15  16
ATOM     16  O   UNL     1       5.181  -1.080   3.892  0.00  0.00    -0.506 OA
ATOM     17  H   UNL     1       4.285  -0.746   4.031  0.00  0.00    +0.292 HD
ENDBRANCH  15  16
BRANCH  11  18
ATOM     18  O   UNL     1       5.123  -5.040   1.213  0.00  0.00    -0.506 OA
ATOM     19  H   UNL     1       5.968  -5.155   0.757  0.00  0.00    +0.292 HD
ENDBRANCH  11  18
ENDBRANCH   2  10
BRANCH   1  20
ATOM     20  C   UNL     1       3.517  -0.906  -0.157  0.00  0.00    +0.197 C 
BRANCH  20  24
ATOM     21  C   UNL     1      -0.572   0.315  -0.349  0.00  0.00    +0.000 A 
ATOM     22  C   UNL     1       0.428   1.264  -0.248  0.00  0.00    +0.000 A 
ATOM     23  C   UNL     1       1.752   0.869  -0.186  0.00  0.00    +0.006 A 
ATOM     24  C   UNL     1       2.074  -0.475  -0.224  0.00  0.00    -0.018 A 
ATOM     25  C   UNL     1       1.074  -1.424  -0.324  0.00  0.00    +0.006 A 
ATOM     26  C   UNL     1      -0.249  -1.028  -0.388  0.00  0.00    +0.000 A 
ENDBRANCH  20  24
BRANCH  20  27
ATOM     27  C   UNL     1       3.889  -1.615  -1.433  0.00  0.00    +0.239 C 
ATOM     28  O   UNL     1       4.273  -2.765  -1.398  0.00  0.00    -0.273 OA
ATOM     29  N   UNL     1       3.796  -0.972  -2.614  0.00  0.00    -0.311 N 
ATOM     30  H   UNL     1       3.489  -0.052  -2.642  0.00  0.00    +0.149 HD
BRANCH  29  31
ATOM     31  C   UNL     1       4.158  -1.662  -3.854  0.00  0.00    +0.073 C 
ATOM     32  C   UNL     1       5.667  -1.549  -4.079  0.00  0.00    +0.022 C 
ATOM     33  C   UNL     1       6.045  -2.269  -5.375  0.00  0.00    +0.002 C 
ATOM     34  C   UNL     1       5.305  -1.627  -6.550  0.00  0.00    +0.000 C 
ATOM     35  C   UNL     1       3.796  -1.740  -6.325  0.00  0.00    +0.002 C 
ATOM     36  C   UNL     1       3.418  -1.019  -5.029  0.00  0.00    +0.022 C 
ENDBRANCH  29  31
ENDBRANCH  20  27
ENDBRANCH   1  20
TORSDOF 8
