REMARK  Name = ZINC13064777
REMARK  14 active torsions:
REMARK  status: ('A' for Active; 'I' for Inactive)
REMARK    1  A    between atoms: C_1  and  C_2
REMARK    2  A    between atoms: C_2  and  C_3
REMARK    3  A    between atoms: C_3  and  C_5
REMARK    4  A    between atoms: C_3  and  N_65
REMARK    5  A    between atoms: N_9  and  C_10
REMARK    6  A    between atoms: C_10  and  C_11
REMARK    7  A    between atoms: C_10  and  C_12
REMARK    8  A    between atoms: C_10  and  C_13
REMARK    9  A    between atoms: C_14  and  C_15
REMARK   10  A    between atoms: C_14  and  N_65
REMARK   11  A    between atoms: C_20  and  C_21
REMARK   12  A    between atoms: C_20  and  N_65
REMARK   13  A    between atoms: C_24  and  C_34
REMARK   14  A    between atoms: C_26  and  C_33
REMARK                            x       y       z     vdW  Elec       q    Type
REMARK                         _______ _______ _______ _____ _____    ______ ____
ROOT
ATOM      1  N   UNL     1      -1.288   2.126   0.904  0.00  0.00    +0.392 N 
ATOM      2  H   UNL     1      -0.453   2.649   1.192  0.00  0.00    -0.080 HD
ENDROOT
BRANCH   1   3
ATOM      3  C   UNL     1      -0.880   0.771   0.474  0.00  0.00    +0.003 C 
BRANCH   3   4
ATOM      4  C   UNL     1       0.447   0.869  -0.233  0.00  0.00    +0.139 A 
ATOM      5  N   UNL     1       0.837   1.831  -1.034  0.00  0.00    -0.115 NA
ATOM      6  N   UNL     1       2.029   1.553  -1.437  0.00  0.00    -0.023 NA
ATOM      7  N   UNL     1       2.409   0.440  -0.914  0.00  0.00    -0.043 NA
ATOM      8  N   UNL     1       1.463  -0.010  -0.161  0.00  0.00    -0.226 N 
BRANCH   8   9
ATOM      9  C   UNL     1       1.489  -1.248   0.622  0.00  0.00    +0.059 C 
ATOM     10  C   UNL     1       0.275  -2.106   0.260  0.00  0.00    +0.036 C 
ATOM     11  C   UNL     1       2.771  -2.022   0.311  0.00  0.00    +0.036 C 
ATOM     12  C   UNL     1       1.447  -0.909   2.114  0.00  0.00    +0.036 C 
ENDBRANCH   8   9
ENDBRANCH   3   4
BRANCH   3  14
ATOM     13  C   UNL     1      -3.237  -0.035   0.278  0.00  0.00    +0.002 C 
ATOM     14  C   UNL     1      -1.922   0.176  -0.475  0.00  0.00    -0.011 C 
ENDBRANCH   3  14
ENDBRANCH   1   3
BRANCH   1  15
ATOM     15  C   UNL     1      -2.217   2.035   2.049  0.00  0.00    -0.034 C 
BRANCH  15  16
ATOM     16  C   UNL     1      -1.447   1.585   3.264  0.00  0.00    -0.027 A 
ATOM     17  C   UNL     1      -0.699   2.321   4.121  0.00  0.00    +0.009 A 
ATOM     18  C   UNL     1      -0.075   1.689   5.180  0.00  0.00    +0.008 A 
ATOM     19  C   UNL     1      -0.230   0.350   5.330  0.00  0.00    +0.045 A 
ATOM     20  S   UNL     1      -1.290  -0.055   3.952  0.00  0.00    -0.103 S 
ENDBRANCH  15  16
ENDBRANCH   1  15
BRANCH   1  21
ATOM     21  C   UNL     1      -1.936   2.837  -0.218  0.00  0.00    -0.036 C 
BRANCH  21  22
ATOM     22  C   UNL     1      -2.012   4.304   0.118  0.00  0.00    +0.001 A 
ATOM     23  C   UNL     1      -1.036   5.146  -0.305  0.00  0.00    +0.017 A 
ATOM     24  C   UNL     1      -1.139   6.565   0.038  0.00  0.00    +0.002 A 
ATOM     25  C   UNL     1      -0.165   7.481  -0.371  0.00  0.00    -0.041 A 
ATOM     26  C   UNL     1      -0.290   8.799  -0.035  0.00  0.00    +0.007 A 
ATOM     27  C   UNL     1      -1.377   9.238   0.710  0.00  0.00    -0.048 A 
ATOM     28  C   UNL     1      -2.349   8.353   1.124  0.00  0.00    +0.029 A 
ATOM     29  C   UNL     1      -2.243   7.006   0.793  0.00  0.00    +0.050 A 
ATOM     30  N   UNL     1      -3.201   6.099   1.193  0.00  0.00    -0.322 N 
ATOM     31  H   UNL     1      -3.961   6.405   1.713  0.00  0.00    +0.169 HD
ATOM     32  C   UNL     1      -3.100   4.798   0.868  0.00  0.00    +0.251 A 
ATOM     33  O   UNL     1      -3.969   4.026   1.235  0.00  0.00    -0.268 OA
ATOM     34  C   UNL     1      -1.494  10.697   1.070  0.00  0.00    +0.044 C 
ATOM     35  C   UNL     1       1.019   7.016  -1.179  0.00  0.00    +0.044 C 
ENDBRANCH  21  22
ENDBRANCH   1  21
TORSDOF 8
