REMARK  Name = ZINC37930727
REMARK  3 active torsions:
REMARK  status: ('A' for Active; 'I' for Inactive)
REMARK    1  A    between atoms: N_11  and  C_12
REMARK    2  A    between atoms: C_15  and  N_21
REMARK    3  A    between atoms: C_17  and  C_18
REMARK                            x       y       z     vdW  Elec       q    Type
REMARK                         _______ _______ _______ _____ _____    ______ ____
ROOT
ATOM      1  C   UNL     1      -0.017   1.379   0.010  0.00  0.00    +0.002 A 
ATOM      2  C   UNL     1       1.167   2.094   0.002  0.00  0.00    +0.002 A 
ATOM      3  C   UNL     1       2.381   1.431  -0.011  0.00  0.00    +0.025 A 
ATOM      4  C   UNL     1       2.406   0.047  -0.018  0.00  0.00    +0.056 A 
ATOM      5  C   UNL     1       1.213  -0.677  -0.014  0.00  0.00    +0.055 A 
ATOM      6  C   UNL     1       0.002  -0.004   0.002  0.00  0.00    +0.025 A 
ATOM      7  N   UNL     1       1.254  -2.076  -0.032  0.00  0.00    -0.283 N 
ATOM      8  C   UNL     1       2.399  -2.734   0.232  0.00  0.00    +0.235 C 
ATOM      9  O   UNL     1       2.424  -3.945   0.168  0.00  0.00    -0.274 OA
ATOM     10  C   UNL     1       3.651  -1.982   0.606  0.00  0.00    +0.207 C 
ATOM     11  N   UNL     1       3.620  -0.654  -0.025  0.00  0.00    -0.289 N 
ATOM     12  H   UNL     1       0.449  -2.577  -0.237  0.00  0.00    +0.155 HD
ENDROOT
BRANCH  11  13
ATOM     13  C   UNL     1       4.758  -0.112  -0.610  0.00  0.00    +0.049 A 
ATOM     14  C   UNL     1       5.631   0.661   0.146  0.00  0.00    +0.026 A 
ATOM     15  C   UNL     1       6.760   1.199  -0.433  0.00  0.00    +0.024 A 
ATOM     16  C   UNL     1       7.036   0.975  -1.779  0.00  0.00    +0.025 A 
ATOM     17  C   UNL     1       6.179   0.208  -2.547  0.00  0.00    +0.039 A 
ATOM     18  C   UNL     1       5.034  -0.348  -1.968  0.00  0.00    +0.086 A 
BRANCH  18  19
ATOM     19  C   UNL     1       4.120  -1.170  -2.775  0.00  0.00    +0.388 C 
ATOM     20  O   UNL     1       4.364  -1.373  -3.957  0.00  0.00    -0.241 OA
ATOM     21  O   UNL     1       3.117  -1.651  -2.266  0.00  0.00    -0.241 OA
ENDBRANCH  18  19
BRANCH  16  22
ATOM     22  N   UNL     1       8.185   1.527  -2.357  0.00  0.00    -0.358 N 
ATOM     23  H   UNL     1       8.787   2.066  -1.820  0.00  0.00    +0.142 HD
ATOM     24  H   UNL     1       8.379   1.372  -3.295  0.00  0.00    +0.142 HD
ENDBRANCH  16  22
ENDBRANCH  11  13
TORSDOF 3
