REMARK  Name = ZINC63472899
REMARK  6 active torsions:
REMARK  status: ('A' for Active; 'I' for Inactive)
REMARK    1  A    between atoms: C_4  and  O_40
REMARK    2  A    between atoms: C_5  and  C_7
REMARK    3  A    between atoms: N_15  and  C_18
REMARK    4  A    between atoms: C_25  and  C_27
REMARK    5  A    between atoms: C_25  and  C_37
REMARK    6  A    between atoms: C_27  and  C_28
REMARK                            x       y       z     vdW  Elec       q    Type
REMARK                         _______ _______ _______ _____ _____    ______ ____
ROOT
ATOM      1  C   UNL     1       1.227  -2.187  -0.022  0.00  0.00    -0.023 C 
ATOM      2  C   UNL     1       1.438  -2.731   1.387  0.00  0.00    +0.077 C 
ATOM      3  C   UNL     1       0.930  -4.197   1.109  0.00  0.00    +0.086 C 
ATOM      4  C   UNL     1       1.463  -4.918   2.240  0.00  0.00    +0.229 C 
ATOM      5  O   UNL     1       0.966  -5.862   2.814  0.00  0.00    -0.275 OA
ATOM      6  N   UNL     1       2.657  -4.301   2.523  0.00  0.00    -0.210 N 
ATOM      7  C   UNL     1       2.804  -3.089   1.881  0.00  0.00    +0.229 C 
ATOM      8  O   UNL     1       3.822  -2.446   1.737  0.00  0.00    -0.275 OA
ATOM      9  C   UNL     1      -0.341  -3.990   0.403  0.00  0.00    +0.052 C 
ATOM     10  N   UNL     1      -0.117  -2.732  -0.403  0.00  0.00    +0.396 N 
ATOM     11  H   UNL     1      -0.835  -2.060  -0.179  0.00  0.00    -0.083 HD
ATOM     12  H   UNL     1      -0.135  -2.938  -1.391  0.00  0.00    -0.083 HD
ENDROOT
BRANCH   6  13
ATOM     13  C   UNL     1       3.623  -4.838   3.385  0.00  0.00    +0.044 A 
ATOM     14  C   UNL     1       3.401  -6.062   4.002  0.00  0.00    +0.025 A 
ATOM     15  C   UNL     1       4.354  -6.589   4.851  0.00  0.00    +0.022 A 
ATOM     16  C   UNL     1       5.529  -5.899   5.088  0.00  0.00    +0.041 A 
ATOM     17  C   UNL     1       5.753  -4.679   4.474  0.00  0.00    +0.022 A 
ATOM     18  C   UNL     1       4.806  -4.151   3.619  0.00  0.00    +0.025 A 
ATOM     19 CL   UNL     1       6.726  -6.564   6.155  0.00  0.00    -0.084 Cl
ENDBRANCH   6  13
BRANCH   1  24
ATOM     20  C   UNL     1       0.018   1.377   0.284  0.00  0.00    +0.000 A 
ATOM     21  C   UNL     1       1.170   2.088   0.002  0.00  0.00    +0.004 A 
ATOM     22  C   UNL     1       2.343   1.419  -0.287  0.00  0.00    +0.045 A 
ATOM     23  C   UNL     1       2.364   0.031  -0.296  0.00  0.00    +0.118 A 
ATOM     24  C   UNL     1       1.207  -0.680  -0.013  0.00  0.00    -0.019 A 
ATOM     25  C   UNL     1       0.036  -0.005   0.276  0.00  0.00    +0.005 A 
BRANCH  23  26
ATOM     26  O   UNL     1       3.517  -0.630  -0.581  0.00  0.00    -0.507 OA
ATOM     27  H   UNL     1       4.061  -0.823   0.194  0.00  0.00    +0.292 HD
ENDBRANCH  23  26
ENDBRANCH   1  24
BRANCH   9  28
ATOM     28  C   UNL     1      -1.468  -3.819   1.389  0.00  0.00    +0.347 C 
ATOM     29  O   UNL     1      -2.122  -2.790   1.395  0.00  0.00    -0.248 OA
ATOM     30  O   UNL     1      -1.726  -4.710   2.180  0.00  0.00    -0.248 OA
ENDBRANCH   9  28
BRANCH   9  31
ATOM     31  C   UNL     1      -0.626  -5.163  -0.537  0.00  0.00    +0.033 C 
BRANCH  31  32
ATOM     32  C   UNL     1      -1.868  -4.874  -1.339  0.00  0.00    -0.042 C 
ATOM     33  C   UNL     1      -1.928  -4.341  -2.581  0.00  0.00    -0.001 A 
ATOM     34  C   UNL     1      -0.895  -3.887  -3.519  0.00  0.00    +0.010 A 
ATOM     35  C   UNL     1      -1.272  -3.387  -4.718  0.00  0.00    +0.001 A 
ATOM     36  C   UNL     1      -2.621  -3.290  -5.085  0.00  0.00    +0.002 A 
ATOM     37  C   UNL     1      -3.627  -3.686  -4.277  0.00  0.00    +0.026 A 
ATOM     38  C   UNL     1      -3.346  -4.229  -2.993  0.00  0.00    +0.043 A 
ATOM     39  N   UNL     1      -4.131  -4.675  -2.043  0.00  0.00    -0.380 N 
ATOM     40  C   UNL     1      -3.300  -5.127  -0.922  0.00  0.00    +0.144 C 
ATOM     41  H   UNL     1      -5.100  -4.705  -2.077  0.00  0.00    +0.160 HD
ENDBRANCH  31  32
ENDBRANCH   9  31
TORSDOF 6
