REMARK  Name = ZINC39324547
REMARK  15 active torsions:
REMARK  status: ('A' for Active; 'I' for Inactive)
REMARK    1  A    between atoms: C_1  and  C_2
REMARK    2  A    between atoms: C_2  and  C_3
REMARK    3  A    between atoms: C_2  and  N_4
REMARK    4  A    between atoms: C_7  and  C_8
REMARK    5  A    between atoms: C_13  and  O_14
REMARK    6  A    between atoms: O_14  and  C_15
REMARK    7  A    between atoms: C_15  and  C_16
REMARK    8  A    between atoms: C_15  and  C_17
REMARK    9  A    between atoms: C_21  and  C_29
REMARK   10  A    between atoms: C_23  and  C_27
REMARK   11  A    between atoms: C_24  and  N_26
REMARK   12  A    between atoms: C_34  and  O_35
REMARK   13  A    between atoms: O_35  and  C_36
REMARK   14  A    between atoms: C_36  and  C_37
REMARK   15  A    between atoms: C_36  and  C_38
REMARK                            x       y       z     vdW  Elec       q    Type
REMARK                         _______ _______ _______ _____ _____    ______ ____
ROOT
ATOM      1  N   UNL     1      -0.066  -0.266   2.162  0.00  0.00    -0.292 NA
ATOM      2  C   UNL     1       1.399  -0.392   2.270  0.00  0.00    +0.124 C 
ATOM      3  C   UNL     1       1.697  -0.893   3.668  0.00  0.00    +0.010 C 
ATOM      4  C   UNL     1       2.728  -0.402   4.380  0.00  0.00    +0.020 C 
ATOM      5  C   UNL     1       0.813  -1.939   4.221  0.00  0.00    +0.136 C 
ATOM      6  C   UNL     1      -0.315  -2.256   3.583  0.00  0.00    -0.000 C 
ATOM      7  C   UNL     1      -0.709  -1.573   2.298  0.00  0.00    +0.120 C 
ATOM      8  C   UNL     1      -1.234  -3.316   4.140  0.00  0.00    +0.099 C 
ATOM      9  C   UNL     1      -0.503  -4.175   5.133  0.00  0.00    +0.098 C 
ATOM     10  C   UNL     1       0.657  -3.750   5.692  0.00  0.00    +0.199 C 
ATOM     11  O   UNL     1       1.180  -2.554   5.372  0.00  0.00    -0.441 OA
ENDROOT
BRANCH   4  12
ATOM     12  C   UNL     1       3.676   0.534   3.753  0.00  0.00    +0.017 A 
ATOM     13  C   UNL     1       4.010   0.398   2.403  0.00  0.00    +0.011 A 
ATOM     14  C   UNL     1       4.898   1.278   1.823  0.00  0.00    +0.001 A 
ATOM     15  C   UNL     1       5.461   2.297   2.572  0.00  0.00    +0.004 A 
ATOM     16  C   UNL     1       5.140   2.442   3.909  0.00  0.00    +0.046 A 
ATOM     17  C   UNL     1       4.245   1.571   4.507  0.00  0.00    +0.128 A 
BRANCH  17  18
ATOM     18  O   UNL     1       3.924   1.716   5.818  0.00  0.00    -0.489 OA
BRANCH  18  19
ATOM     19  C   UNL     1       4.452   2.860   6.492  0.00  0.00    +0.167 C 
ATOM     20  C   UNL     1       3.564   3.201   7.691  0.00  0.00    +0.051 C 
ATOM     21  C   UNL     1       5.871   2.555   6.979  0.00  0.00    +0.051 C 
ENDBRANCH  18  19
ENDBRANCH  17  18
ENDBRANCH   4  12
BRANCH   8  22
ATOM     22  C   UNL     1      -2.402  -2.654   4.825  0.00  0.00    +0.007 A 
ATOM     23  C   UNL     1      -2.186  -1.799   5.888  0.00  0.00    +0.008 A 
ATOM     24  C   UNL     1      -3.257  -1.192   6.517  0.00  0.00    +0.001 A 
ATOM     25  C   UNL     1      -4.547  -1.439   6.083  0.00  0.00    +0.004 A 
ATOM     26  C   UNL     1      -4.768  -2.293   5.021  0.00  0.00    +0.046 A 
ATOM     27  C   UNL     1      -3.695  -2.899   4.385  0.00  0.00    +0.125 A 
BRANCH  27  28
ATOM     28  O   UNL     1      -3.909  -3.736   3.335  0.00  0.00    -0.489 OA
BRANCH  28  29
ATOM     29  C   UNL     1      -5.269  -4.036   3.012  0.00  0.00    +0.167 C 
ATOM     30  C   UNL     1      -5.831  -2.941   2.104  0.00  0.00    +0.051 C 
ATOM     31  C   UNL     1      -5.335  -5.383   2.289  0.00  0.00    +0.051 C 
ENDBRANCH  28  29
ENDBRANCH  27  28
ENDBRANCH   8  22
BRANCH   1  33
ATOM     32  C   UNL     1       0.142   1.791   0.849  0.00  0.00    +0.024 C 
ATOM     33  C   UNL     1      -0.447   0.380   0.899  0.00  0.00    +0.051 C 
ATOM     34  C   UNL     1       0.092  -0.440  -0.275  0.00  0.00    +0.024 C 
ENDBRANCH   1  33
BRANCH  10  35
ATOM     35  N   UNL     1       1.307  -4.553   6.597  0.00  0.00    -0.328 N 
ATOM     36  H   UNL     1       0.935  -5.417   6.833  0.00  0.00    +0.145 HD
ATOM     37  H   UNL     1       2.137  -4.255   7.002  0.00  0.00    +0.145 HD
ENDBRANCH  10  35
BRANCH   9  38
ATOM     38  C   UNL     1      -1.036  -5.454   5.492  0.00  0.00    +0.101 C 
ATOM     39  N   UNL     1      -1.459  -6.469   5.777  0.00  0.00    -0.191 NA
ENDBRANCH   9  38
TORSDOF 9
