REMARK  Name = ZINC06198133
REMARK  15 active torsions:
REMARK  status: ('A' for Active; 'I' for Inactive)
REMARK    1  A    between atoms: C_1  and  C_2
REMARK    2  A    between atoms: C_2  and  C_3
REMARK    3  A    between atoms: C_10  and  C_15
REMARK    4  A    between atoms: C_15  and  C_17
REMARK    5  A    between atoms: C_15  and  N_73
REMARK    6  A    between atoms: N_21  and  C_22
REMARK    7  A    between atoms: C_22  and  C_23
REMARK    8  A    between atoms: C_22  and  C_24
REMARK    9  A    between atoms: C_22  and  C_25
REMARK   10  A    between atoms: C_26  and  C_27
REMARK   11  A    between atoms: C_26  and  N_73
REMARK   12  A    between atoms: C_31  and  O_33
REMARK   13  A    between atoms: O_33  and  C_34
REMARK   14  A    between atoms: C_35  and  C_36
REMARK   15  A    between atoms: C_35  and  N_73
REMARK                            x       y       z     vdW  Elec       q    Type
REMARK                         _______ _______ _______ _____ _____    ______ ____
ROOT
ATOM      1  C   UNL     1       3.430   0.647  -0.195  0.00  0.00    +0.040 C 
ENDROOT
BRANCH   1   9
ATOM      2  C   UNL     1       2.297  -0.387  -6.189  0.00  0.00    -0.047 A 
ATOM      3  C   UNL     1       3.517   0.079  -6.661  0.00  0.00    +0.005 A 
ATOM      4  C   UNL     1       4.470   0.561  -5.790  0.00  0.00    +0.026 A 
ATOM      5  C   UNL     1       4.210   0.580  -4.424  0.00  0.00    +0.049 A 
ATOM      6  C   UNL     1       2.972   0.106  -3.949  0.00  0.00    -0.001 A 
ATOM      7  C   UNL     1       2.020  -0.378  -4.852  0.00  0.00    +0.013 A 
ATOM      8  C   UNL     1       2.710   0.125  -2.509  0.00  0.00    +0.017 A 
ATOM      9  C   UNL     1       3.670   0.609  -1.683  0.00  0.00    +0.011 A 
ATOM     10  C   UNL     1       4.894   1.073  -2.209  0.00  0.00    +0.251 A 
ATOM     11  O   UNL     1       5.745   1.500  -1.448  0.00  0.00    -0.268 OA
ATOM     12  N   UNL     1       5.146   1.055  -3.530  0.00  0.00    -0.322 N 
ATOM     13  H   UNL     1       6.024   1.392  -3.869  0.00  0.00    +0.169 HD
BRANCH   2  15
ATOM     14  C   UNL     1       0.368   0.240  -7.615  0.00  0.00    +0.009 C 
ATOM     15  C   UNL     1       1.271  -0.909  -7.162  0.00  0.00    +0.032 C 
ENDBRANCH   2  15
ENDBRANCH   1   9
BRANCH   1  16
ATOM     16  C   UNL     1       1.996   0.285   0.092  0.00  0.00    +0.143 A 
ATOM     17  N   UNL     1       0.929   0.910  -0.342  0.00  0.00    -0.115 NA
ATOM     18  N   UNL     1      -0.106   0.298   0.120  0.00  0.00    -0.023 NA
ATOM     19  N   UNL     1       0.272  -0.702   0.837  0.00  0.00    -0.043 NA
ATOM     20  N   UNL     1       1.562  -0.744   0.844  0.00  0.00    -0.225 N 
BRANCH  20  21
ATOM     21  C   UNL     1       2.397  -1.726   1.541  0.00  0.00    +0.059 C 
ATOM     22  C   UNL     1       1.502  -2.761   2.225  0.00  0.00    +0.036 C 
ATOM     23  C   UNL     1       3.308  -2.427   0.532  0.00  0.00    +0.036 C 
ATOM     24  C   UNL     1       3.251  -1.015   2.592  0.00  0.00    +0.036 C 
ENDBRANCH  20  21
ENDBRANCH   1  16
BRANCH   1  25
ATOM     25  N   UNL     1       3.730   2.007   0.301  0.00  0.00    +0.397 N 
ATOM     26  H   UNL     1       4.638   2.306  -0.075  0.00  0.00    -0.079 HD
BRANCH  25  27
ATOM     27  C   UNL     1       3.800   2.002   1.777  0.00  0.00    -0.041 C 
BRANCH  27  28
ATOM     28  C   UNL     1       4.271   3.354   2.246  0.00  0.00    -0.060 A 
ATOM     29  C   UNL     1       3.352   4.301   2.659  0.00  0.00    +0.002 A 
ATOM     30  C   UNL     1       3.781   5.543   3.091  0.00  0.00    +0.004 A 
ATOM     31  C   UNL     1       5.131   5.840   3.111  0.00  0.00    +0.045 A 
ATOM     32  C   UNL     1       6.055   4.892   2.697  0.00  0.00    +0.120 A 
ATOM     33  C   UNL     1       5.621   3.645   2.269  0.00  0.00    +0.047 A 
BRANCH  32  34
ATOM     34  O   UNL     1       7.382   5.181   2.716  0.00  0.00    -0.495 OA
ATOM     35  C   UNL     1       7.756   6.482   3.175  0.00  0.00    +0.277 C 
ENDBRANCH  32  34
ENDBRANCH  27  28
ENDBRANCH  25  27
BRANCH  25  36
ATOM     36  C   UNL     1       2.688   2.951  -0.153  0.00  0.00    -0.001 C 
BRANCH  36  37
ATOM     37  C   UNL     1       2.967   3.325  -1.586  0.00  0.00    +0.089 A 
ATOM     38  C   UNL     1       2.352   2.814  -2.667  0.00  0.00    +0.042 A 
ATOM     39  C   UNL     1       2.920   3.443  -3.798  0.00  0.00    +0.041 A 
ATOM     40  C   UNL     1       3.849   4.302  -3.341  0.00  0.00    +0.195 A 
ATOM     41  O   UNL     1       3.869   4.231  -2.000  0.00  0.00    -0.470 OA
ENDBRANCH  36  37
ENDBRANCH  25  36
ENDBRANCH   1  25
TORSDOF 10
