REMARK  Name = ZINC15934686
REMARK  7 active torsions:
REMARK  status: ('A' for Active; 'I' for Inactive)
REMARK    1  A    between atoms: C_1  and  C_2
REMARK    2  A    between atoms: C_2  and  C_10
REMARK    3  A    between atoms: C_3  and  C_4
REMARK    4  A    between atoms: N_11  and  N_12
REMARK    5  A    between atoms: C_13  and  C_15
REMARK    6  A    between atoms: C_16  and  C_26
REMARK    7  A    between atoms: C_26  and  N_27
REMARK                            x       y       z     vdW  Elec       q    Type
REMARK                         _______ _______ _______ _____ _____    ______ ____
ROOT
ATOM      1  C   UNL     1      -0.339  -0.744  -6.007  0.00  0.00    +0.170 A 
ATOM      2  C   UNL     1      -0.603  -0.198  -7.231  0.00  0.00    +0.063 A 
ATOM      3  N   UNL     1      -0.339  -1.154  -8.150  0.00  0.00    -0.194 N 
ATOM      4  N   UNL     1       0.089  -2.286  -7.443  0.00  0.00    -0.058 NA
ATOM      5  N   UNL     1       0.083  -2.008  -6.186  0.00  0.00    -0.124 NA
ATOM      6  C   UNL     1      -0.470  -1.036  -9.538  0.00  0.00    +0.240 A 
ATOM      7  C   UNL     1      -0.184  -2.087 -10.519  0.00  0.00    +0.206 A 
ATOM      8  N   UNL     1      -0.421  -1.611 -11.711  0.00  0.00    -0.032 NA
ATOM      9  O   UNL     1      -0.858  -0.271 -11.564  0.00  0.00    -0.239 OA
ATOM     10  N   UNL     1      -0.871   0.026 -10.179  0.00  0.00    -0.027 NA
ATOM     11  N   UNL     1       0.263  -3.371 -10.229  0.00  0.00    -0.337 N 
ATOM     12  H   UNL     1       0.412  -3.636  -9.308  0.00  0.00    +0.144 HD
ATOM     13  H   UNL     1       0.425  -4.002 -10.948  0.00  0.00    +0.144 HD
ENDROOT
BRANCH   1  15
ATOM     14  N   UNL     1      -0.185  -0.711  -3.567  0.00  0.00    -0.202 N 
ATOM     15  C   UNL     1      -0.485  -0.060  -4.709  0.00  0.00    +0.285 C 
ATOM     16  O   UNL     1      -0.877   1.091  -4.668  0.00  0.00    -0.267 OA
ATOM     17  H   UNL     1       0.127  -1.628  -3.599  0.00  0.00    +0.178 HD
BRANCH  14  19
ATOM     18  C   UNL     1      -0.035  -0.690  -1.230  0.00  0.00    +0.133 C 
ATOM     19  N   UNL     1      -0.325  -0.061  -2.333  0.00  0.00    -0.188 NA
BRANCH  18  21
ATOM     20  C   UNL     1      -0.661   1.394   0.069  0.00  0.00    +0.045 C 
ATOM     21  C   UNL     1      -0.176  -0.032   0.018  0.00  0.00    -0.030 C 
ATOM     22  C   UNL     1       0.124  -0.683   1.161  0.00  0.00    +0.012 C 
BRANCH  22  23
ATOM     23  C   UNL     1       0.127   0.042   2.442  0.00  0.00    -0.025 A 
ATOM     24  C   UNL     1      -0.261  -0.608   3.618  0.00  0.00    +0.008 A 
ATOM     25  C   UNL     1      -0.256   0.077   4.814  0.00  0.00    +0.001 A 
ATOM     26  C   UNL     1       0.132   1.405   4.853  0.00  0.00    +0.000 A 
ATOM     27  C   UNL     1       0.517   2.056   3.693  0.00  0.00    +0.001 A 
ATOM     28  C   UNL     1       0.522   1.382   2.490  0.00  0.00    +0.008 A 
ENDBRANCH  22  23
ENDBRANCH  18  21
ENDBRANCH  14  19
ENDBRANCH   1  15
BRANCH   2  29
ATOM     29  C   UNL     1      -1.093   1.201  -7.505  0.00  0.00    -0.020 C 
BRANCH  29  30
ATOM     30  N   UNL     1      -2.562   1.213  -7.508  0.00  0.00    +0.383 N 
ATOM     31  C   UNL     1      -3.054   0.395  -8.623  0.00  0.00    -0.078 C 
ATOM     32  C   UNL     1      -4.582   0.338  -8.583  0.00  0.00    -0.019 C 
ATOM     33  C   UNL     1      -5.144   1.758  -8.703  0.00  0.00    -0.004 C 
ATOM     34  C   UNL     1      -4.566   2.621  -7.578  0.00  0.00    -0.019 C 
ATOM     35  C   UNL     1      -3.038   2.594  -7.655  0.00  0.00    -0.078 C 
ATOM     36  H   UNL     1      -2.902   0.832  -6.638  0.00  0.00    -0.081 HD
ENDBRANCH  29  30
ENDBRANCH   2  29
TORSDOF 6
