REMARK  Name = ZINC39239753
REMARK  10 active torsions:
REMARK  status: ('A' for Active; 'I' for Inactive)
REMARK    1  A    between atoms: C_1  and  C_2
REMARK    2  A    between atoms: C_3  and  C_25
REMARK    3  A    between atoms: C_5  and  C_7
REMARK    4  A    between atoms: C_15  and  C_16
REMARK    5  A    between atoms: C_18  and  N_24
REMARK    6  A    between atoms: C_19  and  C_20
REMARK    7  A    between atoms: C_20  and  O_22
REMARK    8  A    between atoms: O_22  and  C_23
REMARK    9  A    between atoms: C_25  and  O_26
REMARK   10  A    between atoms: O_26  and  C_27
REMARK                            x       y       z     vdW  Elec       q    Type
REMARK                         _______ _______ _______ _____ _____    ______ ____
ROOT
ATOM      1  C   UNL     1       1.303  -4.011   0.232  0.00  0.00    +0.081 C 
ATOM      2  C   UNL     1       1.762  -4.285  -1.171  0.00  0.00    +0.108 C 
ATOM      3  C   UNL     1       2.834  -5.381  -1.287  0.00  0.00    +0.286 C 
ATOM      4  N   UNL     1       3.469  -4.951  -2.571  0.00  0.00    -0.230 N 
ATOM      5  N   UNL     1       3.315  -3.558  -2.635  0.00  0.00    -0.193 NA
ATOM      6  C   UNL     1       2.388  -3.125  -1.887  0.00  0.00    +0.043 C 
ATOM      7  C   UNL     1       1.979  -1.680  -1.760  0.00  0.00    +0.063 C 
ATOM      8  O   UNL     1       3.841  -5.219  -0.287  0.00  0.00    -0.456 OA
ATOM      9  C   UNL     1       3.555  -4.766   0.932  0.00  0.00    +0.191 C 
ATOM     10  C   UNL     1       2.417  -4.127   1.231  0.00  0.00    +0.102 C 
ATOM     11  H   UNL     1       3.900  -5.520  -3.228  0.00  0.00    +0.172 HD
ENDROOT
BRANCH   1  16
ATOM     12  C   UNL     1      -1.647   0.822   0.076  0.00  0.00    +0.052 C 
ATOM     13  C   UNL     1      -0.670  -0.316   0.220  0.00  0.00    -0.007 A 
ATOM     14  C   UNL     1       0.594  -0.299   0.709  0.00  0.00    -0.000 A 
ATOM     15  C   UNL     1       1.313  -1.478   0.748  0.00  0.00    +0.019 A 
ATOM     16  C   UNL     1       0.734  -2.617   0.295  0.00  0.00    -0.001 A 
ATOM     17  S   UNL     1      -0.880  -2.038  -0.201  0.00  0.00    -0.097 S 
BRANCH  14  18
ATOM     18  C   UNL     1       1.205   0.987   1.204  0.00  0.00    +0.265 C 
BRANCH  18  19
ATOM     19  O   UNL     1       2.535   0.735   1.664  0.00  0.00    -0.486 OA
BRANCH  19  20
ATOM     20  C   UNL     1       3.232   1.798   2.146  0.00  0.00    +0.139 A 
ATOM     21  C   UNL     1       2.646   3.055   2.181  0.00  0.00    +0.050 A 
ATOM     22  C   UNL     1       3.356   4.134   2.672  0.00  0.00    +0.042 A 
ATOM     23  C   UNL     1       4.651   3.962   3.129  0.00  0.00    +0.125 A 
ATOM     24  C   UNL     1       5.238   2.709   3.095  0.00  0.00    +0.062 A 
ATOM     25  C   UNL     1       4.529   1.626   2.610  0.00  0.00    +0.085 A 
ATOM     26 CL   UNL     1       5.262   0.053   2.574  0.00  0.00    -0.080 Cl
ATOM     27  F   UNL     1       5.343   5.019   3.608  0.00  0.00    -0.205 F 
ENDBRANCH  19  20
ENDBRANCH  18  19
ENDBRANCH  14  18
ENDBRANCH   1  16
BRANCH   9  28
ATOM     28  N   UNL     1       4.489  -4.922   1.920  0.00  0.00    -0.329 N 
ATOM     29  H   UNL     1       5.364  -5.282   1.707  0.00  0.00    +0.145 HD
ATOM     30  H   UNL     1       4.276  -4.673   2.833  0.00  0.00    +0.145 HD
ENDBRANCH   9  28
BRANCH  10  31
ATOM     31  C   UNL     1       2.247  -3.594   2.517  0.00  0.00    +0.340 C 
ATOM     32  O   UNL     1       1.474  -4.122   3.298  0.00  0.00    -0.245 OA
BRANCH  31  33
ATOM     33  O   UNL     1       2.939  -2.496   2.890  0.00  0.00    -0.465 OA
ATOM     34  C   UNL     1       2.717  -2.008   4.215  0.00  0.00    +0.280 C 
ENDBRANCH  31  33
ENDBRANCH  10  31
TORSDOF 7
