REMARK  Name = ZINC20286650
REMARK  11 active torsions:
REMARK  status: ('A' for Active; 'I' for Inactive)
REMARK    1  A    between atoms: C_1  and  C_2
REMARK    2  A    between atoms: C_2  and  O_3
REMARK    3  A    between atoms: O_3  and  C_4
REMARK    4  A    between atoms: C_9  and  N_10
REMARK    5  A    between atoms: C_11  and  C_13
REMARK    6  A    between atoms: C_13  and  C_15
REMARK    7  A    between atoms: C_13  and  N_21
REMARK    8  A    between atoms: N_21  and  S_22
REMARK    9  A    between atoms: S_22  and  C_25
REMARK   10  A    between atoms: N_33  and  C_38
REMARK   11  A    between atoms: N_36  and  C_37
REMARK                            x       y       z     vdW  Elec       q    Type
REMARK                         _______ _______ _______ _____ _____    ______ ____
ROOT
ATOM      1  C   UNL     1       0.058   7.274   4.728  0.00  0.00    +0.192 C 
ENDROOT
BRANCH   1   2
ATOM      2  C   UNL     1       0.364   8.652   4.199  0.00  0.00    -0.020 A 
ATOM      3  C   UNL     1      -0.008   9.769   4.923  0.00  0.00    +0.006 A 
ATOM      4  C   UNL     1       0.276  11.032   4.440  0.00  0.00    +0.000 A 
ATOM      5  C   UNL     1       0.924  11.179   3.228  0.00  0.00    +0.000 A 
ATOM      6  C   UNL     1       1.292  10.062   2.501  0.00  0.00    +0.000 A 
ATOM      7  C   UNL     1       1.012   8.799   2.986  0.00  0.00    +0.006 A 
ENDBRANCH   1   2
BRANCH   1   9
ATOM      8  N   UNL     1       2.390   6.831   5.423  0.00  0.00    -0.281 N 
ATOM      9  C   UNL     1       1.087   6.893   5.761  0.00  0.00    +0.240 C 
ATOM     10  O   UNL     1       0.742   6.643   6.897  0.00  0.00    -0.273 OA
ATOM     11  H   UNL     1       2.694   6.968   4.375  0.00  0.00    +0.155 HD
BRANCH   8  17
ATOM     12  C   UNL     1       4.584   6.028   6.059  0.00  0.00    +0.142 A 
ATOM     13  C   UNL     1       5.538   5.793   7.036  0.00  0.00    +0.047 A 
ATOM     14  C   UNL     1       5.272   6.117   8.353  0.00  0.00    +0.004 A 
ATOM     15  C   UNL     1       4.056   6.676   8.700  0.00  0.00    +0.002 A 
ATOM     16  C   UNL     1       3.101   6.918   7.731  0.00  0.00    +0.027 A 
ATOM     17  C   UNL     1       3.359   6.590   6.407  0.00  0.00    +0.076 A 
BRANCH  12  18
ATOM     18  O   UNL     1       4.844   5.711   4.762  0.00  0.00    -0.490 OA
BRANCH  18  20
ATOM     19  C   UNL     1       6.231   4.849   2.980  0.00  0.00    +0.048 C 
ATOM     20  C   UNL     1       6.122   5.137   4.479  0.00  0.00    +0.226 C 
ENDBRANCH  18  20
ENDBRANCH  12  18
ENDBRANCH   8  17
ENDBRANCH   1   9
BRANCH   1  21
ATOM     21  N   UNL     1      -1.273   7.271   5.340  0.00  0.00    -0.174 NA
ATOM     22  H   UNL     1      -1.380   7.425   6.423  0.00  0.00    +0.149 HD
BRANCH  21  23
ATOM     23  S   UNL     1      -2.589   6.792   4.456  0.00  0.00    +0.059 S 
ATOM     24  O   UNL     1      -2.527   7.496   3.223  0.00  0.00    -0.153 OA
ATOM     25  O   UNL     1      -3.712   6.872   5.323  0.00  0.00    -0.153 OA
BRANCH  23  26
ATOM     26  C   UNL     1      -2.368   5.086   4.074  0.00  0.00    +0.106 A 
ATOM     27  C   UNL     1      -2.854   4.118   4.939  0.00  0.00    +0.030 A 
ATOM     28  C   UNL     1      -2.691   2.776   4.657  0.00  0.00    +0.028 A 
ATOM     29  C   UNL     1      -2.035   2.392   3.498  0.00  0.00    +0.058 A 
ATOM     30  C   UNL     1      -1.542   3.372   2.620  0.00  0.00    +0.065 A 
ATOM     31  C   UNL     1      -1.713   4.722   2.916  0.00  0.00    +0.043 A 
ATOM     32  C   UNL     1      -0.845   2.928   1.400  0.00  0.00    +0.264 A 
ATOM     33  O   UNL     1      -0.395   3.736   0.610  0.00  0.00    -0.267 OA
ATOM     34  N   UNL     1      -0.724   1.601   1.179  0.00  0.00    -0.263 N 
ATOM     35  C   UNL     1      -1.213   0.703   2.048  0.00  0.00    +0.332 A 
ATOM     36  O   UNL     1      -1.072  -0.480   1.803  0.00  0.00    -0.246 OA
ATOM     37  N   UNL     1      -1.851   1.054   3.177  0.00  0.00    -0.296 N 
ATOM     38  C   UNL     1      -2.357   0.016   4.078  0.00  0.00    +0.154 C 
ATOM     39  C   UNL     1      -0.041   1.134  -0.030  0.00  0.00    +0.157 C 
ENDBRANCH  23  26
ENDBRANCH  21  23
ENDBRANCH   1  21
TORSDOF 8
