REMARK  Name = ZINC39664345
REMARK  10 active torsions:
REMARK  status: ('A' for Active; 'I' for Inactive)
REMARK    1  A    between atoms: C_1  and  C_2
REMARK    2  A    between atoms: C_2  and  C_3
REMARK    3  A    between atoms: C_3  and  C_4
REMARK    4  A    between atoms: C_3  and  C_6
REMARK    5  A    between atoms: C_4  and  C_5
REMARK    6  A    between atoms: C_10  and  C_19
REMARK    7  A    between atoms: N_21  and  C_22
REMARK    8  A    between atoms: C_22  and  C_23
REMARK    9  A    between atoms: C_23  and  C_25
REMARK   10  A    between atoms: C_23  and  N_31
REMARK                            x       y       z     vdW  Elec       q    Type
REMARK                         _______ _______ _______ _____ _____    ______ ____
ROOT
ATOM      1  C   UNL     1       0.099  -1.997  -1.412  0.00  0.00    +0.219 C 
ATOM      2  O   UNL     1      -0.647  -2.589  -0.662  0.00  0.00    -0.275 OA
ATOM      3  N   UNL     1       0.713  -2.660  -2.413  0.00  0.00    -0.300 N 
ATOM      4  C   UNL     1       1.581  -2.099  -3.475  0.00  0.00    +0.121 C 
ATOM      5  C   UNL     1       2.708  -3.141  -3.648  0.00  0.00    +0.100 C 
ATOM      6  C   UNL     1       2.105  -4.461  -3.139  0.00  0.00    -0.004 C 
ATOM      7  C   UNL     1       0.676  -4.114  -2.697  0.00  0.00    +0.115 C 
ATOM      8  C   UNL     1       2.906  -4.986  -1.952  0.00  0.00    -0.010 C 
ATOM      9  C   UNL     1       2.321  -6.327  -1.500  0.00  0.00    -0.082 C 
ATOM     10  N   UNL     1       2.372  -7.284  -2.612  0.00  0.00    +0.379 N 
ATOM     11  C   UNL     1       1.524  -6.816  -3.715  0.00  0.00    -0.082 C 
ATOM     12  C   UNL     1       2.075  -5.496  -4.260  0.00  0.00    -0.010 C 
ATOM     13  H   UNL     1       3.324  -7.372  -2.935  0.00  0.00    -0.086 HD
ATOM     14  H   UNL     1       2.043  -8.184  -2.295  0.00  0.00    -0.086 HD
ENDROOT
BRANCH   5  15
ATOM     15  C   UNL     1       3.093  -3.263  -5.100  0.00  0.00    +0.218 C 
ATOM     16  O   UNL     1       2.289  -2.988  -5.965  0.00  0.00    -0.275 OA
ATOM     17  N   UNL     1       4.331  -3.676  -5.437  0.00  0.00    -0.313 N 
ATOM     18  H   UNL     1       4.974  -3.896  -4.745  0.00  0.00    +0.149 HD
BRANCH  17  19
ATOM     19  C   UNL     1       4.705  -3.794  -6.849  0.00  0.00    +0.127 C 
BRANCH  19  20
ATOM     20  C   UNL     1       6.110  -4.391  -6.956  0.00  0.00    +0.104 C 
BRANCH  20  21
ATOM     21  C   UNL     1       7.103  -3.455  -6.316  0.00  0.00    -0.029 A 
ATOM     22  C   UNL     1       7.553  -2.346  -7.008  0.00  0.00    +0.005 A 
ATOM     23  C   UNL     1       8.463  -1.488  -6.420  0.00  0.00    +0.000 A 
ATOM     24  C   UNL     1       8.924  -1.739  -5.141  0.00  0.00    +0.000 A 
ATOM     25  C   UNL     1       8.474  -2.847  -4.450  0.00  0.00    +0.000 A 
ATOM     26  C   UNL     1       7.560  -3.703  -5.035  0.00  0.00    +0.005 A 
ENDBRANCH  20  21
BRANCH  20  27
ATOM     27  N   UNL     1       6.455  -4.578  -8.371  0.00  0.00    -0.290 NA
ATOM     28  C   UNL     1       5.412  -5.341  -9.072  0.00  0.00    +0.113 C 
ATOM     29  C   UNL     1       5.782  -5.461 -10.553  0.00  0.00    +0.175 C 
ATOM     30  O   UNL     1       7.070  -6.072 -10.668  0.00  0.00    -0.377 OA
ATOM     31  C   UNL     1       8.110  -5.355  -9.998  0.00  0.00    +0.175 C 
ATOM     32  C   UNL     1       7.763  -5.234  -8.512  0.00  0.00    +0.113 C 
ENDBRANCH  20  27
ENDBRANCH  19  20
ENDBRANCH  17  19
ENDBRANCH   5  15
BRANCH   1  33
ATOM     33  C   UNL     1       0.342  -0.522  -1.226  0.00  0.00    +0.075 C 
BRANCH  33  35
ATOM     34  C   UNL     1      -0.444   1.765  -1.856  0.00  0.00    +0.004 C 
ATOM     35  C   UNL     1      -0.757   0.270  -1.939  0.00  0.00    +0.009 C 
ENDBRANCH  33  35
BRANCH  33  36
ATOM     36  C   UNL     1       0.324  -0.187   0.267  0.00  0.00    +0.009 C 
ATOM     37  C   UNL     1       1.507  -0.870   0.957  0.00  0.00    +0.004 C 
ENDBRANCH  33  36
ENDBRANCH   1  33
TORSDOF 8
