REMARK  Name = ZINC63139392
REMARK  9 active torsions:
REMARK  status: ('A' for Active; 'I' for Inactive)
REMARK    1  A    between atoms: C_1  and  O_2
REMARK    2  A    between atoms: O_2  and  C_3
REMARK    3  A    between atoms: C_5  and  C_13
REMARK    4  A    between atoms: C_7  and  O_11
REMARK    5  A    between atoms: C_8  and  O_9
REMARK    6  A    between atoms: O_9  and  C_10
REMARK    7  A    between atoms: O_11  and  C_12
REMARK    8  A    between atoms: N_32  and  C_35
REMARK    9  A    between atoms: C_35  and  C_36
REMARK                            x       y       z     vdW  Elec       q    Type
REMARK                         _______ _______ _______ _____ _____    ______ ____
ROOT
ATOM      1  C   UNL     1      -4.871   0.264   0.038  0.00  0.00    +0.134 C 
ATOM      2  C   UNL     1      -5.399   0.341   1.470  0.00  0.00    +0.131 C 
ATOM      3  C   UNL     1      -6.012  -1.027   1.764  0.00  0.00    -0.034 C 
ATOM      4  C   UNL     1      -5.336  -1.538   2.784  0.00  0.00    -0.001 A 
ATOM      5  C   UNL     1      -5.485  -2.803   3.523  0.00  0.00    +0.010 A 
ATOM      6  C   UNL     1      -4.601  -3.015   4.532  0.00  0.00    +0.001 A 
ATOM      7  C   UNL     1      -3.594  -2.107   4.877  0.00  0.00    +0.002 A 
ATOM      8  C   UNL     1      -3.386  -0.920   4.254  0.00  0.00    +0.026 A 
ATOM      9  C   UNL     1      -4.256  -0.583   3.176  0.00  0.00    +0.043 A 
ATOM     10  N   UNL     1      -4.289   0.496   2.420  0.00  0.00    -0.375 N 
ATOM     11  C   UNL     1      -7.147  -1.565   0.937  0.00  0.00    +0.065 C 
ATOM     12  C   UNL     1      -6.913  -1.254  -0.518  0.00  0.00    +0.167 C 
ATOM     13  N   UNL     1      -5.832  -0.357  -0.862  0.00  0.00    -0.279 N 
ATOM     14  C   UNL     1      -5.680  -0.108  -2.204  0.00  0.00    +0.234 C 
ATOM     15  O   UNL     1      -4.853   0.680  -2.614  0.00  0.00    -0.274 OA
ATOM     16  C   UNL     1      -6.591  -0.863  -3.148  0.00  0.00    +0.204 C 
ATOM     17  N   UNL     1      -6.654  -2.270  -2.712  0.00  0.00    -0.287 N 
ATOM     18  C   UNL     1      -6.840  -2.489  -1.381  0.00  0.00    +0.237 C 
ATOM     19  O   UNL     1      -6.939  -3.606  -0.920  0.00  0.00    -0.274 OA
ATOM     20  H   UNL     1      -3.691   1.258   2.470  0.00  0.00    +0.160 HD
ENDROOT
BRANCH   1  23
ATOM     21  C   UNL     1      -1.201  -0.638   0.010  0.00  0.00    +0.165 A 
ATOM     22  C   UNL     1      -2.375   0.101   0.019  0.00  0.00    +0.055 A 
ATOM     23  C   UNL     1      -3.598  -0.543   0.028  0.00  0.00    -0.018 A 
ATOM     24  C   UNL     1      -3.657  -1.924   0.027  0.00  0.00    +0.055 A 
ATOM     25  C   UNL     1      -2.488  -2.670   0.017  0.00  0.00    +0.165 A 
ATOM     26  C   UNL     1      -1.256  -2.027   0.003  0.00  0.00    +0.204 A 
BRANCH  21  28
ATOM     27  C   UNL     1      -0.017   1.425   0.010  0.00  0.00    +0.277 C 
ATOM     28  O   UNL     1       0.002  -0.004   0.002  0.00  0.00    -0.491 OA
ENDBRANCH  21  28
BRANCH  26  29
ATOM     29  O   UNL     1      -0.106  -2.755  -0.012  0.00  0.00    -0.488 OA
ATOM     30  C   UNL     1       0.454  -3.109   1.254  0.00  0.00    +0.277 C 
ENDBRANCH  26  29
BRANCH  25  31
ATOM     31  O   UNL     1      -2.547  -4.028   0.017  0.00  0.00    -0.491 OA
ATOM     32  C   UNL     1      -3.847  -4.621   0.026  0.00  0.00    +0.277 C 
ENDBRANCH  25  31
ENDBRANCH   1  23
BRANCH  17  33
ATOM     33  C   UNL     1      -6.524  -3.376  -3.663  0.00  0.00    +0.143 C 
BRANCH  33  34
ATOM     34  C   UNL     1      -5.072  -3.758  -3.794  0.00  0.00    -0.030 A 
ATOM     35  C   UNL     1      -4.279  -3.144  -4.745  0.00  0.00    +0.005 A 
ATOM     36  C   UNL     1      -2.947  -3.494  -4.865  0.00  0.00    +0.000 A 
ATOM     37  C   UNL     1      -2.408  -4.458  -4.033  0.00  0.00    +0.000 A 
ATOM     38  C   UNL     1      -3.201  -5.071  -3.081  0.00  0.00    +0.000 A 
ATOM     39  C   UNL     1      -4.532  -4.718  -2.958  0.00  0.00    +0.005 A 
ENDBRANCH  33  34
ENDBRANCH  17  33
TORSDOF 6
