REMARK  Name = ZINC01949990
REMARK  7 active torsions:
REMARK  status: ('A' for Active; 'I' for Inactive)
REMARK    1  A    between atoms: C_1  and  C_2
REMARK    2  A    between atoms: C_7  and  O_8
REMARK    3  A    between atoms: O_8  and  C_9
REMARK    4  A    between atoms: C_9  and  C_10
REMARK    5  A    between atoms: C_10  and  C_11
REMARK    6  A    between atoms: C_11  and  C_12
REMARK    7  A    between atoms: N_14  and  N_15
REMARK                            x       y       z     vdW  Elec       q    Type
REMARK                         _______ _______ _______ _____ _____    ______ ____
ROOT
ATOM      1  C   UNL     1       0.204   0.162   7.277  0.00  0.00    +0.232 C 
ATOM      2  O   UNL     1       0.446   1.341   7.134  0.00  0.00    -0.274 OA
ATOM      3  N   UNL     1       0.011  -0.342   8.511  0.00  0.00    -0.206 N 
ATOM      4  H   UNL     1      -0.182  -1.286   8.626  0.00  0.00    +0.177 HD
ENDROOT
BRANCH   3   5
ATOM      5  N   UNL     1       0.089   0.497   9.630  0.00  0.00    -0.175 NA
ATOM      6  C   UNL     1       0.008  -0.009  10.837  0.00  0.00    +0.153 C 
ATOM      7  C   UNL     1       0.020  -1.442  11.216  0.00  0.00    +0.029 A 
ATOM      8  C   UNL     1       0.112  -2.620  10.484  0.00  0.00    +0.027 A 
ATOM      9  C   UNL     1       0.095  -3.836  11.138  0.00  0.00    +0.019 A 
ATOM     10  C   UNL     1      -0.013  -3.880  12.519  0.00  0.00    +0.017 A 
ATOM     11  C   UNL     1      -0.105  -2.715  13.254  0.00  0.00    +0.025 A 
ATOM     12  C   UNL     1      -0.089  -1.481  12.612  0.00  0.00    +0.043 A 
ATOM     13  N   UNL     1      -0.166  -0.183  13.105  0.00  0.00    -0.280 N 
ATOM     14  C   UNL     1      -0.107   0.723  12.114  0.00  0.00    +0.269 C 
ATOM     15  O   UNL     1      -0.146   1.932  12.246  0.00  0.00    -0.268 OA
ATOM     16 BR   UNL     1       0.219  -5.443  10.149  0.00  0.00    -0.050 Br
ATOM     17  H   UNL     1      -0.247   0.041  14.046  0.00  0.00    +0.155 HD
ENDBRANCH   3   5
BRANCH   1  18
ATOM     18  C   UNL     1       0.120  -0.741   6.073  0.00  0.00    +0.101 C 
BRANCH  18  19
ATOM     19  C   UNL     1       0.377   0.075   4.804  0.00  0.00    +0.050 C 
BRANCH  19  20
ATOM     20  C   UNL     1       0.292  -0.842   3.582  0.00  0.00    +0.229 C 
BRANCH  20  21
ATOM     21  O   UNL     1       0.532  -0.080   2.397  0.00  0.00    -0.492 OA
BRANCH  21  28
ATOM     22  C   UNL     1       1.004   1.409   0.044  0.00  0.00    +0.047 C 
ATOM     23  C   UNL     1       0.717  -0.071   0.026  0.00  0.00    -0.007 A 
ATOM     24  C   UNL     1       0.682  -0.754  -1.175  0.00  0.00    +0.027 A 
ATOM     25  C   UNL     1       0.418  -2.112  -1.192  0.00  0.00    +0.041 A 
ATOM     26  C   UNL     1       0.189  -2.789  -0.007  0.00  0.00    +0.023 A 
ATOM     27  C   UNL     1       0.223  -2.110   1.195  0.00  0.00    +0.047 A 
ATOM     28  C   UNL     1       0.493  -0.749   1.215  0.00  0.00    +0.123 A 
ATOM     29 CL   UNL     1       0.374  -2.967  -2.702  0.00  0.00    -0.084 Cl
ENDBRANCH  21  28
ENDBRANCH  20  21
ENDBRANCH  19  20
ENDBRANCH  18  19
ENDBRANCH   1  18
TORSDOF 6
