REMARK  Name = ZINC44714034
REMARK  10 active torsions:
REMARK  status: ('A' for Active; 'I' for Inactive)
REMARK    1  A    between atoms: C_1  and  C_2
REMARK    2  A    between atoms: C_3  and  C_9
REMARK    3  A    between atoms: C_4  and  C_8
REMARK    4  A    between atoms: C_9  and  C_11
REMARK    5  A    between atoms: C_9  and  N_12
REMARK    6  A    between atoms: C_13  and  C_15
REMARK    7  A    between atoms: C_26  and  C_28
REMARK    8  A    between atoms: C_31  and  O_38
REMARK    9  A    between atoms: C_32  and  C_34
REMARK   10  A    between atoms: O_38  and  C_39
REMARK                            x       y       z     vdW  Elec       q    Type
REMARK                         _______ _______ _______ _____ _____    ______ ____
ROOT
ATOM      1  C   UNL     1      -2.102  -1.536  -5.245  0.00  0.00    +0.100 C 
ATOM      2  C   UNL     1      -1.735  -2.964  -5.708  0.00  0.00    +0.121 C 
ATOM      3  N   UNL     1      -2.483  -3.151  -6.973  0.00  0.00    -0.296 N 
ATOM      4  C   UNL     1      -2.383  -1.841  -7.658  0.00  0.00    +0.115 C 
ATOM      5  C   UNL     1      -2.526  -0.802  -6.528  0.00  0.00    -0.004 C 
ATOM      6  C   UNL     1      -1.605   0.387  -6.785  0.00  0.00    -0.010 C 
ATOM      7  C   UNL     1      -2.082   1.135  -8.033  0.00  0.00    -0.082 C 
ATOM      8  N   UNL     1      -3.462   1.594  -7.834  0.00  0.00    +0.379 N 
ATOM      9  C   UNL     1      -4.356   0.440  -7.680  0.00  0.00    -0.082 C 
ATOM     10  C   UNL     1      -3.975  -0.338  -6.417  0.00  0.00    -0.010 C 
ATOM     11  C   UNL     1      -3.113  -4.263  -7.403  0.00  0.00    +0.247 C 
ATOM     12  O   UNL     1      -3.194  -5.235  -6.678  0.00  0.00    -0.270 OA
ATOM     13  H   UNL     1      -3.509   2.166  -7.005  0.00  0.00    -0.086 HD
ATOM     14  H   UNL     1      -3.753   2.139  -8.632  0.00  0.00    -0.086 HD
ENDROOT
BRANCH  11  15
ATOM     15  C   UNL     1      -3.703  -4.299  -8.755  0.00  0.00    +0.038 A 
ATOM     16  C   UNL     1      -3.248  -3.421  -9.743  0.00  0.00    +0.016 A 
ATOM     17  C   UNL     1      -3.802  -3.459 -11.003  0.00  0.00    +0.047 A 
ATOM     18  C   UNL     1      -4.811  -4.369 -11.294  0.00  0.00    +0.132 A 
ATOM     19  C   UNL     1      -5.267  -5.244 -10.315  0.00  0.00    +0.097 A 
ATOM     20  C   UNL     1      -4.715  -5.216  -9.053  0.00  0.00    +0.029 A 
BRANCH  19  21
ATOM     21  C   UNL     1      -6.362  -6.228 -10.636  0.00  0.00    +0.421 C 
ATOM     22  F   UNL     1      -6.647  -6.994  -9.501  0.00  0.00    -0.166 F 
ATOM     23  F   UNL     1      -7.511  -5.534 -11.031  0.00  0.00    -0.166 F 
ATOM     24  F   UNL     1      -5.945  -7.068 -11.673  0.00  0.00    -0.166 F 
ENDBRANCH  19  21
BRANCH  18  25
ATOM     25  O   UNL     1      -5.355  -4.402 -12.537  0.00  0.00    -0.495 OA
ATOM     26  C   UNL     1      -4.840  -3.475 -13.495  0.00  0.00    +0.277 C 
ENDBRANCH  18  25
ENDBRANCH  11  15
BRANCH   1  28
ATOM     27  N   UNL     1      -1.079   0.068  -3.664  0.00  0.00    -0.308 N 
ATOM     28  C   UNL     1      -0.906  -0.861  -4.625  0.00  0.00    +0.219 C 
ATOM     29  O   UNL     1       0.213  -1.154  -4.991  0.00  0.00    -0.275 OA
ATOM     30  H   UNL     1      -1.973   0.303  -3.372  0.00  0.00    +0.149 HD
BRANCH  27  31
ATOM     31  C   UNL     1       0.085   0.724  -3.062  0.00  0.00    +0.104 C 
ATOM     32  C   UNL     1       0.620  -0.138  -1.917  0.00  0.00    +0.033 C 
BRANCH  31  35
ATOM     33  C   UNL     1      -2.416   1.323  -1.281  0.00  0.00    +0.065 C 
ATOM     34  C   UNL     1      -1.403   2.332  -1.756  0.00  0.00    +0.038 A 
ATOM     35  C   UNL     1      -0.321   2.073  -2.527  0.00  0.00    +0.015 A 
ATOM     36  C   UNL     1       0.355   3.280  -2.739  0.00  0.00    +0.065 A 
ATOM     37  N   UNL     1      -0.298   4.228  -2.118  0.00  0.00    -0.179 NA
ATOM     38  N   UNL     1      -1.414   3.656  -1.495  0.00  0.00    -0.281 N 
ATOM     39  H   UNL     1      -2.077   4.127  -0.966  0.00  0.00    +0.189 HD
ATOM     40  C   UNL     1       1.617   3.456  -3.543  0.00  0.00    +0.068 C 
ENDBRANCH  31  35
ENDBRANCH  27  31
ENDBRANCH   1  28
TORSDOF 6
