REMARK  Name = ZINC36751606
REMARK  5 active torsions:
REMARK  status: ('A' for Active; 'I' for Inactive)
REMARK    1  A    between atoms: C_1  and  C_2
REMARK    2  A    between atoms: C_5  and  S_9
REMARK    3  A    between atoms: C_6  and  N_8
REMARK    4  A    between atoms: S_9  and  N_12
REMARK    5  A    between atoms: N_12  and  C_13
REMARK                            x       y       z     vdW  Elec       q    Type
REMARK                         _______ _______ _______ _____ _____    ______ ____
ROOT
ATOM      1  S   UNL     1      -0.063  -4.600  -0.091  0.00  0.00    +0.074 S 
ATOM      2  O   UNL     1      -0.983  -5.156   0.838  0.00  0.00    -0.150 OA
ATOM      3  O   UNL     1      -0.089  -4.921  -1.475  0.00  0.00    -0.150 OA
ENDROOT
BRANCH   1   8
ATOM      4  C   UNL     1      -0.635   1.399   0.291  0.00  0.00    +0.044 C 
ATOM      5  C   UNL     1      -0.491  -0.098   0.200  0.00  0.00    -0.049 A 
ATOM      6  C   UNL     1      -0.536  -0.722  -1.034  0.00  0.00    +0.005 A 
ATOM      7  C   UNL     1      -0.406  -2.096  -1.122  0.00  0.00    +0.031 A 
ATOM      8  C   UNL     1      -0.229  -2.849   0.022  0.00  0.00    +0.129 A 
ATOM      9  C   UNL     1      -0.183  -2.226   1.262  0.00  0.00    +0.052 A 
ATOM     10  C   UNL     1      -0.309  -0.845   1.347  0.00  0.00    +0.028 A 
BRANCH   9  11
ATOM     11  N   UNL     1      -0.004  -2.985   2.421  0.00  0.00    -0.356 N 
ATOM     12  H   UNL     1       0.181  -3.934   2.356  0.00  0.00    +0.142 HD
ATOM     13  H   UNL     1      -0.066  -2.562   3.292  0.00  0.00    +0.142 HD
ENDBRANCH   9  11
ENDBRANCH   1   8
BRANCH   1  14
ATOM     14  N   UNL     1       1.452  -4.985   0.456  0.00  0.00    -0.213 N 
ATOM     15  H   UNL     1       1.558  -5.478   1.284  0.00  0.00    +0.174 HD
BRANCH  14  16
ATOM     16  C   UNL     1       2.579  -4.598  -0.276  0.00  0.00    +0.084 A 
ATOM     17  C   UNL     1       2.585  -3.387  -0.956  0.00  0.00    +0.042 A 
ATOM     18  C   UNL     1       3.700  -3.008  -1.679  0.00  0.00    +0.020 A 
ATOM     19  C   UNL     1       4.810  -3.832  -1.726  0.00  0.00    +0.018 A 
ATOM     20  C   UNL     1       4.808  -5.039  -1.050  0.00  0.00    +0.041 A 
ATOM     21  C   UNL     1       3.698  -5.422  -0.320  0.00  0.00    +0.146 A 
ATOM     22  F   UNL     1       3.699  -6.598   0.344  0.00  0.00    -0.204 F 
ATOM     23 BR   UNL     1       3.709  -1.359  -2.606  0.00  0.00    -0.050 Br
ENDBRANCH  14  16
ENDBRANCH   1  14
TORSDOF 4
