REMARK  Name = ZINC38705622
REMARK  12 active torsions:
REMARK  status: ('A' for Active; 'I' for Inactive)
REMARK    1  A    between atoms: C_1  and  C_2
REMARK    2  A    between atoms: C_2  and  C_3
REMARK    3  A    between atoms: C_3  and  C_4
REMARK    4  A    between atoms: C_4  and  O_5
REMARK    5  A    between atoms: O_5  and  C_6
REMARK    6  A    between atoms: C_10  and  C_12
REMARK    7  A    between atoms: C_15  and  C_29
REMARK    8  A    between atoms: N_22  and  C_23
REMARK    9  A    between atoms: C_23  and  C_24
REMARK   10  A    between atoms: C_30  and  C_37
REMARK   11  A    between atoms: C_32  and  C_36
REMARK   12  A    between atoms: C_34  and  O_35
REMARK                            x       y       z     vdW  Elec       q    Type
REMARK                         _______ _______ _______ _____ _____    ______ ____
ROOT
ATOM      1  C   UNL     1       2.869  -6.331  -4.724  0.00  0.00    +0.142 C 
ATOM      2  C   UNL     1       4.340  -6.618  -4.597  0.00  0.00    +0.035 A 
ATOM      3  C   UNL     1       5.620  -6.121  -4.331  0.00  0.00    +0.102 A 
ATOM      4  N   UNL     1       6.465  -7.128  -4.433  0.00  0.00    -0.173 NA
ATOM      5  N   UNL     1       5.845  -8.213  -4.737  0.00  0.00    -0.272 N 
ATOM      6  H   UNL     1       6.264  -9.078  -4.862  0.00  0.00    +0.189 HD
ATOM      7  C   UNL     1       4.506  -7.966  -4.855  0.00  0.00    +0.126 A 
ATOM      8  C   UNL     1       3.192  -8.551  -5.143  0.00  0.00    +0.266 C 
ATOM      9  O   UNL     1       2.997  -9.721  -5.411  0.00  0.00    -0.268 OA
ATOM     10  N   UNL     1       2.233  -7.609  -5.071  0.00  0.00    -0.278 N 
ENDROOT
BRANCH   3  11
ATOM     11  C   UNL     1       5.965  -4.716  -3.997  0.00  0.00    +0.047 A 
ATOM     12  C   UNL     1       6.797  -4.439  -2.915  0.00  0.00    -0.037 A 
ATOM     13  C   UNL     1       7.114  -3.131  -2.608  0.00  0.00    +0.007 A 
ATOM     14  C   UNL     1       6.609  -2.094  -3.372  0.00  0.00    -0.047 A 
ATOM     15  C   UNL     1       5.783  -2.358  -4.447  0.00  0.00    +0.049 A 
ATOM     16  C   UNL     1       5.461  -3.667  -4.770  0.00  0.00    +0.127 A 
ATOM     17  C   UNL     1       6.962  -0.669  -3.029  0.00  0.00    +0.044 C 
ATOM     18  C   UNL     1       7.349  -5.565  -2.080  0.00  0.00    +0.044 C 
BRANCH  16  19
ATOM     19  O   UNL     1       4.654  -3.928  -5.831  0.00  0.00    -0.506 OA
ATOM     20  H   UNL     1       3.710  -3.889  -5.627  0.00  0.00    +0.292 HD
ENDBRANCH  16  19
ENDBRANCH   3  11
BRANCH   1  25
ATOM     21  C   UNL     1       1.456  -4.022  -2.088  0.00  0.00    +0.121 A 
ATOM     22  C   UNL     1       1.328  -4.884  -1.009  0.00  0.00    +0.045 A 
ATOM     23  C   UNL     1       1.699  -6.209  -1.136  0.00  0.00    +0.004 A 
ATOM     24  C   UNL     1       2.197  -6.676  -2.338  0.00  0.00    +0.006 A 
ATOM     25  C   UNL     1       2.326  -5.819  -3.416  0.00  0.00    -0.019 A 
ATOM     26  C   UNL     1       1.951  -4.495  -3.295  0.00  0.00    +0.051 A 
BRANCH  21  27
ATOM     27  O   UNL     1       1.091  -2.719  -1.966  0.00  0.00    -0.492 OA
BRANCH  27  28
ATOM     28  C   UNL     1       0.590  -2.302  -0.694  0.00  0.00    +0.229 C 
BRANCH  28  29
ATOM     29  C   UNL     1       0.235  -0.815  -0.748  0.00  0.00    +0.041 C 
BRANCH  29  31
ATOM     30  C   UNL     1      -0.658   1.118   0.559  0.00  0.00    +0.004 C 
ATOM     31  C   UNL     1      -0.302  -0.369   0.614  0.00  0.00    -0.000 C 
ENDBRANCH  29  31
ENDBRANCH  28  29
ENDBRANCH  27  28
ENDBRANCH  21  27
ENDBRANCH   1  25
BRANCH  10  32
ATOM     32  C   UNL     1       0.801  -7.821  -5.297  0.00  0.00    +0.183 C 
BRANCH  32  33
ATOM     33  C   UNL     1       0.486  -7.606  -6.755  0.00  0.00    +0.122 A 
ATOM     34  C   UNL     1       0.503  -8.553  -7.711  0.00  0.00    +0.046 A 
ATOM     35  C   UNL     1       0.147  -7.917  -8.923  0.00  0.00    +0.041 A 
ATOM     36  C   UNL     1      -0.067  -6.621  -8.635  0.00  0.00    +0.195 A 
ATOM     37  O   UNL     1       0.134  -6.439  -7.319  0.00  0.00    -0.466 OA
ENDBRANCH  32  33
ENDBRANCH  10  32
TORSDOF 9
