REMARK  Name = ZINC20331613
REMARK  9 active torsions:
REMARK  status: ('A' for Active; 'I' for Inactive)
REMARK    1  A    between atoms: C_1  and  C_2
REMARK    2  A    between atoms: C_5  and  C_34
REMARK    3  A    between atoms: C_10  and  C_12
REMARK    4  A    between atoms: C_12  and  C_13
REMARK    5  A    between atoms: C_13  and  C_14
REMARK    6  A    between atoms: C_14  and  C_15
REMARK    7  A    between atoms: C_15  and  N_16
REMARK    8  A    between atoms: C_23  and  O_29
REMARK    9  A    between atoms: O_29  and  C_30
REMARK                            x       y       z     vdW  Elec       q    Type
REMARK                         _______ _______ _______ _____ _____    ______ ____
ROOT
ATOM      1  N   UNL     1      -5.611  -1.743   5.794  0.00  0.00    -0.287 N 
ATOM      2  C   UNL     1      -6.541  -0.906   6.297  0.00  0.00    +0.279 A 
ATOM      3  O   UNL     1      -6.207   0.152   6.799  0.00  0.00    -0.265 OA
ATOM      4  C   UNL     1      -7.912  -1.267   6.230  0.00  0.00    +0.129 A 
ATOM      5  C   UNL     1      -8.249  -2.479   5.657  0.00  0.00    +0.079 A 
ATOM      6  C   UNL     1      -9.705  -2.590   5.728  0.00  0.00    +0.027 A 
ATOM      7  C   UNL     1     -10.619  -3.568   5.321  0.00  0.00    +0.057 A 
ATOM      8  C   UNL     1     -11.968  -3.374   5.534  0.00  0.00    +0.121 A 
ATOM      9  C   UNL     1     -12.421  -2.210   6.151  0.00  0.00    +0.047 A 
ATOM     10  C   UNL     1     -11.532  -1.241   6.557  0.00  0.00    +0.030 A 
ATOM     11  C   UNL     1     -10.166  -1.416   6.351  0.00  0.00    +0.049 A 
ATOM     12  N   UNL     1      -9.071  -0.633   6.646  0.00  0.00    -0.349 N 
ATOM     13  H   UNL     1      -9.015   0.353   7.131  0.00  0.00    +0.166 HD
ATOM     14  N   UNL     1      -7.250  -3.299   5.162  0.00  0.00    -0.333 N 
ATOM     15  C   UNL     1      -5.961  -2.917   5.240  0.00  0.00    +0.161 A 
ATOM     16  S   UNL     1      -4.743  -3.948   4.622  0.00  0.00    -0.013 S 
ATOM     17  H   UNL     1      -7.508  -4.265   4.704  0.00  0.00    +0.168 HD
ENDROOT
BRANCH   8  18
ATOM     18  O   UNL     1     -12.859  -4.322   5.139  0.00  0.00    -0.495 OA
ATOM     19  C   UNL     1     -14.241  -4.058   5.390  0.00  0.00    +0.277 C 
ENDBRANCH   8  18
BRANCH   1  20
ATOM     20  C   UNL     1      -4.196  -1.370   5.858  0.00  0.00    +0.127 C 
BRANCH  20  21
ATOM     21  C   UNL     1      -3.814  -0.599   4.593  0.00  0.00    +0.022 C 
BRANCH  21  22
ATOM     22  C   UNL     1      -2.336  -0.209   4.659  0.00  0.00    +0.011 C 
BRANCH  22  23
ATOM     23  C   UNL     1      -1.954   0.561   3.394  0.00  0.00    +0.096 C 
BRANCH  23  31
ATOM     24  C   UNL     1       0.002  -0.004   0.002  0.00  0.00    +0.009 C 
ATOM     25  C   UNL     1      -0.019   1.526   0.010  0.00  0.00    +0.004 C 
ATOM     26  C   UNL     1       1.417   2.056  -0.000  0.00  0.00    +0.009 C 
ATOM     27  C   UNL     1       2.169   1.522   1.220  0.00  0.00    +0.004 C 
ATOM     28  C   UNL     1       1.481   2.017   2.496  0.00  0.00    +0.111 C 
ATOM     29  N   UNL     1       0.063   1.635   2.447  0.00  0.00    -0.301 N 
ATOM     30  C   UNL     1      -0.732   2.021   1.273  0.00  0.00    +0.111 C 
ATOM     31  C   UNL     1      -0.499   0.945   3.459  0.00  0.00    +0.216 C 
ATOM     32  O   UNL     1       0.168   0.633   4.423  0.00  0.00    -0.276 OA
ATOM     33  C   UNL     1       3.613   2.026   1.191  0.00  0.00    +0.009 C 
ENDBRANCH  23  31
ENDBRANCH  22  23
ENDBRANCH  21  22
ENDBRANCH  20  21
ENDBRANCH   1  20
TORSDOF 6
