REMARK  Name = ZINC67572642
REMARK  3 active torsions:
REMARK  status: ('A' for Active; 'I' for Inactive)
REMARK    1  A    between atoms: C_3  and  C_6
REMARK    2  A    between atoms: C_9  and  C_11
REMARK    3  A    between atoms: C_17  and  C_20
REMARK                            x       y       z     vdW  Elec       q    Type
REMARK                         _______ _______ _______ _____ _____    ______ ____
ROOT
ATOM      1  C   UNL     1       3.433  -0.682   2.208  0.00  0.00    +0.223 C 
ATOM      2  O   UNL     1       2.225  -0.600   2.129  0.00  0.00    -0.275 OA
ATOM      3  N   UNL     1       3.998  -1.313   3.256  0.00  0.00    -0.253 N 
ATOM      4  C   UNL     1       3.193  -1.873   4.252  0.00  0.00    +0.241 A 
ATOM      5  N   UNL     1       3.635  -2.519   5.333  0.00  0.00    -0.194 NA
ATOM      6  H   UNL     1       0.568  -2.668   5.741  0.00  0.00    +0.191 HD
ATOM      7  C   UNL     1       2.611  -2.917   6.062  0.00  0.00    +0.158 A 
ATOM      8  N   UNL     1       1.478  -2.519   5.441  0.00  0.00    -0.257 N 
ATOM      9  N   UNL     1       1.881  -1.843   4.278  0.00  0.00    -0.136 NA
ATOM     10  H   UNL     1       4.964  -1.378   3.320  0.00  0.00    +0.158 HD
ENDROOT
BRANCH   7  11
ATOM     11  C   UNL     1       2.689  -3.665   7.336  0.00  0.00    +0.019 A 
ATOM     12  C   UNL     1       1.521  -4.030   8.006  0.00  0.00    +0.014 A 
ATOM     13  C   UNL     1       1.599  -4.728   9.193  0.00  0.00    +0.039 A 
ATOM     14  C   UNL     1       2.834  -5.066   9.721  0.00  0.00    +0.123 A 
ATOM     15  C   UNL     1       3.998  -4.706   9.059  0.00  0.00    +0.039 A 
ATOM     16  C   UNL     1       3.931  -4.013   7.869  0.00  0.00    +0.014 A 
ATOM     17  F   UNL     1       2.905  -5.750  10.884  0.00  0.00    -0.205 F 
ENDBRANCH   7  11
BRANCH   1  20
ATOM     18  C   UNL     1       3.599   0.625  -0.029  0.00  0.00    +0.068 C 
ATOM     19  C   UNL     1       4.272  -0.731  -0.249  0.00  0.00    +0.025 C 
ATOM     20  C   UNL     1       4.301  -0.078   1.134  0.00  0.00    +0.086 C 
BRANCH  18  23
ATOM     21  C   UNL     1      -0.016   1.341   0.009  0.00  0.00    +0.041 A 
ATOM     22  C   UNL     1       1.331   1.769  -0.001  0.00  0.00    +0.045 A 
ATOM     23  C   UNL     1       2.092   0.660  -0.014  0.00  0.00    +0.109 A 
ATOM     24  O   UNL     1       1.282  -0.411  -0.012  0.00  0.00    -0.468 OA
ATOM     25  C   UNL     1       0.002  -0.004   0.002  0.00  0.00    +0.195 A 
ENDBRANCH  18  23
ENDBRANCH   1  20
TORSDOF 3
