REMARK  Name = ZINC12655617
REMARK  6 active torsions:
REMARK  status: ('A' for Active; 'I' for Inactive)
REMARK    1  A    between atoms: C_4  and  O_31
REMARK    2  A    between atoms: C_5  and  N_7
REMARK    3  A    between atoms: C_8  and  C_10
REMARK    4  A    between atoms: C_10  and  N_21
REMARK    5  A    between atoms: C_11  and  C_12
REMARK    6  A    between atoms: C_22  and  C_24
REMARK                            x       y       z     vdW  Elec       q    Type
REMARK                         _______ _______ _______ _____ _____    ______ ____
ROOT
ATOM      1  C   UNL     1      -0.113   0.043   4.826  0.00  0.00    +0.097 C 
ATOM      2  C   UNL     1      -0.205  -0.584   6.023  0.00  0.00    +0.036 C 
ENDROOT
BRANCH   2   3
ATOM      3  C   UNL     1      -0.097   0.190   7.268  0.00  0.00    -0.019 A 
ATOM      4  C   UNL     1       0.471   1.469   7.253  0.00  0.00    +0.012 A 
ATOM      5  C   UNL     1       0.566   2.194   8.420  0.00  0.00    +0.050 A 
ATOM      6  C   UNL     1       0.110   1.656   9.617  0.00  0.00    +0.166 A 
ATOM      7  C   UNL     1      -0.452   0.379   9.641  0.00  0.00    +0.167 A 
ATOM      8  C   UNL     1      -0.556  -0.352   8.473  0.00  0.00    +0.057 A 
ATOM      9  O   UNL     1      -0.816   0.087  10.924  0.00  0.00    -0.453 OA
ATOM     10  C   UNL     1      -0.848   1.352  11.611  0.00  0.00    +0.466 C 
ATOM     11  O   UNL     1       0.097   2.160  10.884  0.00  0.00    -0.453 OA
ENDBRANCH   2   3
BRANCH   1  13
ATOM     12  N   UNL     1      -0.092  -0.120   2.392  0.00  0.00    -0.278 N 
ATOM     13  C   UNL     1      -0.066  -0.743   3.587  0.00  0.00    +0.263 C 
ATOM     14  O   UNL     1      -0.002  -1.957   3.639  0.00  0.00    -0.268 OA
ATOM     15  H   UNL     1      -0.098   0.849   2.350  0.00  0.00    +0.155 HD
BRANCH  12  20
ATOM     16  C   UNL     1       0.309  -2.927   0.049  0.00  0.00    +0.002 A 
ATOM     17  C   UNL     1      -0.152  -2.360  -1.125  0.00  0.00    +0.004 A 
ATOM     18  C   UNL     1      -0.599  -1.052  -1.137  0.00  0.00    +0.047 A 
ATOM     19  C   UNL     1      -0.577  -0.302   0.028  0.00  0.00    +0.138 A 
ATOM     20  C   UNL     1      -0.113  -0.872   1.211  0.00  0.00    +0.076 A 
ATOM     21  C   UNL     1       0.330  -2.187   1.216  0.00  0.00    +0.027 A 
BRANCH  19  22
ATOM     22  O   UNL     1      -1.013   0.987   0.017  0.00  0.00    -0.505 OA
ATOM     23  H   UNL     1      -0.321   1.634  -0.174  0.00  0.00    +0.292 HD
ENDBRANCH  19  22
ENDBRANCH  12  20
ENDBRANCH   1  13
BRANCH   1  24
ATOM     24  N   UNL     1      -0.064   1.440   4.770  0.00  0.00    -0.277 N 
ATOM     25  C   UNL     1       0.951   2.054   4.130  0.00  0.00    +0.248 C 
ATOM     26  O   UNL     1       1.794   1.393   3.555  0.00  0.00    -0.270 OA
ATOM     27  H   UNL     1      -0.760   1.968   5.192  0.00  0.00    +0.155 HD
BRANCH  25  28
ATOM     28  C   UNL     1       1.038   3.529   4.125  0.00  0.00    +0.037 A 
ATOM     29  C   UNL     1       0.067   4.290   4.779  0.00  0.00    +0.014 A 
ATOM     30  C   UNL     1       0.156   5.666   4.776  0.00  0.00    +0.016 A 
ATOM     31  C   UNL     1       1.200   6.294   4.117  0.00  0.00    +0.018 A 
ATOM     32  C   UNL     1       2.163   5.544   3.462  0.00  0.00    +0.016 A 
ATOM     33  C   UNL     1       2.088   4.167   3.463  0.00  0.00    +0.014 A 
ATOM     34 BR   UNL     1       1.312   8.181   4.112  0.00  0.00    -0.050 Br
ENDBRANCH  25  28
ENDBRANCH   1  24
TORSDOF 6
