REMARK  Name = ZINC04277689
REMARK  3 active torsions:
REMARK  status: ('A' for Active; 'I' for Inactive)
REMARK    1  A    between atoms: C_6  and  N_7
REMARK    2  A    between atoms: C_21  and  N_26
REMARK    3  A    between atoms: C_27  and  C_29
REMARK                            x       y       z     vdW  Elec       q    Type
REMARK                         _______ _______ _______ _____ _____    ______ ____
ROOT
ATOM      1  N   UNL     1      -5.729   9.754  -0.486  0.00  0.00    -0.269 N 
ATOM      2  C   UNL     1      -5.965  10.192   0.767  0.00  0.00    +0.306 C 
ATOM      3  O   UNL     1      -6.935   9.788   1.379  0.00  0.00    -0.252 OA
ATOM      4  N   UNL     1      -5.126  11.077   1.341  0.00  0.00    -0.284 N 
ATOM      5  C   UNL     1      -5.308  11.485   2.739  0.00  0.00    +0.114 C 
ATOM      6  C   UNL     1      -3.996  11.352   3.501  0.00  0.00    +0.027 C 
ATOM      7  C   UNL     1      -2.852  12.035   2.749  0.00  0.00    +0.018 C 
ATOM      8  C   UNL     1      -2.732  11.392   1.366  0.00  0.00    +0.054 C 
ATOM      9  C   UNL     1      -4.023  11.684   0.582  0.00  0.00    +0.119 C 
ATOM     10  C   UNL     1      -2.610   9.892   1.509  0.00  0.00    +0.027 A 
ATOM     11  C   UNL     1      -1.974   9.220   0.513  0.00  0.00    +0.024 A 
ATOM     12  C   UNL     1      -1.884   7.824   0.540  0.00  0.00    +0.030 A 
ATOM     13  C   UNL     1      -2.475   7.144   1.569  0.00  0.00    +0.099 A 
ATOM     14  C   UNL     1      -3.141   7.870   2.574  0.00  0.00    +0.273 A 
ATOM     15  O   UNL     1      -3.735   7.274   3.459  0.00  0.00    -0.266 OA
ATOM     16  N   UNL     1      -3.125   9.227   2.571  0.00  0.00    -0.310 N 
ATOM     17  C   UNL     1      -3.648   9.898   3.761  0.00  0.00    +0.130 C 
ATOM     18  H   UNL     1      -4.998  10.129  -1.001  0.00  0.00    +0.156 HD
ENDROOT
BRANCH   1  24
ATOM     19  C   UNL     1      -7.102   7.782  -0.230  0.00  0.00    +0.026 A 
ATOM     20  C   UNL     1      -7.906   6.804  -0.781  0.00  0.00    +0.040 A 
ATOM     21  C   UNL     1      -8.141   6.787  -2.146  0.00  0.00    +0.124 A 
ATOM     22  C   UNL     1      -7.577   7.755  -2.960  0.00  0.00    +0.040 A 
ATOM     23  C   UNL     1      -6.777   8.739  -2.411  0.00  0.00    +0.026 A 
ATOM     24  C   UNL     1      -6.540   8.757  -1.044  0.00  0.00    +0.035 A 
ATOM     25  F   UNL     1      -8.923   5.826  -2.684  0.00  0.00    -0.205 F 
ENDBRANCH   1  24
BRANCH  13  26
ATOM     26  N   UNL     1      -2.424   5.744   1.618  0.00  0.00    -0.281 N 
ATOM     27  C   UNL     1      -1.874   5.127   2.683  0.00  0.00    +0.220 C 
ATOM     28  O   UNL     1      -1.347   5.782   3.558  0.00  0.00    -0.275 OA
ATOM     29  H   UNL     1      -2.784   5.219   0.886  0.00  0.00    +0.155 HD
BRANCH  27  30
ATOM     30  C   UNL     1      -1.913   3.624   2.787  0.00  0.00    +0.075 C 
ATOM     31  C   UNL     1      -1.226   3.184   4.080  0.00  0.00    +0.013 C 
ATOM     32  C   UNL     1      -1.266   1.658   4.185  0.00  0.00    +0.001 C 
ATOM     33  C   UNL     1      -2.721   1.185   4.195  0.00  0.00    +0.000 C 
ATOM     34  C   UNL     1      -3.409   1.626   2.901  0.00  0.00    +0.001 C 
ATOM     35  C   UNL     1      -3.369   3.151   2.796  0.00  0.00    +0.013 C 
ENDBRANCH  27  30
ENDBRANCH  13  26
TORSDOF 3
