REMARK  Name = ZINC40138760
REMARK  10 active torsions:
REMARK  status: ('A' for Active; 'I' for Inactive)
REMARK    1  A    between atoms: C_1  and  O_2
REMARK    2  A    between atoms: O_2  and  C_3
REMARK    3  A    between atoms: C_8  and  O_9
REMARK    4  A    between atoms: O_9  and  C_10
REMARK    5  A    between atoms: C_10  and  C_11
REMARK    6  A    between atoms: C_11  and  C_12
REMARK    7  A    between atoms: C_12  and  N_13
REMARK    8  A    between atoms: N_21  and  N_22
REMARK    9  A    between atoms: C_23  and  C_25
REMARK   10  A    between atoms: C_25  and  C_26
REMARK                            x       y       z     vdW  Elec       q    Type
REMARK                         _______ _______ _______ _____ _____    ______ ____
ROOT
ATOM      1  N   UNL     1      -1.003  -7.016   1.911  0.00  0.00    -0.265 N 
ATOM      2  C   UNL     1      -0.346  -7.348   3.091  0.00  0.00    +0.046 A 
ATOM      3  C   UNL     1       0.975  -7.180   3.491  0.00  0.00    +0.025 A 
ATOM      4  C   UNL     1       1.380  -7.606   4.740  0.00  0.00    +0.017 A 
ATOM      5  C   UNL     1       0.481  -8.202   5.608  0.00  0.00    +0.019 A 
ATOM      6  C   UNL     1      -0.836  -8.377   5.228  0.00  0.00    +0.027 A 
ATOM      7  C   UNL     1      -1.253  -7.952   3.972  0.00  0.00    +0.029 A 
ATOM      8  C   UNL     1      -2.557  -7.988   3.270  0.00  0.00    +0.153 C 
ATOM      9  N   UNL     1      -3.691  -8.467   3.718  0.00  0.00    -0.175 NA
ATOM     10  C   UNL     1      -2.301  -7.361   1.957  0.00  0.00    +0.271 C 
ATOM     11  O   UNL     1      -3.120  -7.189   1.073  0.00  0.00    -0.268 OA
ATOM     12 BR   UNL     1       1.055  -8.778   7.315  0.00  0.00    -0.050 Br
ENDROOT
BRANCH   9  13
ATOM     13  N   UNL     1      -4.838  -8.420   2.914  0.00  0.00    -0.206 N 
ATOM     14  C   UNL     1      -6.005  -8.913   3.375  0.00  0.00    +0.237 C 
ATOM     15  O   UNL     1      -6.062  -9.397   4.485  0.00  0.00    -0.274 OA
ATOM     16  H   UNL     1      -4.792  -8.033   2.026  0.00  0.00    +0.177 HD
BRANCH  14  17
ATOM     17  C   UNL     1      -7.238  -8.863   2.510  0.00  0.00    +0.132 C 
BRANCH  17  18
ATOM     18  C   UNL     1      -8.398  -9.473   3.254  0.00  0.00    -0.039 A 
ATOM     19  C   UNL     1      -8.652 -10.828   3.146  0.00  0.00    +0.004 A 
ATOM     20  C   UNL     1      -9.716 -11.387   3.827  0.00  0.00    +0.000 A 
ATOM     21  C   UNL     1     -10.526 -10.593   4.618  0.00  0.00    +0.000 A 
ATOM     22  C   UNL     1     -10.271  -9.239   4.727  0.00  0.00    +0.000 A 
ATOM     23  C   UNL     1      -9.204  -8.680   4.049  0.00  0.00    +0.004 A 
ENDBRANCH  17  18
ENDBRANCH  14  17
ENDBRANCH   9  13
BRANCH   1  24
ATOM     24  C   UNL     1      -0.362  -6.368   0.764  0.00  0.00    +0.117 C 
BRANCH  24  25
ATOM     25  C   UNL     1      -0.463  -4.849   0.915  0.00  0.00    +0.060 C 
BRANCH  25  26
ATOM     26  C   UNL     1       0.206  -4.171  -0.283  0.00  0.00    +0.231 C 
BRANCH  26  27
ATOM     27  O   UNL     1       0.112  -2.753  -0.142  0.00  0.00    -0.488 OA
BRANCH  27  33
ATOM     28  C   UNL     1       0.606  -0.608  -1.056  0.00  0.00    +0.161 A 
ATOM     29  C   UNL     1       1.173   0.159  -2.062  0.00  0.00    +0.049 A 
ATOM     30  C   UNL     1       1.787  -0.456  -3.137  0.00  0.00    +0.004 A 
ATOM     31  C   UNL     1       1.837  -1.836  -3.212  0.00  0.00    +0.004 A 
ATOM     32  C   UNL     1       1.273  -2.606  -2.212  0.00  0.00    +0.049 A 
ATOM     33  C   UNL     1       0.662  -1.996  -1.129  0.00  0.00    +0.162 A 
BRANCH  28  35
ATOM     34  C   UNL     1      -0.017   1.425   0.010  0.00  0.00    +0.277 C 
ATOM     35  O   UNL     1       0.002  -0.004   0.002  0.00  0.00    -0.491 OA
ENDBRANCH  28  35
ENDBRANCH  27  33
ENDBRANCH  26  27
ENDBRANCH  25  26
ENDBRANCH  24  25
ENDBRANCH   1  24
TORSDOF 9
