REMARK  Name = ZINC10993347
REMARK  8 active torsions:
REMARK  status: ('A' for Active; 'I' for Inactive)
REMARK    1  A    between atoms: C_1  and  C_2
REMARK    2  A    between atoms: C_2  and  C_3
REMARK    3  A    between atoms: C_3  and  C_30
REMARK    4  A    between atoms: N_6  and  C_10
REMARK    5  A    between atoms: C_10  and  C_11
REMARK    6  A    between atoms: C_16  and  C_19
REMARK    7  A    between atoms: C_22  and  N_26
REMARK    8  A    between atoms: C_27  and  C_29
REMARK                            x       y       z     vdW  Elec       q    Type
REMARK                         _______ _______ _______ _____ _____    ______ ____
ROOT
ATOM      1  C   UNL     1      -9.489   4.271   0.519  0.00  0.00    +0.237 C 
ATOM      2  O   UNL     1      -9.298   5.466   0.438  0.00  0.00    -0.274 OA
ATOM      3  N   UNL     1      -8.446   3.418   0.491  0.00  0.00    -0.263 N 
ATOM      4  C   UNL     1      -7.151   3.908   0.368  0.00  0.00    +0.165 A 
ATOM      5  N   UNL     1      -6.009   3.247   0.322  0.00  0.00    -0.225 NA
ATOM      6  C   UNL     1      -4.853   3.881   0.201  0.00  0.00    +0.083 A 
ATOM      7  C   UNL     1      -4.840   5.246   0.130  0.00  0.00    +0.077 A 
ATOM      8  S   UNL     1      -6.590   5.599   0.232  0.00  0.00    -0.060 S 
ATOM      9  H   UNL     1      -8.599   2.462   0.556  0.00  0.00    +0.157 HD
ENDROOT
BRANCH   6  10
ATOM     10  C   UNL     1      -3.582   3.116   0.151  0.00  0.00    +0.036 A 
ATOM     11  C   UNL     1      -3.601   1.725   0.230  0.00  0.00    +0.015 A 
ATOM     12  C   UNL     1      -2.419   1.017   0.182  0.00  0.00    +0.024 A 
ATOM     13  C   UNL     1      -1.208   1.688   0.056  0.00  0.00    +0.036 A 
ATOM     14  C   UNL     1      -1.185   3.075  -0.018  0.00  0.00    +0.062 A 
ATOM     15  C   UNL     1      -2.366   3.790   0.024  0.00  0.00    +0.134 A 
ATOM     16  F   UNL     1      -2.344   5.138  -0.053  0.00  0.00    -0.205 F 
BRANCH  13  17
ATOM     17  N   UNL     1      -0.011   0.966   0.007  0.00  0.00    -0.286 N 
ATOM     18  C   UNL     1       0.027  -0.235  -0.603  0.00  0.00    +0.214 C 
ATOM     19  O   UNL     1      -0.992  -0.726  -1.041  0.00  0.00    -0.276 OA
ATOM     20  C   UNL     1       1.336  -0.969  -0.741  0.00  0.00    +0.109 C 
ATOM     21  H   UNL     1       0.790   1.328   0.416  0.00  0.00    +0.155 HD
ENDBRANCH  13  17
ENDBRANCH   6  10
BRANCH   1  22
ATOM     22  C   UNL     1     -10.893   3.740   0.652  0.00  0.00    +0.214 C 
BRANCH  22  26
ATOM     23  C   UNL     1     -13.304   6.498   0.037  0.00  0.00    +0.138 C 
ATOM     24  C   UNL     1     -12.410   5.374  -0.448  0.00  0.00    +0.251 C 
ATOM     25  O   UNL     1     -12.242   5.015  -1.593  0.00  0.00    -0.272 OA
ATOM     26  N   UNL     1     -11.839   4.859   0.659  0.00  0.00    -0.215 N 
ATOM     27  C   UNL     1     -12.248   5.491   1.765  0.00  0.00    +0.310 C 
ATOM     28  O   UNL     1     -11.876   5.202   2.885  0.00  0.00    -0.252 OA
ATOM     29  N   UNL     1     -13.116   6.484   1.498  0.00  0.00    -0.281 N 
ATOM     30  H   UNL     1     -13.538   7.074   2.143  0.00  0.00    +0.152 HD
BRANCH  23  31
ATOM     31  C   UNL     1     -14.742   6.222  -0.318  0.00  0.00    -0.015 A 
ATOM     32  C   UNL     1     -15.259   6.682  -1.515  0.00  0.00    +0.006 A 
ATOM     33  C   UNL     1     -16.577   6.425  -1.843  0.00  0.00    +0.000 A 
ATOM     34  C   UNL     1     -17.381   5.717  -0.970  0.00  0.00    +0.000 A 
ATOM     35  C   UNL     1     -16.866   5.262   0.230  0.00  0.00    +0.000 A 
ATOM     36  C   UNL     1     -15.547   5.515   0.556  0.00  0.00    +0.006 A 
ENDBRANCH  23  31
BRANCH  23  38
ATOM     37  C   UNL     1     -11.409   8.117  -0.131  0.00  0.00    +0.007 C 
ATOM     38  C   UNL     1     -12.853   7.837  -0.550  0.00  0.00    +0.037 C 
ENDBRANCH  23  38
ENDBRANCH  22  26
ENDBRANCH   1  22
TORSDOF 6
