REMARK  Name = ZINC14478393
REMARK  7 active torsions:
REMARK  status: ('A' for Active; 'I' for Inactive)
REMARK    1  A    between atoms: C_1  and  C_2
REMARK    2  A    between atoms: C_2  and  C_3
REMARK    3  A    between atoms: C_3  and  C_5
REMARK    4  A    between atoms: C_3  and  N_6
REMARK    5  A    between atoms: C_7  and  C_9
REMARK    6  A    between atoms: C_22  and  C_25
REMARK    7  A    between atoms: C_30  and  N_31
REMARK                            x       y       z     vdW  Elec       q    Type
REMARK                         _______ _______ _______ _____ _____    ______ ____
ROOT
ATOM      1  C   UNL     1       2.589   0.897  -0.190  0.00  0.00    +0.037 A 
ATOM      2  C   UNL     1       2.301   2.265  -0.148  0.00  0.00    +0.015 A 
ATOM      3  C   UNL     1       0.992   2.681  -0.079  0.00  0.00    +0.024 A 
ATOM      4  C   UNL     1      -0.041   1.746  -0.052  0.00  0.00    +0.031 A 
ATOM      5  C   UNL     1       0.234   0.384  -0.091  0.00  0.00    -0.019 A 
ATOM      6  C   UNL     1       1.551  -0.034  -0.162  0.00  0.00    +0.019 A 
ATOM      7  C   UNL     1      -0.845  -0.651  -0.058  0.00  0.00    +0.049 C 
ATOM      8  C   UNL     1      -1.055  -1.271  -1.419  0.00  0.00    -0.023 C 
ATOM      9  C   UNL     1      -2.312  -1.538  -1.617  0.00  0.00    -0.030 C 
ATOM     10  C   UNL     1      -3.136  -1.113  -0.417  0.00  0.00    +0.033 C 
ATOM     11  C   UNL     1      -2.227  -0.067   0.292  0.00  0.00    +0.029 C 
ATOM     12  C   UNL     1      -2.425   1.271  -0.426  0.00  0.00    +0.107 C 
ATOM     13  N   UNL     1      -1.359   2.192   0.011  0.00  0.00    -0.336 N 
ATOM     14  H   UNL     1      -1.566   3.088   0.319  0.00  0.00    +0.147 HD
ENDROOT
BRANCH  12  15
ATOM     15  C   UNL     1      -2.362   1.057  -1.917  0.00  0.00    +0.003 A 
ATOM     16  C   UNL     1      -1.145   1.111  -2.572  0.00  0.00    +0.008 A 
ATOM     17  C   UNL     1      -1.087   0.910  -3.938  0.00  0.00    +0.000 A 
ATOM     18  C   UNL     1      -2.246   0.665  -4.651  0.00  0.00    +0.002 A 
ATOM     19  C   UNL     1      -3.462   0.616  -3.997  0.00  0.00    +0.033 A 
ATOM     20  C   UNL     1      -3.520   0.812  -2.629  0.00  0.00    +0.131 A 
BRANCH  20  21
ATOM     21  N   UNL     1      -4.823   0.760  -1.929  0.00  0.00    +0.057 N 
ATOM     22  O   UNL     1      -5.826   0.422  -2.532  0.00  0.00    -0.126 OA
ATOM     23  O   UNL     1      -4.892   1.055  -0.749  0.00  0.00    -0.126 OA
ENDBRANCH  20  21
ENDBRANCH  12  15
BRANCH   1  25
ATOM     24  N   UNL     1       4.992   1.341  -0.293  0.00  0.00    -0.309 N 
ATOM     25  C   UNL     1       3.989   0.440  -0.265  0.00  0.00    +0.244 C 
ATOM     26  O   UNL     1       4.239  -0.749  -0.302  0.00  0.00    -0.270 OA
ATOM     27  H   UNL     1       4.792   2.289  -0.263  0.00  0.00    +0.149 HD
BRANCH  24  28
ATOM     28  C   UNL     1       6.383   0.887  -0.368  0.00  0.00    +0.070 C 
ATOM     29  C   UNL     1       6.895   0.578   1.041  0.00  0.00    +0.028 C 
BRANCH  28  31
ATOM     30  C   UNL     1       6.812   2.205  -2.446  0.00  0.00    +0.005 C 
ATOM     31  C   UNL     1       7.244   1.984  -0.995  0.00  0.00    +0.018 C 
ENDBRANCH  28  31
ENDBRANCH  24  28
ENDBRANCH   1  25
TORSDOF 5
