REMARK  Name = ZINC09204309
REMARK  8 active torsions:
REMARK  status: ('A' for Active; 'I' for Inactive)
REMARK    1  A    between atoms: C_1  and  C_2
REMARK    2  A    between atoms: C_2  and  C_4
REMARK    3  A    between atoms: C_2  and  S_19
REMARK    4  A    between atoms: N_6  and  C_7
REMARK    5  A    between atoms: S_19  and  C_20
REMARK    6  A    between atoms: C_21  and  C_35
REMARK    7  A    between atoms: C_22  and  C_31
REMARK    8  A    between atoms: C_24  and  C_26
REMARK                            x       y       z     vdW  Elec       q    Type
REMARK                         _______ _______ _______ _____ _____    ______ ____
ROOT
ATOM      1  C   UNL     1       5.493   4.391   1.148  0.00  0.00    +0.029 C 
ATOM      2  C   UNL     1       4.854   4.246  -0.235  0.00  0.00    +0.136 C 
ENDROOT
BRANCH   2   3
ATOM      3  C   UNL     1       3.564   3.478  -0.113  0.00  0.00    +0.230 C 
ATOM      4  O   UNL     1       2.505   4.069  -0.100  0.00  0.00    -0.274 OA
ATOM      5  N   UNL     1       3.586   2.134  -0.019  0.00  0.00    -0.285 N 
ATOM      6  H   UNL     1       4.433   1.666   0.047  0.00  0.00    +0.155 HD
BRANCH   5   7
ATOM      7  C   UNL     1       2.385   1.412  -0.018  0.00  0.00    +0.035 A 
ATOM      8  C   UNL     1       2.280   0.241   0.724  0.00  0.00    +0.025 A 
ATOM      9  C   UNL     1       1.101  -0.475   0.729  0.00  0.00    +0.029 A 
ATOM     10  C   UNL     1       0.015  -0.025  -0.007  0.00  0.00    +0.067 A 
ATOM     11  C   UNL     1       0.117   1.151  -0.753  0.00  0.00    +0.069 A 
ATOM     12  C   UNL     1       1.303   1.867  -0.757  0.00  0.00    +0.051 A 
ATOM     13  N   UNL     1      -1.115   1.341  -1.375  0.00  0.00    -0.306 N 
ATOM     14  H   UNL     1      -1.347   2.078  -1.961  0.00  0.00    +0.170 HD
ATOM     15  C   UNL     1      -1.929   0.328  -1.024  0.00  0.00    +0.325 A 
ATOM     16  O   UNL     1      -3.080   0.193  -1.396  0.00  0.00    -0.247 OA
ATOM     17  N   UNL     1      -1.277  -0.513  -0.200  0.00  0.00    -0.306 N 
ATOM     18  H   UNL     1      -1.644  -1.321   0.193  0.00  0.00    +0.170 HD
ENDBRANCH   5   7
ENDBRANCH   2   3
BRANCH   2  19
ATOM     19  S   UNL     1       4.518   5.888  -0.919  0.00  0.00    -0.092 S 
BRANCH  19  20
ATOM     20  C   UNL     1       6.164   6.491  -1.091  0.00  0.00    +0.116 A 
ATOM     21  C   UNL     1       6.385   7.780  -1.613  0.00  0.00    +0.095 A 
ATOM     22  C   UNL     1       7.702   8.246  -1.739  0.00  0.00    +0.077 A 
ATOM     23  C   UNL     1       8.734   7.416  -1.354  0.00  0.00    +0.042 A 
ATOM     24  C   UNL     1       8.441   6.146  -0.849  0.00  0.00    +0.079 A 
ATOM     25  N   UNL     1       7.184   5.728  -0.734  0.00  0.00    -0.239 NA
BRANCH  24  26
ATOM     26  C   UNL     1       9.542   5.257  -0.436  0.00  0.00    +0.038 A 
ATOM     27  C   UNL     1       9.481   3.987   0.080  0.00  0.00    +0.017 A 
ATOM     28  C   UNL     1      10.656   3.344   0.395  0.00  0.00    +0.008 A 
ATOM     29  C   UNL     1      11.838   3.983   0.186  0.00  0.00    +0.046 A 
ATOM     30  S   UNL     1      11.303   5.549  -0.485  0.00  0.00    -0.095 S 
ENDBRANCH  24  26
BRANCH  22  31
ATOM     31  C   UNL     1       7.983   9.621  -2.288  0.00  0.00    +0.419 C 
ATOM     32  F   UNL     1       9.364   9.839  -2.315  0.00  0.00    -0.166 F 
ATOM     33  F   UNL     1       7.470   9.719  -3.585  0.00  0.00    -0.166 F 
ATOM     34  F   UNL     1       7.375  10.582  -1.472  0.00  0.00    -0.166 F 
ENDBRANCH  22  31
BRANCH  21  35
ATOM     35  C   UNL     1       5.282   8.604  -2.005  0.00  0.00    +0.102 C 
ATOM     36  N   UNL     1       4.406   9.258  -2.316  0.00  0.00    -0.191 NA
ENDBRANCH  21  35
ENDBRANCH  19  20
ENDBRANCH   2  19
TORSDOF 7
