REMARK  Name = ZINC06446743
REMARK  5 active torsions:
REMARK  status: ('A' for Active; 'I' for Inactive)
REMARK    1  A    between atoms: C_4  and  C_7
REMARK    2  A    between atoms: C_8  and  C_21
REMARK    3  A    between atoms: C_11  and  C_13
REMARK    4  A    between atoms: C_16  and  O_20
REMARK    5  A    between atoms: C_17  and  O_19
REMARK                            x       y       z     vdW  Elec       q    Type
REMARK                         _______ _______ _______ _____ _____    ______ ____
ROOT
ATOM      1  C   UNL     1       3.716  -0.656  -0.081  0.00  0.00    +0.072 A 
ATOM      2  C   UNL     1       3.988  -1.825  -0.771  0.00  0.00    +0.072 A 
ATOM      3  N   UNL     1       5.278  -2.177  -0.444  0.00  0.00    -0.339 N 
ATOM      4  H   UNL     1       5.763  -2.953  -0.767  0.00  0.00    +0.167 HD
ATOM      5  C   UNL     1       5.748  -1.230   0.421  0.00  0.00    +0.117 A 
ATOM      6  N   UNL     1       4.812  -0.331   0.623  0.00  0.00    -0.339 N 
ATOM      7  H   UNL     1       4.898   0.448   1.195  0.00  0.00    +0.167 HD
ENDROOT
BRANCH   2   8
ATOM      8  C   UNL     1       3.077  -2.551  -1.677  0.00  0.00    +0.001 A 
ATOM      9  C   UNL     1       2.372  -1.848  -2.659  0.00  0.00    +0.012 A 
ATOM     10  C   UNL     1       1.521  -2.539  -3.502  0.00  0.00    +0.028 A 
ATOM     11  C   UNL     1       1.377  -3.897  -3.368  0.00  0.00    +0.101 A 
ATOM     12  C   UNL     1       2.062  -4.633  -2.401  0.00  0.00    +0.010 A 
ATOM     13  C   UNL     1       2.931  -3.927  -1.550  0.00  0.00    +0.020 A 
ATOM     14  C   UNL     1       1.793  -6.097  -2.389  0.00  0.00    +0.009 A 
ATOM     15  C   UNL     1       2.351  -7.056  -1.521  0.00  0.00    +0.010 A 
ATOM     16  C   UNL     1       2.006  -8.383  -1.629  0.00  0.00    +0.001 A 
ATOM     17  C   UNL     1       1.105  -8.807  -2.590  0.00  0.00    +0.002 A 
ATOM     18  C   UNL     1       0.546  -7.878  -3.453  0.00  0.00    +0.028 A 
ATOM     19  C   UNL     1       0.889  -6.557  -3.345  0.00  0.00    +0.101 A 
ATOM     20  S   UNL     1       0.405  -5.101  -4.237  0.00  0.00    +0.026 S 
ATOM     21  O   UNL     1      -0.963  -4.848  -3.947  0.00  0.00    -0.164 OA
ATOM     22  O   UNL     1       0.922  -5.207  -5.556  0.00  0.00    -0.164 OA
ENDBRANCH   2   8
BRANCH   1  26
ATOM     23  C   UNL     1       0.068   1.523  -0.188  0.00  0.00    +0.000 A 
ATOM     24  C   UNL     1       0.046   0.152  -0.005  0.00  0.00    +0.001 A 
ATOM     25  C   UNL     1       1.227  -0.561   0.031  0.00  0.00    +0.010 A 
ATOM     26  C   UNL     1       2.444   0.103  -0.119  0.00  0.00    +0.000 A 
ATOM     27  C   UNL     1       2.459   1.486  -0.304  0.00  0.00    +0.010 A 
ATOM     28  C   UNL     1       1.272   2.188  -0.337  0.00  0.00    +0.001 A 
ENDBRANCH   1  26
BRANCH   5  29
ATOM     29  C   UNL     1       7.095  -1.216   1.027  0.00  0.00    +0.019 A 
ATOM     30  C   UNL     1       8.009  -2.227   0.725  0.00  0.00    +0.015 A 
ATOM     31  C   UNL     1       9.266  -2.213   1.292  0.00  0.00    +0.050 A 
ATOM     32  C   UNL     1       9.625  -1.196   2.163  0.00  0.00    +0.158 A 
ATOM     33  C   UNL     1       8.718  -0.184   2.470  0.00  0.00    +0.159 A 
ATOM     34  C   UNL     1       7.459  -0.189   1.900  0.00  0.00    +0.060 A 
BRANCH  33  35
ATOM     35  O   UNL     1       9.073   0.812   3.325  0.00  0.00    -0.503 OA
ATOM     36  H   UNL     1       9.478   1.577   2.893  0.00  0.00    +0.292 HD
ENDBRANCH  33  35
BRANCH  32  37
ATOM     37  O   UNL     1      10.866  -1.186   2.720  0.00  0.00    -0.503 OA
ATOM     38  H   UNL     1      11.526  -0.707   2.201  0.00  0.00    +0.292 HD
ENDBRANCH  32  37
ENDBRANCH   5  29
TORSDOF 5
