REMARK  Name = ZINC15417499
REMARK  7 active torsions:
REMARK  status: ('A' for Active; 'I' for Inactive)
REMARK    1  A    between atoms: C_4  and  C_7
REMARK    2  A    between atoms: C_7  and  N_8
REMARK    3  A    between atoms: N_15  and  C_26
REMARK    4  A    between atoms: N_18  and  C_19
REMARK    5  A    between atoms: C_19  and  C_20
REMARK    6  A    between atoms: C_26  and  C_27
REMARK    7  A    between atoms: N_29  and  C_30
REMARK                            x       y       z     vdW  Elec       q    Type
REMARK                         _______ _______ _______ _____ _____    ______ ____
ROOT
ATOM      1  N   UNL     1      -0.009   1.377   0.024  0.00  0.00    -0.320 N 
ATOM      2  C   UNL     1       1.275   1.784   0.009  0.00  0.00    +0.202 A 
ATOM      3  N   UNL     1       2.068   0.744  -0.013  0.00  0.00    -0.218 NA
ATOM      4  C   UNL     1       1.344  -0.378  -0.014  0.00  0.00    +0.168 A 
ATOM      5  C   UNL     1       0.006  -0.004   0.009  0.00  0.00    +0.152 A 
ATOM      6  C   UNL     1      -0.988  -1.006   0.014  0.00  0.00    +0.283 A 
ATOM      7  O   UNL     1      -2.168  -0.703   0.035  0.00  0.00    -0.265 OA
ATOM      8  N   UNL     1      -0.617  -2.303  -0.005  0.00  0.00    -0.250 N 
ATOM      9  C   UNL     1       0.682  -2.651  -0.027  0.00  0.00    +0.334 A 
ATOM     10  O   UNL     1       0.979  -3.829  -0.043  0.00  0.00    -0.246 OA
ATOM     11  N   UNL     1       1.661  -1.726  -0.032  0.00  0.00    -0.272 N 
ENDROOT
BRANCH   1  12
ATOM     12  C   UNL     1      -1.196   2.235   0.044  0.00  0.00    +0.158 C 
BRANCH  12  16
ATOM     13  C   UNL     1      -2.516   2.744   4.075  0.00  0.00    +0.000 A 
ATOM     14  C   UNL     1      -1.602   3.627   3.530  0.00  0.00    +0.000 A 
ATOM     15  C   UNL     1      -1.175   3.462   2.226  0.00  0.00    +0.005 A 
ATOM     16  C   UNL     1      -1.661   2.415   1.467  0.00  0.00    -0.028 A 
ATOM     17  C   UNL     1      -2.579   1.535   2.010  0.00  0.00    +0.005 A 
ATOM     18  C   UNL     1      -3.002   1.697   3.316  0.00  0.00    +0.000 A 
ENDBRANCH  12  16
ENDBRANCH   1  12
BRANCH  11  19
ATOM     19  C   UNL     1       3.064  -2.148  -0.057  0.00  0.00    +0.163 C 
BRANCH  19  20
ATOM     20  C   UNL     1       3.566  -2.306   1.355  0.00  0.00    -0.028 A 
ATOM     21  C   UNL     1       4.145  -1.234   2.007  0.00  0.00    +0.005 A 
ATOM     22  C   UNL     1       4.601  -1.378   3.304  0.00  0.00    +0.000 A 
ATOM     23  C   UNL     1       4.487  -2.597   3.946  0.00  0.00    +0.000 A 
ATOM     24  C   UNL     1       3.912  -3.671   3.292  0.00  0.00    +0.000 A 
ATOM     25  C   UNL     1       3.451  -3.525   1.997  0.00  0.00    +0.005 A 
ENDBRANCH  19  20
ENDBRANCH  11  19
BRANCH   8  26
ATOM     26  C   UNL     1      -1.643  -3.348  -0.001  0.00  0.00    +0.226 C 
BRANCH  26  27
ATOM     27  C   UNL     1      -1.975  -3.721   1.421  0.00  0.00    +0.237 C 
ATOM     28  O   UNL     1      -1.410  -3.168   2.341  0.00  0.00    -0.274 OA
ATOM     29  N   UNL     1      -2.901  -4.668   1.671  0.00  0.00    -0.284 N 
ATOM     30  H   UNL     1      -3.401  -5.062   0.939  0.00  0.00    +0.155 HD
BRANCH  29  31
ATOM     31  C   UNL     1      -3.140  -5.083   2.986  0.00  0.00    +0.034 A 
ATOM     32  C   UNL     1      -3.464  -6.408   3.249  0.00  0.00    +0.025 A 
ATOM     33  C   UNL     1      -3.694  -6.816   4.548  0.00  0.00    +0.022 A 
ATOM     34  C   UNL     1      -3.614  -5.904   5.586  0.00  0.00    +0.041 A 
ATOM     35  C   UNL     1      -3.296  -4.583   5.326  0.00  0.00    +0.022 A 
ATOM     36  C   UNL     1      -3.059  -4.171   4.029  0.00  0.00    +0.025 A 
ATOM     37 CL   UNL     1      -3.911  -6.419   7.217  0.00  0.00    -0.084 Cl
ENDBRANCH  29  31
ENDBRANCH  26  27
ENDBRANCH   8  26
TORSDOF 7
