REMARK  Name = ZINC39665934
REMARK  11 active torsions:
REMARK  status: ('A' for Active; 'I' for Inactive)
REMARK    1  A    between atoms: C_1  and  C_2
REMARK    2  A    between atoms: C_5  and  O_8
REMARK    3  A    between atoms: O_8  and  C_9
REMARK    4  A    between atoms: C_9  and  C_11
REMARK    5  A    between atoms: C_9  and  C_12
REMARK    6  A    between atoms: C_12  and  N_13
REMARK    7  A    between atoms: C_14  and  C_16
REMARK    8  A    between atoms: C_27  and  C_29
REMARK    9  A    between atoms: C_34  and  O_35
REMARK   10  A    between atoms: O_35  and  C_36
REMARK   11  A    between atoms: C_36  and  C_38
REMARK                            x       y       z     vdW  Elec       q    Type
REMARK                         _______ _______ _______ _____ _____    ______ ____
ROOT
ATOM      1  C   UNL     1       5.389  -7.178  -0.028  0.00  0.00    +0.100 C 
ATOM      2  C   UNL     1       6.033  -6.334   1.095  0.00  0.00    +0.121 C 
ATOM      3  N   UNL     1       6.765  -7.316   1.929  0.00  0.00    -0.296 N 
ATOM      4  C   UNL     1       7.354  -8.263   0.952  0.00  0.00    +0.115 C 
ATOM      5  C   UNL     1       6.261  -8.442  -0.121  0.00  0.00    -0.004 C 
ATOM      6  C   UNL     1       5.426  -9.683   0.180  0.00  0.00    -0.010 C 
ATOM      7  C   UNL     1       6.301 -10.931   0.026  0.00  0.00    -0.082 C 
ATOM      8  N   UNL     1       6.832 -10.992  -1.341  0.00  0.00    +0.379 N 
ATOM      9  C   UNL     1       7.708  -9.842  -1.591  0.00  0.00    -0.082 C 
ATOM     10  C   UNL     1       6.893  -8.548  -1.505  0.00  0.00    -0.010 C 
ATOM     11  C   UNL     1       6.872  -7.342   3.272  0.00  0.00    +0.250 C 
ATOM     12  O   UNL     1       7.442  -8.266   3.819  0.00  0.00    -0.270 OA
ATOM     13  H   UNL     1       7.358 -11.845  -1.458  0.00  0.00    -0.086 HD
ATOM     14  H   UNL     1       6.066 -10.979  -1.999  0.00  0.00    -0.086 HD
ENDROOT
BRANCH  11  15
ATOM     15  C   UNL     1       6.296  -6.248   4.079  0.00  0.00    +0.079 A 
ATOM     16  C   UNL     1       6.288  -4.941   3.587  0.00  0.00    +0.017 A 
ATOM     17  C   UNL     1       5.749  -3.925   4.346  0.00  0.00    +0.001 A 
ATOM     18  C   UNL     1       5.214  -4.193   5.595  0.00  0.00    +0.004 A 
ATOM     19  C   UNL     1       5.215  -5.481   6.093  0.00  0.00    +0.047 A 
ATOM     20  C   UNL     1       5.749  -6.517   5.341  0.00  0.00    +0.144 A 
BRANCH  20  21
ATOM     21  O   UNL     1       5.747  -7.784   5.827  0.00  0.00    -0.425 OA
BRANCH  21  22
ATOM     22  C   UNL     1       4.725  -8.587   5.489  0.00  0.00    +0.309 C 
ATOM     23  O   UNL     1       3.884  -8.200   4.712  0.00  0.00    -0.251 OA
ATOM     24  C   UNL     1       4.627  -9.970   6.078  0.00  0.00    +0.136 C 
ENDBRANCH  21  22
ENDBRANCH  20  21
ENDBRANCH  11  15
BRANCH   1  26
ATOM     25  N   UNL     1       3.080  -7.827  -0.633  0.00  0.00    -0.312 N 
ATOM     26  C   UNL     1       3.973  -7.544   0.336  0.00  0.00    +0.218 C 
ATOM     27  O   UNL     1       3.637  -7.582   1.501  0.00  0.00    -0.275 OA
ATOM     28  H   UNL     1       3.349  -7.796  -1.564  0.00  0.00    +0.149 HD
BRANCH  25  29
ATOM     29  C   UNL     1       1.703  -8.182  -0.279  0.00  0.00    +0.148 C 
BRANCH  29  30
ATOM     30  C   UNL     1       0.903  -8.454  -1.554  0.00  0.00    +0.187 C 
ATOM     31  C   UNL     1      -0.563  -8.703  -1.193  0.00  0.00    +0.053 C 
BRANCH  30  32
ATOM     32  O   UNL     1       1.433  -9.606  -2.213  0.00  0.00    -0.488 OA
BRANCH  32  37
ATOM     33  C   UNL     1       0.565 -10.005  -7.763  0.00  0.00    +0.044 C 
ATOM     34  C   UNL     1       0.797  -9.899  -6.278  0.00  0.00    -0.050 A 
ATOM     35  C   UNL     1       0.225  -8.863  -5.563  0.00  0.00    +0.007 A 
ATOM     36  C   UNL     1       0.436  -8.763  -4.201  0.00  0.00    +0.046 A 
ATOM     37  C   UNL     1       1.223  -9.703  -3.552  0.00  0.00    +0.121 A 
ATOM     38  C   UNL     1       1.796 -10.741  -4.272  0.00  0.00    +0.046 A 
ATOM     39  C   UNL     1       1.577 -10.840  -5.632  0.00  0.00    +0.007 A 
ENDBRANCH  32  37
ENDBRANCH  30  32
ENDBRANCH  29  30
ENDBRANCH  25  29
ENDBRANCH   1  26
TORSDOF 8
