REMARK  Name = ZINC59179069
REMARK  10 active torsions:
REMARK  status: ('A' for Active; 'I' for Inactive)
REMARK    1  A    between atoms: C_1  and  N_2
REMARK    2  A    between atoms: C_3  and  C_23
REMARK    3  A    between atoms: C_6  and  S_7
REMARK    4  A    between atoms: S_7  and  C_8
REMARK    5  A    between atoms: C_8  and  C_9
REMARK    6  A    between atoms: N_11  and  C_12
REMARK    7  A    between atoms: C_13  and  C_21
REMARK    8  A    between atoms: C_23  and  C_24
REMARK    9  A    between atoms: C_24  and  N_25
REMARK   10  A    between atoms: C_26  and  C_28
REMARK                            x       y       z     vdW  Elec       q    Type
REMARK                         _______ _______ _______ _____ _____    ______ ____
ROOT
ATOM      1  C   UNL     1      -0.018   1.461   0.010  0.00  0.00    +0.152 C 
ATOM      2  N   UNL     1       0.002  -0.004   0.002  0.00  0.00    -0.309 N 
ATOM      3  C   UNL     1       0.008  -0.824  -1.093  0.00  0.00    +0.135 A 
ATOM      4  N   UNL     1       0.028  -2.052  -0.657  0.00  0.00    -0.133 NA
ATOM      5  N   UNL     1       0.034  -2.064   0.628  0.00  0.00    -0.123 NA
ATOM      6  C   UNL     1       0.024  -0.834   1.086  0.00  0.00    +0.192 A 
ENDROOT
BRANCH   6   7
ATOM      7  S   UNL     1       0.034  -0.347   2.779  0.00  0.00    -0.077 S 
BRANCH   7   8
ATOM      8  C   UNL     1       0.064  -1.917   3.688  0.00  0.00    +0.173 C 
BRANCH   8   9
ATOM      9  C   UNL     1       0.075  -1.639   5.169  0.00  0.00    +0.228 C 
ATOM     10  O   UNL     1       0.063  -0.496   5.572  0.00  0.00    -0.275 OA
ATOM     11  N   UNL     1       0.098  -2.663   6.046  0.00  0.00    -0.278 N 
ATOM     12  H   UNL     1       0.107  -3.578   5.723  0.00  0.00    +0.155 HD
BRANCH  11  13
ATOM     13  C   UNL     1       0.107  -2.408   7.410  0.00  0.00    +0.090 A 
ATOM     14  C   UNL     1       0.136  -3.325   8.447  0.00  0.00    +0.084 A 
ATOM     15  C   UNL     1       0.141  -2.798   9.800  0.00  0.00    -0.018 A 
ATOM     16  C   UNL     1       0.117  -1.448   9.868  0.00  0.00    -0.004 A 
ATOM     17  S   UNL     1       0.095  -0.916   8.181  0.00  0.00    -0.077 S 
ATOM     18  C   UNL     1       0.113  -0.610  11.108  0.00  0.00    +0.043 C 
ATOM     19  C   UNL     1      -0.239  -1.513  12.300  0.00  0.00    +0.005 C 
ATOM     20  C   UNL     1       0.620  -2.779  12.233  0.00  0.00    +0.005 C 
ATOM     21  C   UNL     1       0.172  -3.652  11.059  0.00  0.00    +0.037 C 
BRANCH  14  22
ATOM     22  C   UNL     1       0.159  -4.734   8.196  0.00  0.00    +0.102 C 
ATOM     23  N   UNL     1       0.177  -5.853   7.997  0.00  0.00    -0.191 NA
ENDBRANCH  14  22
ENDBRANCH  11  13
ENDBRANCH   8   9
ENDBRANCH   7   8
ENDBRANCH   6   7
BRANCH   3  24
ATOM     24  C   UNL     1      -0.005  -0.388  -2.535  0.00  0.00    +0.095 C 
BRANCH  24  25
ATOM     25  C   UNL     1       1.433  -0.219  -3.030  0.00  0.00    +0.112 C 
BRANCH  25  26
ATOM     26  N   UNL     1       1.420   0.205  -4.433  0.00  0.00    -0.311 N 
ATOM     27  C   UNL     1       2.581   0.417  -5.083  0.00  0.00    +0.244 C 
ATOM     28  O   UNL     1       3.639   0.256  -4.507  0.00  0.00    -0.270 OA
ATOM     29  H   UNL     1       0.575   0.333  -4.893  0.00  0.00    +0.149 HD
BRANCH  27  30
ATOM     30  C   UNL     1       2.567   0.845  -6.498  0.00  0.00    +0.037 A 
ATOM     31  C   UNL     1       1.354   1.036  -7.161  0.00  0.00    +0.014 A 
ATOM     32  C   UNL     1       1.348   1.435  -8.481  0.00  0.00    +0.021 A 
ATOM     33  C   UNL     1       2.543   1.647  -9.149  0.00  0.00    +0.041 A 
ATOM     34  C   UNL     1       3.750   1.459  -8.496  0.00  0.00    +0.021 A 
ATOM     35  C   UNL     1       3.769   1.065  -7.175  0.00  0.00    +0.014 A 
ATOM     36 CL   UNL     1       2.527   2.149 -10.810  0.00  0.00    -0.084 Cl
ENDBRANCH  27  30
ENDBRANCH  25  26
ENDBRANCH  24  25
ENDBRANCH   3  24
TORSDOF 9
