REMARK  Name = ZINC63560091
REMARK  7 active torsions:
REMARK  status: ('A' for Active; 'I' for Inactive)
REMARK    1  A    between atoms: C_1  and  C_2
REMARK    2  A    between atoms: C_2  and  O_3
REMARK    3  A    between atoms: O_3  and  C_4
REMARK    4  A    between atoms: C_9  and  S_14
REMARK    5  A    between atoms: S_14  and  C_15
REMARK    6  A    between atoms: C_15  and  C_17
REMARK    7  A    between atoms: C_15  and  C_23
REMARK                            x       y       z     vdW  Elec       q    Type
REMARK                         _______ _______ _______ _____ _____    ______ ____
ROOT
ATOM      1  C   UNL     1      -0.582  -5.823   4.481  0.00  0.00    +0.166 C 
ENDROOT
BRANCH   1   2
ATOM      2  C   UNL     1      -1.532  -6.509   5.430  0.00  0.00    +0.236 C 
ATOM      3  O   UNL     1      -1.100  -7.220   6.312  0.00  0.00    -0.274 OA
ATOM      4  N   UNL     1      -2.861  -6.332   5.297  0.00  0.00    -0.264 N 
ATOM      5  C   UNL     1      -3.737  -6.964   6.172  0.00  0.00    +0.164 A 
ATOM      6  N   UNL     1      -3.453  -7.759   7.181  0.00  0.00    -0.233 NA
ATOM      7  C   UNL     1      -4.408  -8.286   7.924  0.00  0.00    +0.120 A 
ATOM      8  C   UNL     1      -5.686  -7.971   7.599  0.00  0.00    +0.068 A 
ATOM      9  S   UNL     1      -5.418  -6.894   6.201  0.00  0.00    -0.061 S 
ATOM     10  H   UNL     1      -3.207  -5.763   4.591  0.00  0.00    +0.157 HD
ENDBRANCH   1   2
BRANCH   1  11
ATOM     11  C   UNL     1      -0.300  -4.428   4.975  0.00  0.00    -0.026 A 
ATOM     12  C   UNL     1       0.279  -4.237   6.216  0.00  0.00    +0.005 A 
ATOM     13  C   UNL     1       0.538  -2.957   6.669  0.00  0.00    +0.000 A 
ATOM     14  C   UNL     1       0.219  -1.867   5.881  0.00  0.00    +0.000 A 
ATOM     15  C   UNL     1      -0.359  -2.058   4.640  0.00  0.00    +0.000 A 
ATOM     16  C   UNL     1      -0.614  -3.338   4.185  0.00  0.00    +0.005 A 
ENDBRANCH   1  11
BRANCH   1  17
ATOM     17  S   UNL     1       0.969  -6.760   4.396  0.00  0.00    -0.097 S 
BRANCH  17  23
ATOM     18  C   UNL     1       0.802  -1.821   1.305  0.00  0.00    +0.123 A 
ATOM     19  C   UNL     1       0.224  -2.693   0.290  0.00  0.00    +0.048 A 
ATOM     20  C   UNL     1       0.299  -4.034   0.378  0.00  0.00    +0.031 A 
ATOM     21  C   UNL     1       0.979  -4.654   1.525  0.00  0.00    +0.061 A 
ATOM     22  N   UNL     1       1.190  -5.897   1.851  0.00  0.00    -0.355 N 
ATOM     23  C   UNL     1       1.930  -5.903   3.119  0.00  0.00    +0.236 C 
ATOM     24  N   UNL     1       2.124  -4.496   3.491  0.00  0.00    -0.355 N 
ATOM     25  C   UNL     1       1.570  -3.766   2.562  0.00  0.00    +0.064 A 
ATOM     26  C   UNL     1       1.449  -2.317   2.388  0.00  0.00    +0.073 A 
ATOM     27  H   UNL     1       0.909  -6.677   1.348  0.00  0.00    +0.162 HD
ATOM     28  H   UNL     1       2.581  -4.170   4.282  0.00  0.00    +0.162 HD
BRANCH  18  29
ATOM     29  O   UNL     1       0.693  -0.477   1.160  0.00  0.00    -0.492 OA
BRANCH  29  31
ATOM     30  C   UNL     1      -0.019   1.526   0.010  0.00  0.00    +0.048 C 
ATOM     31  C   UNL     1       0.002  -0.004   0.002  0.00  0.00    +0.225 C 
ENDBRANCH  29  31
ENDBRANCH  18  29
ENDBRANCH  17  23
ENDBRANCH   1  17
TORSDOF 6
