REMARK  Name = ZINC32911203
REMARK  5 active torsions:
REMARK  status: ('A' for Active; 'I' for Inactive)
REMARK    1  A    between atoms: C_1  and  C_2
REMARK    2  A    between atoms: C_7  and  N_12
REMARK    3  A    between atoms: C_9  and  C_11
REMARK    4  A    between atoms: C_13  and  C_15
REMARK    5  A    between atoms: C_15  and  N_16
REMARK                            x       y       z     vdW  Elec       q    Type
REMARK                         _______ _______ _______ _____ _____    ______ ____
ROOT
ATOM      1  N   UNL     1       4.489   2.860  -0.126  0.00  0.00    -0.215 N 
ATOM      2  C   UNL     1       3.461   3.239  -0.913  0.00  0.00    +0.252 C 
ATOM      3  O   UNL     1       3.353   3.076  -2.109  0.00  0.00    -0.272 OA
ATOM      4  C   UNL     1       2.471   3.909   0.012  0.00  0.00    +0.144 C 
ATOM      5  C   UNL     1       2.267   5.366  -0.393  0.00  0.00    +0.081 C 
ATOM      6  C   UNL     1       1.074   5.924   0.395  0.00  0.00    +0.232 C 
ATOM      7  O   UNL     1      -0.098   5.203   0.012  0.00  0.00    -0.492 OA
ATOM      8  C   UNL     1      -0.044   3.846   0.018  0.00  0.00    +0.126 A 
ATOM      9  C   UNL     1       1.164   3.167   0.008  0.00  0.00    +0.027 A 
ATOM     10  C   UNL     1       1.174   1.783   0.000  0.00  0.00    +0.010 A 
ATOM     11  C   UNL     1      -0.013   1.076   0.008  0.00  0.00    +0.001 A 
ATOM     12  C   UNL     1      -1.219   1.751   0.017  0.00  0.00    +0.004 A 
ATOM     13  C   UNL     1      -1.237   3.131   0.027  0.00  0.00    +0.046 A 
ATOM     14  N   UNL     1       3.105   3.826   1.334  0.00  0.00    -0.281 N 
ATOM     15  C   UNL     1       4.282   3.197   1.153  0.00  0.00    +0.310 C 
ATOM     16  O   UNL     1       5.068   2.962   2.050  0.00  0.00    -0.252 OA
ATOM     17  H   UNL     1       2.596   4.244   2.215  0.00  0.00    +0.152 HD
ENDROOT
BRANCH   1  18
ATOM     18  C   UNL     1       5.685   2.166  -0.611  0.00  0.00    +0.213 C 
BRANCH  18  20
ATOM     19  N   UNL     1       6.433  -0.167  -0.949  0.00  0.00    -0.311 N 
ATOM     20  C   UNL     1       5.461   0.677  -0.550  0.00  0.00    +0.231 C 
ATOM     21  O   UNL     1       4.407   0.239  -0.141  0.00  0.00    -0.274 OA
ATOM     22  H   UNL     1       7.389   0.230  -1.320  0.00  0.00    +0.149 HD
BRANCH  19  28
ATOM     23  C   UNL     1       8.685  -4.555  -0.608  0.00  0.00    +0.008 C 
ATOM     24  C   UNL     1       7.336  -3.841  -0.718  0.00  0.00    -0.009 C 
ATOM     25  C   UNL     1       6.617  -4.301  -1.987  0.00  0.00    +0.003 C 
ATOM     26  C   UNL     1       5.268  -3.587  -2.097  0.00  0.00    +0.002 C 
ATOM     27  C   UNL     1       5.496  -2.075  -2.159  0.00  0.00    +0.022 C 
ATOM     28  C   UNL     1       6.215  -1.615  -0.889  0.00  0.00    +0.076 C 
ATOM     29  C   UNL     1       7.564  -2.329  -0.780  0.00  0.00    +0.009 C 
ATOM     30  C   UNL     1       8.420  -1.992  -2.002  0.00  0.00    +0.009 C 
ENDBRANCH  19  28
ENDBRANCH  18  20
ENDBRANCH   1  18
TORSDOF 3
