REMARK  Name = ZINC08870788
REMARK  7 active torsions:
REMARK  status: ('A' for Active; 'I' for Inactive)
REMARK    1  A    between atoms: C_10  and  S_11
REMARK    2  A    between atoms: S_11  and  N_14
REMARK    3  A    between atoms: N_14  and  C_15
REMARK    4  A    between atoms: C_17  and  S_26
REMARK    5  A    between atoms: C_18  and  O_25
REMARK    6  A    between atoms: S_26  and  C_27
REMARK    7  A    between atoms: C_27  and  C_28
REMARK                            x       y       z     vdW  Elec       q    Type
REMARK                         _______ _______ _______ _____ _____    ______ ____
ROOT
ATOM      1  C   UNL     1       0.004   6.194   0.213  0.00  0.00    +0.057 A 
ATOM      2  C   UNL     1       0.430   4.886   0.258  0.00  0.00    +0.043 A 
ATOM      3  C   UNL     1       1.786   4.581   0.409  0.00  0.00    +0.052 A 
ATOM      4  C   UNL     1       2.728   5.587   0.521  0.00  0.00    +0.138 A 
ATOM      5  C   UNL     1       2.320   6.932   0.473  0.00  0.00    +0.026 A 
ATOM      6  C   UNL     1       0.945   7.241   0.320  0.00  0.00    +0.008 A 
ATOM      7  C   UNL     1       0.542   8.585   0.278  0.00  0.00    +0.010 A 
ATOM      8  C   UNL     1       1.474   9.572   0.383  0.00  0.00    +0.001 A 
ATOM      9  C   UNL     1       2.826   9.269   0.533  0.00  0.00    +0.001 A 
ATOM     10  C   UNL     1       3.254   7.978   0.579  0.00  0.00    +0.012 A 
ENDROOT
BRANCH   1  11
ATOM     11  N   UNL     1      -1.353   6.485   0.063  0.00  0.00    -0.216 N 
ATOM     12  H   UNL     1      -1.630   7.255  -0.458  0.00  0.00    +0.174 HD
BRANCH  11  13
ATOM     13  S   UNL     1      -2.492   5.515   0.774  0.00  0.00    +0.073 S 
ATOM     14  O   UNL     1      -3.749   6.141   0.562  0.00  0.00    -0.150 OA
ATOM     15  O   UNL     1      -2.220   4.188   0.344  0.00  0.00    -0.150 OA
BRANCH  13  25
ATOM     16  C   UNL     1      -2.605   9.099   4.681  0.00  0.00    +0.001 A 
ATOM     17  C   UNL     1      -2.842   9.089   3.308  0.00  0.00    +0.001 A 
ATOM     18  C   UNL     1      -2.715   7.945   2.583  0.00  0.00    +0.010 A 
ATOM     19  C   UNL     1      -2.338   6.753   3.225  0.00  0.00    +0.009 A 
ATOM     20  C   UNL     1      -2.096   6.763   4.622  0.00  0.00    -0.016 A 
ATOM     21  C   UNL     1      -2.239   7.965   5.337  0.00  0.00    +0.008 A 
ATOM     22  C   UNL     1      -1.720   5.572   5.264  0.00  0.00    +0.008 A 
ATOM     23  C   UNL     1      -1.592   4.427   4.539  0.00  0.00    +0.003 A 
ATOM     24  C   UNL     1      -1.836   4.415   3.167  0.00  0.00    +0.029 A 
ATOM     25  C   UNL     1      -2.197   5.552   2.510  0.00  0.00    +0.116 A 
ENDBRANCH  13  25
ENDBRANCH  11  13
ENDBRANCH   1  11
BRANCH   4  26
ATOM     26  O   UNL     1       4.044   5.276   0.673  0.00  0.00    -0.505 OA
ATOM     27  H   UNL     1       4.526   5.189  -0.160  0.00  0.00    +0.292 HD
ENDBRANCH   4  26
BRANCH   3  28
ATOM     28  S   UNL     1       2.299   2.896   0.463  0.00  0.00    -0.114 S 
BRANCH  28  29
ATOM     29  C   UNL     1       0.754   1.961   0.290  0.00  0.00    +0.148 C 
BRANCH  29  30
ATOM     30  C   UNL     1       1.054   0.485   0.321  0.00  0.00    +0.115 A 
ATOM     31  C   UNL     1       1.090  -0.288   1.421  0.00  0.00    +0.045 A 
ATOM     32  C   UNL     1       1.407  -1.597   0.993  0.00  0.00    +0.041 A 
ATOM     33  C   UNL     1       1.546  -1.547  -0.344  0.00  0.00    +0.195 A 
ATOM     34  O   UNL     1       1.325  -0.284  -0.746  0.00  0.00    -0.467 OA
ENDBRANCH  29  30
ENDBRANCH  28  29
ENDBRANCH   3  28
TORSDOF 7
