REMARK  Name = ZINC02348645
REMARK  10 active torsions:
REMARK  status: ('A' for Active; 'I' for Inactive)
REMARK    1  A    between atoms: C_1  and  C_2
REMARK    2  A    between atoms: C_5  and  N_8
REMARK    3  A    between atoms: N_8  and  C_9
REMARK    4  A    between atoms: C_9  and  N_11
REMARK    5  A    between atoms: N_11  and  N_12
REMARK    6  A    between atoms: C_13  and  C_15
REMARK    7  A    between atoms: C_15  and  S_16
REMARK    8  A    between atoms: S_16  and  C_17
REMARK    9  A    between atoms: C_20  and  C_29
REMARK   10  A    between atoms: N_21  and  C_22
REMARK                            x       y       z     vdW  Elec       q    Type
REMARK                         _______ _______ _______ _____ _____    ______ ____
ROOT
ATOM      1  S   UNL     1       5.454  -2.812   0.720  0.00  0.00    -0.076 S 
ENDROOT
BRANCH   1   2
ATOM      2  C   UNL     1       5.297  -4.441   1.372  0.00  0.00    +0.197 A 
ATOM      3  N   UNL     1       4.182  -5.026   1.750  0.00  0.00    -0.122 NA
ATOM      4  N   UNL     1       4.428  -6.214   2.175  0.00  0.00    -0.128 NA
ATOM      5  C   UNL     1       5.715  -6.462   2.095  0.00  0.00    +0.169 A 
ATOM      6  N   UNL     1       6.312  -5.336   1.573  0.00  0.00    -0.270 N 
BRANCH   6   7
ATOM      7  C   UNL     1       7.675  -5.146   1.306  0.00  0.00    +0.051 A 
ATOM      8  C   UNL     1       8.307  -5.913   0.337  0.00  0.00    +0.028 A 
ATOM      9  C   UNL     1       9.649  -5.720   0.071  0.00  0.00    +0.022 A 
ATOM     10  C   UNL     1      10.366  -4.771   0.778  0.00  0.00    +0.041 A 
ATOM     11  C   UNL     1       9.739  -4.008   1.748  0.00  0.00    +0.022 A 
ATOM     12  C   UNL     1       8.396  -4.194   2.014  0.00  0.00    +0.028 A 
ATOM     13 CL   UNL     1      12.053  -4.535   0.447  0.00  0.00    -0.084 Cl
ENDBRANCH   6   7
BRANCH   5  14
ATOM     14  C   UNL     1       6.393  -7.716   2.487  0.00  0.00    +0.020 A 
ATOM     15  C   UNL     1       7.780  -7.744   2.639  0.00  0.00    +0.011 A 
ATOM     16  C   UNL     1       8.407  -8.916   3.009  0.00  0.00    +0.001 A 
ATOM     17  C   UNL     1       7.665 -10.065   3.218  0.00  0.00    +0.000 A 
ATOM     18  C   UNL     1       6.290 -10.045   3.064  0.00  0.00    +0.001 A 
ATOM     19  C   UNL     1       5.650  -8.878   2.699  0.00  0.00    +0.011 A 
ENDBRANCH   5  14
ENDBRANCH   1   2
BRANCH   1  20
ATOM     20  C   UNL     1       3.720  -2.291   0.756  0.00  0.00    +0.174 C 
BRANCH  20  22
ATOM     21  N   UNL     1       2.403  -0.284   0.160  0.00  0.00    -0.234 N 
ATOM     22  C   UNL     1       3.608  -0.884   0.228  0.00  0.00    +0.239 C 
ATOM     23  O   UNL     1       4.601  -0.292  -0.137  0.00  0.00    -0.273 OA
ATOM     24  H   UNL     1       1.608  -0.758   0.452  0.00  0.00    +0.173 HD
BRANCH  21  25
ATOM     25  N   UNL     1       2.298   1.024  -0.331  0.00  0.00    -0.246 N 
ATOM     26  H   UNL     1       3.093   1.498  -0.623  0.00  0.00    +0.172 HD
BRANCH  25  27
ATOM     27  C   UNL     1       1.093   1.624  -0.398  0.00  0.00    +0.151 C 
ATOM     28  S   UNL     1       0.965   3.222  -0.998  0.00  0.00    -0.017 S 
BRANCH  27  29
ATOM     29  N   UNL     1      -0.011   0.966   0.007  0.00  0.00    -0.296 N 
ATOM     30  H   UNL     1       0.052   0.040   0.289  0.00  0.00    +0.154 HD
BRANCH  29  35
ATOM     31  C   UNL     1      -5.033   3.604   0.044  0.00  0.00    +0.044 C 
ATOM     32  C   UNL     1      -3.699   2.903   0.035  0.00  0.00    -0.050 A 
ATOM     33  C   UNL     1      -2.864   3.024  -1.061  0.00  0.00    +0.005 A 
ATOM     34  C   UNL     1      -1.641   2.383  -1.074  0.00  0.00    +0.023 A 
ATOM     35  C   UNL     1      -1.249   1.617   0.017  0.00  0.00    +0.033 A 
ATOM     36  C   UNL     1      -2.092   1.493   1.114  0.00  0.00    +0.023 A 
ATOM     37  C   UNL     1      -3.312   2.142   1.122  0.00  0.00    +0.005 A 
ENDBRANCH  29  35
ENDBRANCH  27  29
ENDBRANCH  25  27
ENDBRANCH  21  25
ENDBRANCH  20  22
ENDBRANCH   1  20
TORSDOF 9
