REMARK  Name = ZINC12771868
REMARK  11 active torsions:
REMARK  status: ('A' for Active; 'I' for Inactive)
REMARK    1  A    between atoms: C_1  and  C_2
REMARK    2  A    between atoms: C_2  and  C_4
REMARK    3  A    between atoms: C_2  and  N_53
REMARK    4  A    between atoms: C_10  and  C_15
REMARK    5  A    between atoms: C_20  and  N_53
REMARK    6  A    between atoms: C_21  and  C_22
REMARK    7  A    between atoms: C_21  and  N_53
REMARK    8  A    between atoms: C_26  and  O_30
REMARK    9  A    between atoms: C_27  and  O_28
REMARK   10  A    between atoms: O_28  and  C_29
REMARK   11  A    between atoms: O_30  and  C_31
REMARK                            x       y       z     vdW  Elec       q    Type
REMARK                         _______ _______ _______ _____ _____    ______ ____
ROOT
ATOM      1  C   UNL     1       0.243  -0.213   2.618  0.00  0.00    -0.005 C 
ATOM      2  C   UNL     1       0.104   1.297   2.417  0.00  0.00    -0.004 C 
ENDROOT
BRANCH   2   3
ATOM      3  C   UNL     1      -0.573   1.904   3.619  0.00  0.00    +0.097 A 
ATOM      4  N   UNL     1      -0.053   1.694   4.855  0.00  0.00    -0.312 N 
ATOM      5  H   UNL     1       0.748   1.155   4.949  0.00  0.00    +0.170 HD
ATOM      6  C   UNL     1      -0.627   2.218   5.954  0.00  0.00    +0.260 A 
ATOM      7  O   UNL     1      -0.147   2.021   7.057  0.00  0.00    -0.267 OA
ATOM      8  C   UNL     1      -1.809   3.012   5.807  0.00  0.00    +0.083 A 
ATOM      9  C   UNL     1      -2.605   3.679   6.831  0.00  0.00    +0.039 A 
ATOM     10  C   UNL     1      -3.700   4.385   6.448  0.00  0.00    +0.059 A 
ATOM     11  S   UNL     1      -3.719   4.187   4.676  0.00  0.00    -0.076 S 
ATOM     12  C   UNL     1      -2.274   3.174   4.492  0.00  0.00    +0.116 A 
ATOM     13  N   UNL     1      -1.648   2.627   3.453  0.00  0.00    -0.228 NA
BRANCH   9  14
ATOM     14  C   UNL     1      -2.228   3.590   8.256  0.00  0.00    +0.136 A 
ATOM     15  C   UNL     1      -2.100   4.636   9.116  0.00  0.00    +0.050 A 
ATOM     16  C   UNL     1      -1.730   4.094  10.364  0.00  0.00    +0.042 A 
ATOM     17  C   UNL     1      -1.644   2.760  10.204  0.00  0.00    +0.196 A 
ATOM     18  O   UNL     1      -1.945   2.458   8.929  0.00  0.00    -0.463 OA
ENDBRANCH   9  14
ENDBRANCH   2   3
BRANCH   2  20
ATOM     19  C   UNL     1      -2.034   0.955   1.335  0.00  0.00    -0.095 C 
ATOM     20  N   UNL     1      -0.704   1.588   1.214  0.00  0.00    +0.387 N 
ATOM     21  H   UNL     1      -0.824   2.604   1.131  0.00  0.00    -0.081 HD
BRANCH  20  22
ATOM     22  C   UNL     1      -0.013   1.086   0.008  0.00  0.00    -0.039 C 
BRANCH  22  23
ATOM     23  C   UNL     1      -0.742   1.585  -1.213  0.00  0.00    -0.019 A 
ATOM     24  C   UNL     1      -1.605   0.747  -1.894  0.00  0.00    +0.005 A 
ATOM     25  C   UNL     1      -2.275   1.201  -3.014  0.00  0.00    +0.004 A 
ATOM     26  C   UNL     1      -2.085   2.497  -3.458  0.00  0.00    +0.049 A 
ATOM     27  C   UNL     1      -1.222   3.342  -2.780  0.00  0.00    +0.162 A 
ATOM     28  C   UNL     1      -0.551   2.886  -1.650  0.00  0.00    +0.163 A 
BRANCH  28  29
ATOM     29  O   UNL     1       0.294   3.713  -0.978  0.00  0.00    -0.491 OA
ATOM     30  C   UNL     1       1.661   3.720  -1.393  0.00  0.00    +0.277 C 
ENDBRANCH  28  29
BRANCH  27  31
ATOM     31  O   UNL     1      -1.035   4.617  -3.216  0.00  0.00    -0.491 OA
ATOM     32  C   UNL     1      -1.761   5.018  -4.380  0.00  0.00    +0.277 C 
ENDBRANCH  27  31
ENDBRANCH  22  23
ENDBRANCH  20  22
ENDBRANCH   2  20
TORSDOF 7
