REMARK  Name = ZINC43743347
REMARK  11 active torsions:
REMARK  status: ('A' for Active; 'I' for Inactive)
REMARK    1  A    between atoms: C_1  and  C_2
REMARK    2  A    between atoms: C_9  and  O_20
REMARK    3  A    between atoms: C_12  and  C_14
REMARK    4  A    between atoms: C_23  and  O_38
REMARK    5  A    between atoms: C_24  and  C_31
REMARK    6  A    between atoms: C_27  and  O_30
REMARK    7  A    between atoms: N_32  and  C_33
REMARK    8  A    between atoms: C_33  and  C_34
REMARK    9  A    between atoms: C_33  and  C_35
REMARK   10  A    between atoms: C_33  and  C_36
REMARK   11  A    between atoms: C_36  and  O_37
REMARK                            x       y       z     vdW  Elec       q    Type
REMARK                         _______ _______ _______ _____ _____    ______ ____
ROOT
ATOM      1  C   UNL     1       0.031   1.491  -0.003  0.00  0.00    +0.014 C 
ATOM      2  C   UNL     1       0.016  -0.039   0.004  0.00  0.00    +0.004 C 
ATOM      3  C   UNL     1       0.612  -0.618  -1.282  0.00  0.00    +0.010 C 
ATOM      4  C   UNL     1       2.124  -0.416  -1.316  0.00  0.00    +0.005 C 
ATOM      5  C   UNL     1       2.746  -1.180  -0.142  0.00  0.00    +0.009 C 
ATOM      6  C   UNL     1       2.227  -0.573   1.160  0.00  0.00    +0.025 C 
ATOM      7  C   UNL     1       0.730  -0.614   1.240  0.00  0.00    +0.075 C 
ATOM      8  C   UNL     1       0.190  -2.053   1.331  0.00  0.00    +0.036 C 
ATOM      9  C   UNL     1      -1.303  -1.901   0.960  0.00  0.00    +0.011 C 
ATOM     10  C   UNL     1      -1.423  -0.605   0.137  0.00  0.00    +0.027 C 
ATOM     11  C   UNL     1       2.851  -1.304   2.351  0.00  0.00    +0.009 C 
ATOM     12  C   UNL     1       4.374  -1.164   2.294  0.00  0.00    +0.036 C 
ATOM     13  C   UNL     1       4.894  -1.772   0.990  0.00  0.00    +0.079 C 
ATOM     14  C   UNL     1       4.270  -1.056  -0.210  0.00  0.00    +0.038 C 
ATOM     15  C   UNL     1       4.775  -1.675  -1.514  0.00  0.00    +0.018 C 
ATOM     16  C   UNL     1       4.387  -3.155  -1.561  0.00  0.00    +0.032 C 
ATOM     17  C   UNL     1       5.014  -3.885  -0.372  0.00  0.00    +0.117 C 
ATOM     18  C   UNL     1       4.520  -3.255   0.932  0.00  0.00    +0.067 C 
ENDROOT
BRANCH  10  19
ATOM     19  C   UNL     1      -1.987  -0.908  -1.227  0.00  0.00    -0.022 C 
ATOM     20  C   UNL     1      -2.113  -2.111  -1.785  0.00  0.00    +0.094 C 
ATOM     21  C   UNL     1      -2.709  -1.960  -3.116  0.00  0.00    +0.332 C 
ATOM     22  O   UNL     1      -2.953  -2.874  -3.879  0.00  0.00    -0.246 OA
ATOM     23  O   UNL     1      -2.945  -0.659  -3.365  0.00  0.00    -0.457 OA
ATOM     24  C   UNL     1      -2.526   0.093  -2.221  0.00  0.00    +0.264 C 
ENDBRANCH  10  19
BRANCH   7  25
ATOM     25  O   UNL     1       0.306   0.103   2.401  0.00  0.00    -0.388 OA
ATOM     26  H   UNL     1       0.714  -0.202   3.223  0.00  0.00    +0.210 HD
ENDBRANCH   7  25
BRANCH  17  27
ATOM     27  O   UNL     1       4.652  -5.267  -0.417  0.00  0.00    -0.392 OA
ATOM     28  H   UNL     1       4.942  -5.724  -1.218  0.00  0.00    +0.210 HD
ENDBRANCH  17  27
BRANCH  14  29
ATOM     29  C   UNL     1       4.657   0.400  -0.164  0.00  0.00    +0.088 C 
ATOM     30  N   UNL     1       5.402   0.834   0.781  0.00  0.00    -0.287 NA
BRANCH  30  31
ATOM     31  C   UNL     1       5.779   2.249   0.826  0.00  0.00    +0.079 C 
ATOM     32  C   UNL     1       6.546   2.613  -0.447  0.00  0.00    +0.038 C 
ATOM     33  C   UNL     1       4.518   3.110   0.924  0.00  0.00    +0.038 C 
BRANCH  31  34
ATOM     34  C   UNL     1       6.666   2.502   2.046  0.00  0.00    +0.185 C 
BRANCH  34  35
ATOM     35  O   UNL     1       7.033   3.883   2.090  0.00  0.00    -0.393 OA
ATOM     36  H   UNL     1       7.597   4.116   2.840  0.00  0.00    +0.209 HD
ENDBRANCH  34  35
ENDBRANCH  31  34
ENDBRANCH  30  31
ENDBRANCH  14  29
BRANCH  13  37
ATOM     37  O   UNL     1       6.316  -1.638   0.936  0.00  0.00    -0.388 OA
ATOM     38  H   UNL     1       6.780  -2.078   1.661  0.00  0.00    +0.210 HD
ENDBRANCH  13  37
TORSDOF 8
