REMARK  Name = ZINC09380855
REMARK  9 active torsions:
REMARK  status: ('A' for Active; 'I' for Inactive)
REMARK    1  A    between atoms: C_1  and  C_2
REMARK    2  A    between atoms: C_2  and  S_3
REMARK    3  A    between atoms: S_3  and  N_6
REMARK    4  A    between atoms: N_6  and  C_7
REMARK    5  A    between atoms: C_10  and  C_13
REMARK    6  A    between atoms: N_15  and  S_26
REMARK    7  A    between atoms: C_16  and  C_19
REMARK    8  A    between atoms: C_24  and  C_25
REMARK    9  A    between atoms: S_26  and  C_29
REMARK                            x       y       z     vdW  Elec       q    Type
REMARK                         _______ _______ _______ _____ _____    ______ ____
ROOT
ATOM      1  C   UNL     1       0.925   6.731  -1.635  0.00  0.00    +0.070 C 
ATOM      2  N   UNL     1       1.621   6.718  -0.551  0.00  0.00    -0.167 NA
ATOM      3  N   UNL     1       1.065   5.954   0.473  0.00  0.00    -0.115 N 
ATOM      4  C   UNL     1      -0.198   5.367  -0.003  0.00  0.00    +0.154 C 
ATOM      5  C   UNL     1      -0.315   5.887  -1.449  0.00  0.00    +0.088 C 
ENDROOT
BRANCH   4   6
ATOM      6  C   UNL     1      -0.124   3.862   0.015  0.00  0.00    -0.020 A 
ATOM      7  C   UNL     1       1.105   3.231   0.064  0.00  0.00    +0.006 A 
ATOM      8  C   UNL     1       1.174   1.851   0.082  0.00  0.00    +0.000 A 
ATOM      9  C   UNL     1       0.012   1.101   0.051  0.00  0.00    +0.000 A 
ATOM     10  C   UNL     1      -1.216   1.732  -0.004  0.00  0.00    +0.004 A 
ATOM     11  C   UNL     1      -1.284   3.112  -0.017  0.00  0.00    -0.045 A 
ATOM     12  C   UNL     1      -2.624   3.800  -0.070  0.00  0.00    +0.044 C 
ENDBRANCH   4   6
BRANCH   1  16
ATOM     13  C   UNL     1       1.957   8.825  -5.182  0.00  0.00    +0.048 A 
ATOM     14  C   UNL     1       2.792   8.887  -4.072  0.00  0.00    +0.025 A 
ATOM     15  C   UNL     1       2.461   8.209  -2.920  0.00  0.00    +0.011 A 
ATOM     16  C   UNL     1       1.284   7.458  -2.867  0.00  0.00    -0.002 A 
ATOM     17  C   UNL     1       0.449   7.394  -3.986  0.00  0.00    +0.011 A 
ATOM     18  C   UNL     1       0.784   8.079  -5.133  0.00  0.00    +0.025 A 
BRANCH  13  19
ATOM     19  N   UNL     1       2.296   9.514  -6.348  0.00  0.00    -0.221 N 
ATOM     20  H   UNL     1       2.597  10.434  -6.298  0.00  0.00    +0.173 HD
BRANCH  19  21
ATOM     21  S   UNL     1       2.184   8.758  -7.817  0.00  0.00    +0.043 S 
ATOM     22  O   UNL     1       0.846   8.285  -7.881  0.00  0.00    -0.155 OA
ATOM     23  O   UNL     1       2.659   9.715  -8.754  0.00  0.00    -0.155 OA
BRANCH  21  25
ATOM     24  C   UNL     1       3.409   6.657  -9.069  0.00  0.00    +0.030 C 
ATOM     25  C   UNL     1       3.337   7.361  -7.712  0.00  0.00    +0.185 C 
ENDBRANCH  21  25
ENDBRANCH  19  21
ENDBRANCH  13  19
ENDBRANCH   1  16
BRANCH   3  26
ATOM     26  S   UNL     1       1.718   5.741   1.980  0.00  0.00    +0.089 S 
ATOM     27  O   UNL     1       2.474   6.910   2.264  0.00  0.00    -0.149 OA
ATOM     28  O   UNL     1       0.664   5.292   2.820  0.00  0.00    -0.149 OA
BRANCH  26  29
ATOM     29  C   UNL     1       2.870   4.413   1.865  0.00  0.00    +0.110 A 
ATOM     30  C   UNL     1       2.454   3.115   2.093  0.00  0.00    +0.030 A 
ATOM     31  C   UNL     1       3.356   2.072   1.998  0.00  0.00    +0.022 A 
ATOM     32  C   UNL     1       4.679   2.329   1.685  0.00  0.00    +0.041 A 
ATOM     33  C   UNL     1       5.097   3.629   1.463  0.00  0.00    +0.022 A 
ATOM     34  C   UNL     1       4.192   4.670   1.553  0.00  0.00    +0.030 A 
ATOM     35 CL   UNL     1       5.814   1.020   1.571  0.00  0.00    -0.084 Cl
ENDBRANCH  26  29
ENDBRANCH   3  26
TORSDOF 7
