REMARK  Name = ZINC04157124
REMARK  9 active torsions:
REMARK  status: ('A' for Active; 'I' for Inactive)
REMARK    1  A    between atoms: C_1  and  C_2
REMARK    2  A    between atoms: C_2  and  C_31
REMARK    3  A    between atoms: C_20  and  C_24
REMARK    4  A    between atoms: C_21  and  N_23
REMARK    5  A    between atoms: C_24  and  O_26
REMARK    6  A    between atoms: O_26  and  C_27
REMARK    7  A    between atoms: C_27  and  C_28
REMARK    8  A    between atoms: C_27  and  C_29
REMARK    9  A    between atoms: C_27  and  C_30
REMARK                            x       y       z     vdW  Elec       q    Type
REMARK                         _______ _______ _______ _____ _____    ______ ____
ROOT
ATOM      1  C   UNL     1       2.303   0.711   2.237  0.00  0.00    +0.012 C 
ATOM      2  C   UNL     1       2.584   0.321   0.784  0.00  0.00    -0.021 C 
ATOM      3  C   UNL     1       2.534   1.567  -0.102  0.00  0.00    +0.081 C 
ATOM      4  C   UNL     1       1.158   2.186  -0.031  0.00  0.00    +0.116 C 
ATOM      5  C   UNL     1       0.070   1.418   0.166  0.00  0.00    +0.057 C 
ATOM      6  C   UNL     1       0.177   0.022   0.320  0.00  0.00    +0.165 C 
ATOM      7  O   UNL     1      -0.830  -0.639   0.473  0.00  0.00    -0.292 OA
ATOM      8  C   UNL     1       1.516  -0.664   0.299  0.00  0.00    +0.086 C 
ATOM      9  C   UNL     1      -1.301   2.041   0.234  0.00  0.00    +0.141 C 
ATOM     10  C   UNL     1      -2.068   1.766  -1.021  0.00  0.00    -0.001 A 
ATOM     11  C   UNL     1      -1.829   2.118  -2.332  0.00  0.00    +0.022 A 
ATOM     12  C   UNL     1      -2.757   1.693  -3.278  0.00  0.00    +0.018 A 
ATOM     13  C   UNL     1      -3.866   0.954  -2.915  0.00  0.00    +0.017 A 
ATOM     14  C   UNL     1      -4.113   0.599  -1.599  0.00  0.00    +0.025 A 
ATOM     15  C   UNL     1      -3.189   1.018  -0.640  0.00  0.00    +0.038 A 
ATOM     16  N   UNL     1      -3.185   0.809   0.728  0.00  0.00    -0.284 N 
ATOM     17  C   UNL     1      -2.114   1.374   1.323  0.00  0.00    +0.237 C 
ATOM     18  O   UNL     1      -1.852   1.351   2.507  0.00  0.00    -0.274 OA
ATOM     19 BR   UNL     1      -2.495   2.138  -5.097  0.00  0.00    -0.050 Br
ATOM     20  C   UNL     1      -1.203   3.515   0.488  0.00  0.00    +0.117 C 
ATOM     21  C   UNL     1      -0.029   4.168   0.275  0.00  0.00    +0.195 C 
ATOM     22  O   UNL     1       1.056   3.521  -0.174  0.00  0.00    -0.446 OA
ATOM     23  C   UNL     1       3.966  -0.328   0.681  0.00  0.00    +0.012 C 
ATOM     24  H   UNL     1      -3.871   0.314   1.203  0.00  0.00    +0.155 HD
ENDROOT
BRANCH  21  25
ATOM     25  N   UNL     1       0.046   5.512   0.524  0.00  0.00    -0.329 N 
ATOM     26  H   UNL     1       0.898   5.971   0.457  0.00  0.00    +0.145 HD
ATOM     27  H   UNL     1      -0.753   6.005   0.767  0.00  0.00    +0.145 HD
ENDBRANCH  21  25
BRANCH  20  28
ATOM     28  C   UNL     1      -2.324   4.221   0.951  0.00  0.00    +0.342 C 
ATOM     29  O   UNL     1      -3.204   4.545   0.174  0.00  0.00    -0.245 OA
BRANCH  28  30
ATOM     30  O   UNL     1      -2.426   4.542   2.259  0.00  0.00    -0.455 OA
BRANCH  30  31
ATOM     31  C   UNL     1      -3.594   5.262   2.661  0.00  0.00    +0.106 C 
ATOM     32  C   UNL     1      -4.839   4.432   2.342  0.00  0.00    +0.055 C 
ATOM     33  C   UNL     1      -3.533   5.533   4.165  0.00  0.00    +0.055 C 
ATOM     34  C   UNL     1      -3.659   6.591   1.905  0.00  0.00    +0.055 C 
ENDBRANCH  30  31
ENDBRANCH  28  30
ENDBRANCH  20  28
TORSDOF 4
