REMARK  Name = ZINC03150254
REMARK  7 active torsions:
REMARK  status: ('A' for Active; 'I' for Inactive)
REMARK    1  A    between atoms: C_1  and  C_2
REMARK    2  A    between atoms: C_2  and  O_3
REMARK    3  A    between atoms: O_3  and  C_4
REMARK    4  A    between atoms: C_8  and  C_11
REMARK    5  A    between atoms: C_9  and  O_10
REMARK    6  A    between atoms: N_12  and  C_13
REMARK    7  A    between atoms: C_20  and  C_22
REMARK                            x       y       z     vdW  Elec       q    Type
REMARK                         _______ _______ _______ _____ _____    ______ ____
ROOT
ATOM      1  C   UNL     1      -2.475   2.788   7.199  0.00  0.00    +0.066 A 
ATOM      2  C   UNL     1      -2.652   1.871   8.243  0.00  0.00    +0.031 A 
ATOM      3  C   UNL     1      -3.236   2.266   9.425  0.00  0.00    +0.050 A 
ATOM      4  C   UNL     1      -3.653   3.579   9.590  0.00  0.00    +0.156 A 
ATOM      5  C   UNL     1      -3.481   4.509   8.550  0.00  0.00    +0.112 A 
ATOM      6  C   UNL     1      -2.884   4.109   7.354  0.00  0.00    +0.059 A 
ATOM      7  N   UNL     1      -3.977   5.692   8.998  0.00  0.00    -0.209 NA
ATOM      8  C   UNL     1      -4.426   5.525  10.216  0.00  0.00    +0.230 A 
ATOM      9  O   UNL     1      -4.243   4.249  10.606  0.00  0.00    -0.435 OA
ENDROOT
BRANCH   8  10
ATOM     10  C   UNL     1      -5.042   6.583  11.044  0.00  0.00    +0.057 A 
ATOM     11  C   UNL     1      -5.487   6.293  12.335  0.00  0.00    +0.034 A 
ATOM     12  C   UNL     1      -6.061   7.286  13.102  0.00  0.00    +0.042 A 
ATOM     13  C   UNL     1      -6.196   8.568  12.595  0.00  0.00    +0.021 A 
ATOM     14  C   UNL     1      -5.758   8.862  11.317  0.00  0.00    +0.022 A 
ATOM     15  C   UNL     1      -5.176   7.879  10.540  0.00  0.00    +0.053 A 
ATOM     16 CL   UNL     1      -4.620   8.252   8.938  0.00  0.00    -0.083 Cl
ATOM     17 CL   UNL     1      -6.616   6.928  14.708  0.00  0.00    -0.084 Cl
ENDBRANCH   8  10
BRANCH   1  19
ATOM     18  C   UNL     1      -0.818   1.648   6.053  0.00  0.00    +0.123 C 
ATOM     19  N   UNL     1      -1.892   2.386   6.027  0.00  0.00    -0.255 NA
BRANCH  18  24
ATOM     20  C   UNL     1      -0.148   1.182   2.381  0.00  0.00    +0.162 A 
ATOM     21  C   UNL     1       0.993   0.398   2.420  0.00  0.00    +0.049 A 
ATOM     22  C   UNL     1       1.543   0.022   3.634  0.00  0.00    +0.004 A 
ATOM     23  C   UNL     1       0.961   0.425   4.816  0.00  0.00    +0.013 A 
ATOM     24  C   UNL     1      -0.193   1.217   4.794  0.00  0.00    +0.038 A 
ATOM     25  C   UNL     1      -0.746   1.601   3.564  0.00  0.00    +0.167 A 
BRANCH  25  26
ATOM     26  O   UNL     1      -1.861   2.374   3.529  0.00  0.00    -0.503 OA
ATOM     27  H   UNL     1      -2.688   1.872   3.522  0.00  0.00    +0.292 HD
ENDBRANCH  25  26
BRANCH  20  28
ATOM     28  O   UNL     1      -0.682   1.547   1.184  0.00  0.00    -0.489 OA
BRANCH  28  30
ATOM     29  C   UNL     1      -0.753   1.593  -1.232  0.00  0.00    +0.048 C 
ATOM     30  C   UNL     1      -0.013   1.086   0.008  0.00  0.00    +0.226 C 
ENDBRANCH  28  30
ENDBRANCH  20  28
ENDBRANCH  18  24
ENDBRANCH   1  19
TORSDOF 6
