REMARK  Name = ZINC02063940
REMARK  8 active torsions:
REMARK  status: ('A' for Active; 'I' for Inactive)
REMARK    1  A    between atoms: C_1  and  C_2
REMARK    2  A    between atoms: C_2  and  O_3
REMARK    3  A    between atoms: O_3  and  C_4
REMARK    4  A    between atoms: C_4  and  C_6
REMARK    5  A    between atoms: C_7  and  C_37
REMARK    6  A    between atoms: N_21  and  C_24
REMARK    7  A    between atoms: C_24  and  C_25
REMARK    8  A    between atoms: C_28  and  C_30
REMARK                            x       y       z     vdW  Elec       q    Type
REMARK                         _______ _______ _______ _____ _____    ______ ____
ROOT
ATOM      1  C   UNL     1      -0.555   1.850   3.626  0.00  0.00    +0.085 C 
ATOM      2  C   UNL     1      -0.303   1.166   4.780  0.00  0.00    +0.053 C 
ATOM      3  N   UNL     1      -1.059   1.354   5.856  0.00  0.00    -0.228 NA
ATOM      4  C   UNL     1      -2.075   2.173   5.920  0.00  0.00    +0.178 A 
ATOM      5  N   UNL     1      -2.499   2.958   4.872  0.00  0.00    -0.275 N 
ATOM      6  C   UNL     1      -3.555   3.762   5.054  0.00  0.00    +0.269 A 
ATOM      7  O   UNL     1      -3.966   4.473   4.158  0.00  0.00    -0.266 OA
ATOM      8  C   UNL     1      -4.203   3.755   6.386  0.00  0.00    +0.093 A 
ATOM      9  C   UNL     1      -5.292   4.477   6.837  0.00  0.00    +0.065 C 
ATOM     10  C   UNL     1      -6.205   5.319   6.038  0.00  0.00    +0.010 A 
ATOM     11  C   UNL     1      -6.276   5.630   4.682  0.00  0.00    +0.010 A 
ATOM     12  C   UNL     1      -7.275   6.463   4.222  0.00  0.00    +0.001 A 
ATOM     13  C   UNL     1      -8.206   6.984   5.106  0.00  0.00    +0.002 A 
ATOM     14  C   UNL     1      -8.148   6.678   6.451  0.00  0.00    +0.024 A 
ATOM     15  C   UNL     1      -7.150   5.841   6.934  0.00  0.00    +0.045 A 
ATOM     16  N   UNL     1      -6.869   5.382   8.216  0.00  0.00    -0.263 N 
ATOM     17  C   UNL     1      -5.791   4.579   8.224  0.00  0.00    +0.253 C 
ATOM     18  O   UNL     1      -5.312   4.032   9.199  0.00  0.00    -0.270 OA
ATOM     19  S   UNL     1      -3.196   2.561   7.251  0.00  0.00    -0.045 S 
ATOM     20  C   UNL     1      -1.710   2.825   3.615  0.00  0.00    +0.162 C 
ATOM     21  C   UNL     1       0.843   0.189   4.834  0.00  0.00    +0.066 C 
ENDROOT
BRANCH  20  22
ATOM     22  C   UNL     1      -2.658   2.408   2.519  0.00  0.00    -0.020 A 
ATOM     23  C   UNL     1      -3.547   1.371   2.733  0.00  0.00    +0.007 A 
ATOM     24  C   UNL     1      -4.420   0.992   1.730  0.00  0.00    +0.020 A 
ATOM     25  C   UNL     1      -4.396   1.643   0.510  0.00  0.00    +0.041 A 
ATOM     26  C   UNL     1      -3.503   2.677   0.295  0.00  0.00    +0.020 A 
ATOM     27  C   UNL     1      -2.634   3.059   1.300  0.00  0.00    +0.007 A 
ATOM     28 CL   UNL     1      -5.488   1.162  -0.752  0.00  0.00    -0.084 Cl
ENDBRANCH  20  22
BRANCH   1  29
ATOM     29  C   UNL     1       0.241   1.658   2.481  0.00  0.00    +0.339 C 
ATOM     30  O   UNL     1       1.244   0.971   2.546  0.00  0.00    -0.245 OA
BRANCH  29  31
ATOM     31  O   UNL     1      -0.108   2.236   1.312  0.00  0.00    -0.462 OA
BRANCH  31  33
ATOM     32  C   UNL     1       0.194   2.728  -1.035  0.00  0.00    +0.048 C 
ATOM     33  C   UNL     1       0.746   1.998   0.191  0.00  0.00    +0.229 C 
ENDBRANCH  31  33
ENDBRANCH  29  31
ENDBRANCH   1  29
BRANCH  16  34
ATOM     34  C   UNL     1      -7.647   5.731   9.407  0.00  0.00    +0.140 C 
BRANCH  34  35
ATOM     35  C   UNL     1      -7.075   6.976  10.034  0.00  0.00    -0.015 C 
ATOM     36  C   UNL     1      -7.846   8.014  10.250  0.00  0.00    +0.005 C 
ENDBRANCH  34  35
ENDBRANCH  16  34
TORSDOF 6
