REMARK  Name = ZINC36892311
REMARK  11 active torsions:
REMARK  status: ('A' for Active; 'I' for Inactive)
REMARK    1  A    between atoms: C_1  and  C_2
REMARK    2  A    between atoms: C_7  and  C_9
REMARK    3  A    between atoms: C_7  and  C_10
REMARK    4  A    between atoms: N_13  and  C_17
REMARK    5  A    between atoms: C_17  and  C_18
REMARK    6  A    between atoms: N_20  and  C_21
REMARK    7  A    between atoms: C_21  and  C_23
REMARK    8  A    between atoms: C_21  and  C_27
REMARK    9  A    between atoms: C_23  and  C_24
REMARK   10  A    between atoms: C_24  and  S_25
REMARK   11  A    between atoms: S_25  and  C_26
REMARK                            x       y       z     vdW  Elec       q    Type
REMARK                         _______ _______ _______ _____ _____    ______ ____
ROOT
ATOM      1  C   UNL     1       0.970  -4.657  -4.537  0.00  0.00    +0.232 C 
ATOM      2  O   UNL     1       1.179  -5.175  -3.461  0.00  0.00    -0.274 OA
ATOM      3  N   UNL     1       1.197  -5.348  -5.673  0.00  0.00    -0.304 N 
ATOM      4  H   UNL     1       1.030  -4.933  -6.534  0.00  0.00    +0.149 HD
ENDROOT
BRANCH   1   5
ATOM      5  C   UNL     1       0.458  -3.241  -4.606  0.00  0.00    +0.213 C 
BRANCH   5  17
ATOM      6  C   UNL     1      -0.061   1.649   0.498  0.00  0.00    +0.007 C 
ATOM      7  C   UNL     1      -0.046   0.132   0.299  0.00  0.00    -0.011 C 
ATOM      8  C   UNL     1       0.612  -0.200  -1.042  0.00  0.00    +0.038 C 
ATOM      9  C   UNL     1       0.646  -1.713  -1.232  0.00  0.00    +0.113 C 
ATOM     10  C   UNL     1       1.417  -2.381  -0.099  0.00  0.00    +0.041 C 
ATOM     11  C   UNL     1       0.756  -2.041   1.240  0.00  0.00    -0.032 C 
ATOM     12  C   UNL     1       0.748  -0.523   1.431  0.00  0.00    +0.009 C 
ATOM     13  C   UNL     1      -0.682  -2.564   1.246  0.00  0.00    +0.011 C 
ATOM     14  C   UNL     1       1.542  -2.695   2.378  0.00  0.00    +0.011 C 
ATOM     15  C   UNL     1       1.261  -2.063  -2.567  0.00  0.00    +0.247 C 
ATOM     16  O   UNL     1       2.385  -1.813  -2.946  0.00  0.00    -0.273 OA
ATOM     17  N   UNL     1       0.296  -2.715  -3.249  0.00  0.00    -0.215 N 
ATOM     18  C   UNL     1      -0.829  -2.819  -2.531  0.00  0.00    +0.310 C 
ATOM     19  O   UNL     1      -1.838  -3.366  -2.931  0.00  0.00    -0.252 OA
ATOM     20  N   UNL     1      -0.717  -2.252  -1.315  0.00  0.00    -0.285 N 
ATOM     21  H   UNL     1      -1.402  -2.208  -0.629  0.00  0.00    +0.151 HD
ENDBRANCH   5  17
ENDBRANCH   1   5
BRANCH   3  22
ATOM     22  C   UNL     1       1.694  -6.724  -5.606  0.00  0.00    +0.140 C 
BRANCH  22  23
ATOM     23  C   UNL     1       2.427  -7.055  -6.881  0.00  0.00    +0.129 A 
ATOM     24  N   UNL     1       2.683  -6.173  -7.884  0.00  0.00    -0.340 N 
ATOM     25  H   UNL     1       2.432  -5.237  -7.904  0.00  0.00    +0.167 HD
ATOM     26  C   UNL     1       3.368  -6.858  -8.868  0.00  0.00    +0.066 A 
ATOM     27  C   UNL     1       3.891  -6.507 -10.105  0.00  0.00    +0.028 A 
ATOM     28  C   UNL     1       4.539  -7.456 -10.867  0.00  0.00    +0.002 A 
ATOM     29  C   UNL     1       4.670  -8.758 -10.405  0.00  0.00    +0.002 A 
ATOM     30  C   UNL     1       4.162  -9.122  -9.190  0.00  0.00    +0.030 A 
ATOM     31  C   UNL     1       3.502  -8.177  -8.400  0.00  0.00    +0.089 A 
ATOM     32  N   UNL     1       2.910  -8.226  -7.180  0.00  0.00    -0.231 NA
ENDBRANCH  22  23
BRANCH  22  33
ATOM     33  C   UNL     1       0.516  -7.684  -5.430  0.00  0.00    +0.041 C 
BRANCH  33  34
ATOM     34  C   UNL     1      -0.152  -7.429  -4.077  0.00  0.00    +0.071 C 
BRANCH  34  35
ATOM     35  S   UNL     1      -1.548  -8.568  -3.869  0.00  0.00    -0.164 S 
ATOM     36  C   UNL     1      -2.222  -8.142  -2.239  0.00  0.00    +0.084 C 
ENDBRANCH  34  35
ENDBRANCH  33  34
ENDBRANCH  22  33
ENDBRANCH   3  22
TORSDOF 7
