REMARK  Name = ZINC17750738
REMARK  8 active torsions:
REMARK  status: ('A' for Active; 'I' for Inactive)
REMARK    1  A    between atoms: C_1  and  C_2
REMARK    2  A    between atoms: C_2  and  O_3
REMARK    3  A    between atoms: O_3  and  C_4
REMARK    4  A    between atoms: C_7  and  N_10
REMARK    5  A    between atoms: C_14  and  S_18
REMARK    6  A    between atoms: S_18  and  C_19
REMARK    7  A    between atoms: N_21  and  N_22
REMARK    8  A    between atoms: C_23  and  C_24
REMARK                            x       y       z     vdW  Elec       q    Type
REMARK                         _______ _______ _______ _____ _____    ______ ____
ROOT
ATOM      1  N   UNL     1       1.101  -5.940  -1.835  0.00  0.00    -0.209 N 
ATOM      2  C   UNL     1       0.688  -6.816  -0.911  0.00  0.00    +0.228 C 
ATOM      3  O   UNL     1       0.184  -6.528   0.153  0.00  0.00    -0.275 OA
ATOM      4  C   UNL     1       0.951  -8.222  -1.405  0.00  0.00    +0.120 C 
ATOM      5  C   UNL     1       1.593  -8.004  -2.790  0.00  0.00    +0.149 C 
ATOM      6  C   UNL     1       1.621  -6.498  -2.935  0.00  0.00    +0.240 C 
ATOM      7  O   UNL     1       2.049  -5.893  -3.895  0.00  0.00    -0.274 OA
ENDROOT
BRANCH   1  11
ATOM      8  C   UNL     1       0.775  -1.811  -1.336  0.00  0.00    +0.121 A 
ATOM      9  C   UNL     1       0.015  -2.454  -2.301  0.00  0.00    +0.047 A 
ATOM     10  C   UNL     1       0.122  -3.821  -2.467  0.00  0.00    +0.027 A 
ATOM     11  C   UNL     1       0.992  -4.551  -1.668  0.00  0.00    +0.044 A 
ATOM     12  C   UNL     1       1.752  -3.906  -0.702  0.00  0.00    +0.027 A 
ATOM     13  C   UNL     1       1.648  -2.539  -0.540  0.00  0.00    +0.047 A 
BRANCH   8  14
ATOM     14  O   UNL     1       0.669  -0.465  -1.173  0.00  0.00    -0.492 OA
BRANCH  14  16
ATOM     15  C   UNL     1      -0.230   1.716  -1.699  0.00  0.00    +0.048 C 
ATOM     16  C   UNL     1      -0.249   0.221  -2.027  0.00  0.00    +0.225 C 
ENDBRANCH  14  16
ENDBRANCH   8  14
ENDBRANCH   1  11
BRANCH   5  17
ATOM     17  S   UNL     1       3.272  -8.690  -2.830  0.00  0.00    -0.078 S 
BRANCH  17  18
ATOM     18  C   UNL     1       3.777  -8.483  -4.506  0.00  0.00    +0.146 C 
ATOM     19  N   UNL     1       2.967  -7.933  -5.368  0.00  0.00    -0.380 N 
ATOM     20  N   UNL     1       5.027  -8.902  -4.905  0.00  0.00    -0.217 N 
ATOM     21  H   UNL     1       3.245  -7.819  -6.290  0.00  0.00    +0.158 HD
ATOM     22  H   UNL     1       5.629  -9.311  -4.264  0.00  0.00    +0.176 HD
ATOM     23  H   UNL     1       2.087  -7.638  -5.087  0.00  0.00    +0.158 HD
BRANCH  20  24
ATOM     24  N   UNL     1       5.428  -8.737  -6.237  0.00  0.00    -0.188 NA
ATOM     25  C   UNL     1       6.606  -9.132  -6.613  0.00  0.00    +0.138 C 
BRANCH  25  26
ATOM     26  C   UNL     1       7.029  -8.959  -8.015  0.00  0.00    -0.005 A 
ATOM     27  C   UNL     1       6.166  -8.365  -8.940  0.00  0.00    +0.010 A 
ATOM     28  C   UNL     1       6.568  -8.206 -10.249  0.00  0.00    +0.016 A 
ATOM     29  C   UNL     1       7.823  -8.634 -10.649  0.00  0.00    +0.018 A 
ATOM     30  C   UNL     1       8.682  -9.223  -9.738  0.00  0.00    +0.016 A 
ATOM     31  C   UNL     1       8.296  -9.383  -8.423  0.00  0.00    +0.010 A 
ATOM     32 BR   UNL     1       8.364  -8.412 -12.447  0.00  0.00    -0.050 Br
ENDBRANCH  25  26
ENDBRANCH  20  24
ENDBRANCH  17  18
ENDBRANCH   5  17
TORSDOF 7
