REMARK  Name = ZINC40342001
REMARK  5 active torsions:
REMARK  status: ('A' for Active; 'I' for Inactive)
REMARK    1  A    between atoms: C_3  and  C_6
REMARK    2  A    between atoms: C_6  and  N_7
REMARK    3  A    between atoms: C_8  and  C_25
REMARK    4  A    between atoms: C_11  and  C_18
REMARK    5  A    between atoms: C_28  and  N_31
REMARK                            x       y       z     vdW  Elec       q    Type
REMARK                         _______ _______ _______ _____ _____    ______ ____
ROOT
ATOM      1  N   UNL     1       4.101   0.607   1.347  0.00  0.00    -0.278 N 
ATOM      2  C   UNL     1       4.417   1.786   2.163  0.00  0.00    +0.142 C 
ATOM      3  C   UNL     1       4.892   1.259   3.490  0.00  0.00    +0.035 A 
ATOM      4  C   UNL     1       5.365   1.550   4.773  0.00  0.00    +0.099 A 
ATOM      5  N   UNL     1       5.571   0.402   5.388  0.00  0.00    -0.173 NA
ATOM      6  N   UNL     1       5.274  -0.585   4.620  0.00  0.00    -0.272 N 
ATOM      7  H   UNL     1       5.348  -1.521   4.863  0.00  0.00    +0.189 HD
ATOM      8  C   UNL     1       4.841  -0.120   3.411  0.00  0.00    +0.126 A 
ATOM      9  C   UNL     1       4.345  -0.493   2.082  0.00  0.00    +0.266 C 
ATOM     10  O   UNL     1       4.180  -1.636   1.698  0.00  0.00    -0.268 OA
ENDROOT
BRANCH   4  11
ATOM     11  C   UNL     1       5.594   2.904   5.339  0.00  0.00    +0.003 A 
ATOM     12  C   UNL     1       6.043   3.937   4.520  0.00  0.00    +0.011 A 
ATOM     13  C   UNL     1       6.254   5.193   5.050  0.00  0.00    +0.020 A 
ATOM     14  C   UNL     1       6.020   5.428   6.395  0.00  0.00    +0.041 A 
ATOM     15  C   UNL     1       5.574   4.404   7.213  0.00  0.00    +0.020 A 
ATOM     16  C   UNL     1       5.355   3.146   6.690  0.00  0.00    +0.011 A 
ATOM     17 CL   UNL     1       6.288   7.010   7.056  0.00  0.00    -0.084 Cl
ENDBRANCH   4  11
BRANCH   2  18
ATOM     18  C   UNL     1       5.505   2.595   1.505  0.00  0.00    -0.022 A 
ATOM     19  C   UNL     1       6.550   1.956   0.863  0.00  0.00    +0.008 A 
ATOM     20  C   UNL     1       7.548   2.698   0.260  0.00  0.00    +0.033 A 
ATOM     21  C   UNL     1       7.501   4.079   0.298  0.00  0.00    +0.126 A 
ATOM     22  C   UNL     1       6.457   4.718   0.939  0.00  0.00    +0.033 A 
ATOM     23  C   UNL     1       5.456   3.976   1.539  0.00  0.00    +0.008 A 
BRANCH  21  24
ATOM     24  N   UNL     1       8.570   4.874  -0.347  0.00  0.00    +0.056 N 
ATOM     25  O   UNL     1       9.484   4.315  -0.908  0.00  0.00    -0.126 OA
ATOM     26  O   UNL     1       8.530   6.081  -0.314  0.00  0.00    -0.126 OA
ENDBRANCH  21  24
ENDBRANCH   2  18
BRANCH   1  27
ATOM     27  C   UNL     1       3.599   0.625  -0.029  0.00  0.00    +0.183 C 
BRANCH  27  30
ATOM     28  C   UNL     1      -0.016   1.341   0.009  0.00  0.00    +0.041 A 
ATOM     29  C   UNL     1       1.331   1.769  -0.001  0.00  0.00    +0.046 A 
ATOM     30  C   UNL     1       2.092   0.660  -0.014  0.00  0.00    +0.122 A 
ATOM     31  O   UNL     1       1.282  -0.411  -0.012  0.00  0.00    -0.466 OA
ATOM     32  C   UNL     1       0.002  -0.004   0.002  0.00  0.00    +0.195 A 
ENDBRANCH  27  30
ENDBRANCH   1  27
TORSDOF 5
