REMARK  Name = ZINC06528242
REMARK  7 active torsions:
REMARK  status: ('A' for Active; 'I' for Inactive)
REMARK    1  A    between atoms: C_3  and  C_6
REMARK    2  A    between atoms: C_6  and  N_35
REMARK    3  A    between atoms: C_7  and  C_8
REMARK    4  A    between atoms: C_7  and  N_35
REMARK    5  A    between atoms: N_10  and  C_11
REMARK    6  A    between atoms: C_14  and  S_17
REMARK    7  A    between atoms: S_17  and  N_20
REMARK                            x       y       z     vdW  Elec       q    Type
REMARK                         _______ _______ _______ _____ _____    ______ ____
ROOT
ATOM      1  C   UNL     1      -3.122   4.230  -2.817  0.00  0.00    +0.200 C 
ATOM      2  O   UNL     1      -2.483   3.738  -3.724  0.00  0.00    -0.278 OA
ATOM      3  N   UNL     1      -4.159   5.046  -3.089  0.00  0.00    -0.287 N 
ATOM      4  H   UNL     1      -4.711   5.386  -2.368  0.00  0.00    +0.155 HD
ENDROOT
BRANCH   3   5
ATOM      5  C   UNL     1      -4.440   5.403  -4.413  0.00  0.00    +0.033 A 
ATOM      6  C   UNL     1      -4.930   6.670  -4.703  0.00  0.00    +0.025 A 
ATOM      7  C   UNL     1      -5.200   7.021  -6.011  0.00  0.00    +0.030 A 
ATOM      8  C   UNL     1      -4.995   6.109  -7.030  0.00  0.00    +0.105 A 
ATOM      9  C   UNL     1      -4.513   4.845  -6.744  0.00  0.00    +0.030 A 
ATOM     10  C   UNL     1      -4.235   4.489  -5.438  0.00  0.00    +0.025 A 
BRANCH   8  11
ATOM     11  S   UNL     1      -5.348   6.559  -8.696  0.00  0.00    +0.056 S 
ATOM     12  O   UNL     1      -5.270   7.977  -8.759  0.00  0.00    -0.153 OA
ATOM     13  O   UNL     1      -4.557   5.715  -9.521  0.00  0.00    -0.153 OA
BRANCH  11  14
ATOM     14  N   UNL     1      -6.928   6.159  -8.987  0.00  0.00    -0.204 NA
ATOM     15  H   UNL     1      -7.449   6.672  -9.625  0.00  0.00    +0.144 HD
ATOM     16  H   UNL     1      -7.333   5.411  -8.520  0.00  0.00    +0.144 HD
ENDBRANCH  11  14
ENDBRANCH   8  11
ENDBRANCH   3   5
BRANCH   1  17
ATOM     17  C   UNL     1      -2.755   3.928  -1.387  0.00  0.00    +0.016 C 
BRANCH  17  18
ATOM     18  N   UNL     1      -1.594   3.018  -1.367  0.00  0.00    +0.388 N 
ATOM     19  H   UNL     1      -1.838   2.148  -1.855  0.00  0.00    -0.085 HD
ATOM     20  H   UNL     1      -0.803   3.468  -1.842  0.00  0.00    -0.085 HD
BRANCH  18  21
ATOM     21  C   UNL     1      -1.213   2.705   0.023  0.00  0.00    -0.039 C 
BRANCH  21  24
ATOM     22  C   UNL     1       2.217   1.049  -0.007  0.00  0.00    +0.008 A 
ATOM     23  C   UNL     1       1.295   2.078   0.009  0.00  0.00    +0.009 A 
ATOM     24  C   UNL     1      -0.027   1.776   0.012  0.00  0.00    -0.027 A 
ATOM     25  S   UNL     1       0.003  -0.009  -0.007  0.00  0.00    -0.104 S 
ATOM     26  C   UNL     1       1.774  -0.232  -0.018  0.00  0.00    +0.045 A 
ENDBRANCH  21  24
ENDBRANCH  18  21
ENDBRANCH  17  18
ENDBRANCH   1  17
TORSDOF 7
