REMARK  Name = ZINC16101961
REMARK  7 active torsions:
REMARK  status: ('A' for Active; 'I' for Inactive)
REMARK    1  A    between atoms: C_1  and  C_2
REMARK    2  A    between atoms: C_2  and  C_13
REMARK    3  A    between atoms: N_3  and  N_4
REMARK    4  A    between atoms: C_5  and  C_7
REMARK    5  A    between atoms: C_18  and  C_37
REMARK    6  A    between atoms: C_29  and  C_36
REMARK    7  A    between atoms: C_32  and  O_35
REMARK                            x       y       z     vdW  Elec       q    Type
REMARK                         _______ _______ _______ _____ _____    ______ ____
ROOT
ATOM      1  C   UNL     1       1.554   4.889   4.673  0.00  0.00    -0.023 C 
ATOM      2  C   UNL     1       1.812   5.264   3.425  0.00  0.00    -0.021 C 
ATOM      3  C   UNL     1       2.202   4.077   2.570  0.00  0.00    +0.032 C 
ATOM      4  C   UNL     1       2.485   2.954   3.574  0.00  0.00    +0.006 C 
ATOM      5  C   UNL     1       1.750   3.383   4.845  0.00  0.00    -0.002 C 
ATOM      6  C   UNL     1       0.352   2.788   4.969  0.00  0.00    +0.012 C 
ATOM      7  C   UNL     1       0.290   1.308   4.664  0.00  0.00    +0.005 C 
ATOM      8  C   UNL     1       0.871   0.955   3.308  0.00  0.00    -0.001 C 
ATOM      9  C   UNL     1       2.227   1.563   3.088  0.00  0.00    -0.003 C 
ATOM     10  C   UNL     1       2.796   1.332   1.693  0.00  0.00    +0.004 C 
ATOM     11  C   UNL     1       1.750   1.553   0.602  0.00  0.00    +0.004 C 
ATOM     12  C   UNL     1       0.538   0.657   0.865  0.00  0.00    -0.002 C 
ATOM     13  C   UNL     1      -0.133   1.088   2.174  0.00  0.00    -0.026 C 
ATOM     14  C   UNL     1      -1.312   0.139   2.450  0.00  0.00    +0.010 C 
ATOM     15  C   UNL     1      -2.311   0.185   1.293  0.00  0.00    +0.032 C 
ATOM     16  C   UNL     1      -1.640  -0.187  -0.024  0.00  0.00    +0.115 C 
ATOM     17  C   UNL     1      -0.450   0.728  -0.294  0.00  0.00    +0.035 C 
ATOM     18  C   UNL     1      -0.683   2.502   2.052  0.00  0.00    +0.012 C 
ATOM     19  C   UNL     1       2.587   3.088   6.106  0.00  0.00    +0.016 C 
ENDROOT
BRANCH   1  21
ATOM     20  C   UNL     1      -0.322   6.147   5.921  0.00  0.00    +0.067 C 
ATOM     21  C   UNL     1       1.136   5.806   5.746  0.00  0.00    +0.060 C 
ATOM     22  N   UNL     1       2.024   6.321   6.544  0.00  0.00    -0.185 NA
BRANCH  22  23
ATOM     23  N   UNL     1       3.388   6.111   6.302  0.00  0.00    -0.203 N 
ATOM     24  C   UNL     1       4.305   6.553   7.186  0.00  0.00    +0.263 C 
ATOM     25  O   UNL     1       3.956   7.215   8.144  0.00  0.00    -0.268 OA
ATOM     26  H   UNL     1       3.673   5.648   5.499  0.00  0.00    +0.178 HD
BRANCH  24  27
ATOM     27  C   UNL     1       5.737   6.232   6.990  0.00  0.00    +0.041 A 
ATOM     28  C   UNL     1       6.172   5.558   5.844  0.00  0.00    +0.033 A 
ATOM     29  C   UNL     1       7.518   5.283   5.700  0.00  0.00    +0.111 A 
ATOM     30  N   UNL     1       8.385   5.638   6.628  0.00  0.00    -0.263 NA
ATOM     31  C   UNL     1       8.016   6.269   7.725  0.00  0.00    +0.111 A 
ATOM     32  C   UNL     1       6.691   6.589   7.948  0.00  0.00    +0.033 A 
ENDBRANCH  24  27
ENDBRANCH  22  23
ENDBRANCH   1  21
BRANCH  16  33
ATOM     33  O   UNL     1      -1.184  -1.539   0.037  0.00  0.00    -0.392 OA
ATOM     34  H   UNL     1      -1.887  -2.184   0.190  0.00  0.00    +0.210 HD
ENDBRANCH  16  33
TORSDOF 4
