REMARK  Name = ZINC20324076
REMARK  4 active torsions:
REMARK  status: ('A' for Active; 'I' for Inactive)
REMARK    1  A    between atoms: C_1  and  C_2
REMARK    2  A    between atoms: C_6  and  C_11
REMARK    3  A    between atoms: N_17  and  C_18
REMARK    4  A    between atoms: C_21  and  O_24
REMARK                            x       y       z     vdW  Elec       q    Type
REMARK                         _______ _______ _______ _____ _____    ______ ____
ROOT
ATOM      1  C   UNL     1      -1.675   1.214  -1.001  0.00  0.00    +0.088 C 
ATOM      2  C   UNL     1      -1.228  -0.200  -0.730  0.00  0.00    +0.129 A 
ATOM      3  N   UNL     1      -0.654  -0.892  -1.698  0.00  0.00    -0.217 NA
ATOM      4  C   UNL     1      -0.235  -2.135  -1.520  0.00  0.00    +0.135 A 
ATOM      5  C   UNL     1      -0.415  -2.753  -0.254  0.00  0.00    +0.055 A 
ATOM      6  C   UNL     1      -0.050  -4.096   0.187  0.00  0.00    +0.002 A 
ATOM      7  C   UNL     1      -0.329  -4.461   1.461  0.00  0.00    +0.056 A 
ATOM      8  S   UNL     1      -1.105  -3.011   2.149  0.00  0.00    -0.076 S 
ATOM      9  C   UNL     1      -1.039  -1.955   0.727  0.00  0.00    +0.114 A 
ATOM     10  N   UNL     1      -1.422  -0.720   0.466  0.00  0.00    -0.225 NA
ATOM     11  N   UNL     1       0.367  -2.826  -2.557  0.00  0.00    -0.299 N 
ATOM     12  H   UNL     1       0.655  -3.879  -2.422  0.00  0.00    +0.154 HD
ENDROOT
BRANCH   6  13
ATOM     13  C   UNL     1       0.614  -5.041  -0.741  0.00  0.00    -0.017 A 
ATOM     14  C   UNL     1      -0.037  -5.453  -1.904  0.00  0.00    +0.008 A 
ATOM     15  C   UNL     1       0.589  -6.329  -2.768  0.00  0.00    +0.001 A 
ATOM     16  C   UNL     1       1.854  -6.806  -2.476  0.00  0.00    +0.000 A 
ATOM     17  C   UNL     1       2.502  -6.406  -1.322  0.00  0.00    +0.001 A 
ATOM     18  C   UNL     1       1.889  -5.526  -0.453  0.00  0.00    +0.008 A 
ENDBRANCH   6  13
BRANCH  11  19
ATOM     19  C   UNL     1       0.610  -2.184  -3.778  0.00  0.00    +0.033 A 
ATOM     20  C   UNL     1       0.942  -0.836  -3.800  0.00  0.00    +0.027 A 
ATOM     21  C   UNL     1       1.185  -0.205  -5.004  0.00  0.00    +0.047 A 
ATOM     22  C   UNL     1       1.088  -0.915  -6.192  0.00  0.00    +0.117 A 
ATOM     23  C   UNL     1       0.752  -2.261  -6.171  0.00  0.00    +0.047 A 
ATOM     24  C   UNL     1       0.513  -2.895  -4.967  0.00  0.00    +0.027 A 
BRANCH  22  25
ATOM     25  O   UNL     1       1.323  -0.292  -7.377  0.00  0.00    -0.507 OA
ATOM     26  H   UNL     1       1.247  -0.855  -8.319  0.00  0.00    +0.292 HD
ENDBRANCH  22  25
ENDBRANCH  11  19
TORSDOF 3
