REMARK  Name = ZINC10894631
REMARK  11 active torsions:
REMARK  status: ('A' for Active; 'I' for Inactive)
REMARK    1  A    between atoms: C_1  and  C_2
REMARK    2  A    between atoms: C_3  and  C_14
REMARK    3  A    between atoms: C_4  and  C_13
REMARK    4  A    between atoms: C_8  and  C_12
REMARK    5  A    between atoms: N_10  and  C_11
REMARK    6  A    between atoms: C_14  and  C_15
REMARK    7  A    between atoms: C_15  and  C_16
REMARK    8  A    between atoms: C_21  and  C_24
REMARK    9  A    between atoms: C_27  and  N_30
REMARK   10  A    between atoms: N_30  and  S_31
REMARK   11  A    between atoms: S_31  and  C_34
REMARK                            x       y       z     vdW  Elec       q    Type
REMARK                         _______ _______ _______ _____ _____    ______ ____
ROOT
ATOM      1  C   UNL     1       3.660   3.302  11.038  0.00  0.00    +0.219 C 
ATOM      2  O   UNL     1       4.325   2.294  11.146  0.00  0.00    -0.275 OA
ATOM      3  N   UNL     1       2.926   3.509   9.927  0.00  0.00    -0.265 N 
ATOM      4  C   UNL     1       2.932   2.567   8.905  0.00  0.00    +0.165 A 
ATOM      5  N   UNL     1       2.290   2.582   7.751  0.00  0.00    -0.225 NA
ATOM      6  C   UNL     1       2.412   1.588   6.884  0.00  0.00    +0.080 A 
ATOM      7  C   UNL     1       3.212   0.523   7.191  0.00  0.00    +0.076 A 
ATOM      8  S   UNL     1       3.810   1.013   8.804  0.00  0.00    -0.060 S 
ATOM      9  H   UNL     1       2.394   4.315   9.840  0.00  0.00    +0.157 HD
ENDROOT
BRANCH   6  10
ATOM     10  C   UNL     1       1.680   1.626   5.594  0.00  0.00    +0.001 A 
ATOM     11  C   UNL     1       0.861   2.712   5.289  0.00  0.00    +0.012 A 
ATOM     12  C   UNL     1       0.181   2.746   4.089  0.00  0.00    +0.025 A 
ATOM     13  C   UNL     1       0.313   1.698   3.185  0.00  0.00    +0.048 A 
ATOM     14  C   UNL     1       1.126   0.613   3.490  0.00  0.00    +0.025 A 
ATOM     15  C   UNL     1       1.811   0.577   4.686  0.00  0.00    +0.012 A 
BRANCH  13  16
ATOM     16  N   UNL     1      -0.376   1.735   1.970  0.00  0.00    -0.221 N 
ATOM     17  H   UNL     1      -1.331   1.567   1.950  0.00  0.00    +0.173 HD
BRANCH  16  18
ATOM     18  S   UNL     1       0.438   2.063   0.566  0.00  0.00    +0.040 S 
ATOM     19  O   UNL     1      -0.558   2.028  -0.447  0.00  0.00    -0.155 OA
ATOM     20  O   UNL     1       1.520   1.142   0.550  0.00  0.00    -0.155 OA
ATOM     21  C   UNL     1       1.061   3.754   0.773  0.00  0.00    +0.218 C 
ENDBRANCH  16  18
ENDBRANCH  13  16
ENDBRANCH   6  10
BRANCH   1  22
ATOM     22  C   UNL     1       3.653   4.323  12.146  0.00  0.00    +0.101 C 
BRANCH  22  23
ATOM     23  C   UNL     1       4.562   3.849  13.282  0.00  0.00    +0.046 C 
BRANCH  23  26
ATOM     24  C   UNL     1       2.614   3.676  15.427  0.00  0.00    +0.045 C 
ATOM     25  C   UNL     1       3.633   4.785  15.401  0.00  0.00    -0.033 A 
ATOM     26  C   UNL     1       4.555   4.870  14.390  0.00  0.00    -0.022 A 
ATOM     27  C   UNL     1       5.486   5.899  14.396  0.00  0.00    +0.044 A 
ATOM     28  N   UNL     1       5.503   6.809  15.346  0.00  0.00    -0.232 NA
ATOM     29  C   UNL     1       4.635   6.778  16.349  0.00  0.00    +0.159 A 
ATOM     30  C   UNL     1       3.666   5.756  16.408  0.00  0.00    +0.045 A 
ATOM     31  C   UNL     1       2.879   6.001  17.612  0.00  0.00    +0.069 A 
ATOM     32  N   UNL     1       3.358   7.067  18.187  0.00  0.00    -0.174 NA
ATOM     33  N   UNL     1       4.432   7.571  17.446  0.00  0.00    -0.249 N 
ATOM     34  C   UNL     1       5.215   8.760  17.789  0.00  0.00    +0.174 C 
ATOM     35  C   UNL     1       1.722   5.170  18.102  0.00  0.00    +0.068 C 
ATOM     36  C   UNL     1       6.500   5.980  13.283  0.00  0.00    +0.066 C 
ENDBRANCH  23  26
ENDBRANCH  22  23
ENDBRANCH   1  22
TORSDOF 6
