REMARK  Name = ZINC42434714
REMARK  4 active torsions:
REMARK  status: ('A' for Active; 'I' for Inactive)
REMARK    1  A    between atoms: C_3  and  N_11
REMARK    2  A    between atoms: C_4  and  N_8
REMARK    3  A    between atoms: C_15  and  C_17
REMARK    4  A    between atoms: C_17  and  O_18
REMARK                            x       y       z     vdW  Elec       q    Type
REMARK                         _______ _______ _______ _____ _____    ______ ____
ROOT
ATOM      1  C   UNL     1      -0.017   1.379   0.010  0.00  0.00    +0.022 A 
ATOM      2  C   UNL     1       1.169   2.087   0.002  0.00  0.00    +0.027 A 
ATOM      3  C   UNL     1       2.381   1.410  -0.013  0.00  0.00    +0.061 A 
ATOM      4  C   UNL     1       2.397   0.021  -0.021  0.00  0.00    +0.148 A 
ATOM      5  C   UNL     1       1.208  -0.682  -0.013  0.00  0.00    +0.054 A 
ATOM      6  C   UNL     1       0.002  -0.004   0.002  0.00  0.00    +0.043 A 
ATOM      7 CL   UNL     1      -1.490  -0.891   0.012  0.00  0.00    -0.083 Cl
ENDROOT
BRANCH   3   8
ATOM      8  N   UNL     1       3.583   2.123  -0.021  0.00  0.00    -0.323 N 
ATOM      9  C   UNL     1       4.306   2.574  -1.224  0.00  0.00    +0.105 C 
ATOM     10  C   UNL     1       5.778   2.729  -0.766  0.00  0.00    +0.021 C 
ATOM     11  C   UNL     1       5.600   3.280   0.673  0.00  0.00    +0.026 C 
ATOM     12  C   UNL     1       4.331   2.555   1.168  0.00  0.00    +0.099 C 
BRANCH  12  13
ATOM     13  C   UNL     1       3.475   3.510   2.003  0.00  0.00    +0.178 C 
BRANCH  13  14
ATOM     14  O   UNL     1       3.233   4.706   1.260  0.00  0.00    -0.393 OA
ATOM     15  H   UNL     1       2.695   5.359   1.729  0.00  0.00    +0.209 HD
ENDBRANCH  13  14
ENDBRANCH  12  13
ENDBRANCH   3   8
BRANCH   4  16
ATOM     16  N   UNL     1       3.687  -0.706  -0.037  0.00  0.00    +0.058 N 
ATOM     17  O   UNL     1       3.700  -1.914  -0.044  0.00  0.00    -0.126 OA
ATOM     18  O   UNL     1       4.727  -0.090  -0.044  0.00  0.00    -0.126 OA
ENDBRANCH   4  16
TORSDOF 4
