REMARK  Name = ZINC59793044
REMARK  7 active torsions:
REMARK  status: ('A' for Active; 'I' for Inactive)
REMARK    1  A    between atoms: C_3  and  N_26
REMARK    2  A    between atoms: C_6  and  C_7
REMARK    3  A    between atoms: C_10  and  S_13
REMARK    4  A    between atoms: S_13  and  C_14
REMARK    5  A    between atoms: C_14  and  C_15
REMARK    6  A    between atoms: C_15  and  C_16
REMARK    7  A    between atoms: N_18  and  C_19
REMARK                            x       y       z     vdW  Elec       q    Type
REMARK                         _______ _______ _______ _____ _____    ______ ____
ROOT
ATOM      1  C   UNL     1      -1.272  -0.766   0.007  0.00  0.00    +0.182 A 
ATOM      2  N   UNL     1      -1.381  -2.103   0.002  0.00  0.00    -0.201 NA
ATOM      3  H   UNL     1      -4.355  -1.247   0.059  0.00  0.00    +0.191 HD
ATOM      4  C   UNL     1      -2.651  -2.443   0.023  0.00  0.00    +0.185 A 
ATOM      5  N   UNL     1      -3.388  -1.310   0.042  0.00  0.00    -0.253 N 
ATOM      6  N   UNL     1      -2.476  -0.242   0.036  0.00  0.00    -0.152 NA
ENDROOT
BRANCH   1  12
ATOM      7  C   UNL     1      -0.018   1.389  -0.005  0.00  0.00    +0.014 A 
ATOM      8  C   UNL     1       1.169   2.093  -0.022  0.00  0.00    +0.033 A 
ATOM      9  C   UNL     1       2.376   1.418  -0.046  0.00  0.00    +0.126 A 
ATOM     10  C   UNL     1       2.401   0.035  -0.053  0.00  0.00    +0.033 A 
ATOM     11  C   UNL     1       1.220  -0.679  -0.036  0.00  0.00    +0.014 A 
ATOM     12  C   UNL     1       0.001  -0.004  -0.012  0.00  0.00    +0.021 A 
BRANCH   9  13
ATOM     13  N   UNL     1       3.646   2.179  -0.065  0.00  0.00    +0.056 N 
ATOM     14  O   UNL     1       3.627   3.387  -0.059  0.00  0.00    -0.126 OA
ATOM     15  O   UNL     1       4.702   1.591  -0.086  0.00  0.00    -0.126 OA
ENDBRANCH   9  13
ENDBRANCH   1  12
BRANCH   4  16
ATOM     16  S   UNL     1      -3.282  -4.088   0.026  0.00  0.00    -0.086 S 
BRANCH  16  17
ATOM     17  C   UNL     1      -1.796  -5.128  -0.005  0.00  0.00    +0.086 C 
BRANCH  17  18
ATOM     18  C   UNL     1      -2.205  -6.602  -0.005  0.00  0.00    +0.107 C 
BRANCH  18  19
ATOM     19  C   UNL     1      -0.971  -7.466  -0.031  0.00  0.00    +0.218 C 
ATOM     20  O   UNL     1       0.128  -6.953  -0.048  0.00  0.00    -0.275 OA
ATOM     21  N   UNL     1      -1.088  -8.809  -0.035  0.00  0.00    -0.285 N 
ATOM     22  H   UNL     1      -1.963  -9.220   0.045  0.00  0.00    +0.155 HD
BRANCH  21  23
ATOM     23  C   UNL     1       0.053  -9.611  -0.157  0.00  0.00    +0.033 A 
ATOM     24  C   UNL     1      -0.008 -10.804  -0.864  0.00  0.00    +0.024 A 
ATOM     25  C   UNL     1       1.120 -11.593  -0.983  0.00  0.00    +0.016 A 
ATOM     26  C   UNL     1       2.308 -11.195  -0.398  0.00  0.00    +0.013 A 
ATOM     27  C   UNL     1       2.372 -10.007   0.307  0.00  0.00    +0.016 A 
ATOM     28  C   UNL     1       1.249  -9.211   0.425  0.00  0.00    +0.024 A 
ATOM     29  I   UNL     1       4.016 -12.395  -0.579  0.00  0.00    -0.044 I 
ENDBRANCH  21  23
ENDBRANCH  18  19
ENDBRANCH  17  18
ENDBRANCH  16  17
ENDBRANCH   4  16
TORSDOF 7
