REMARK  Name = ZINC02369029
REMARK  13 active torsions:
REMARK  status: ('A' for Active; 'I' for Inactive)
REMARK    1  A    between atoms: C_1  and  C_2
REMARK    2  A    between atoms: C_2  and  C_3
REMARK    3  A    between atoms: C_3  and  O_4
REMARK    4  A    between atoms: O_4  and  C_5
REMARK    5  A    between atoms: C_5  and  C_7
REMARK    6  A    between atoms: C_10  and  N_13
REMARK    7  A    between atoms: C_14  and  N_34
REMARK    8  A    between atoms: C_15  and  C_26
REMARK    9  A    between atoms: N_28  and  C_29
REMARK   10  A    between atoms: C_29  and  C_30
REMARK   11  A    between atoms: C_30  and  C_31
REMARK   12  A    between atoms: C_31  and  C_32
REMARK   13  A    between atoms: C_31  and  C_33
REMARK                            x       y       z     vdW  Elec       q    Type
REMARK                         _______ _______ _______ _____ _____    ______ ____
ROOT
ATOM      1  N   UNL     1      -4.278  -0.223   0.752  0.00  0.00    -0.280 N 
ATOM      2  C   UNL     1      -3.149   0.439   1.133  0.00  0.00    +0.117 A 
ATOM      3  C   UNL     1      -2.443   0.876   0.018  0.00  0.00    +0.104 A 
ATOM      4  C   UNL     1      -3.205   0.432  -1.160  0.00  0.00    +0.123 A 
ATOM      5  C   UNL     1      -4.375  -0.270  -0.626  0.00  0.00    +0.166 A 
ATOM      6  N   UNL     1      -5.255  -0.787  -1.456  0.00  0.00    -0.225 NA
ATOM      7  C   UNL     1      -5.075  -0.668  -2.778  0.00  0.00    +0.092 A 
ATOM      8  C   UNL     1      -6.011  -1.218  -3.673  0.00  0.00    +0.030 A 
ATOM      9  C   UNL     1      -5.819  -1.093  -5.014  0.00  0.00    +0.002 A 
ATOM     10  C   UNL     1      -4.706  -0.425  -5.520  0.00  0.00    +0.002 A 
ATOM     11  C   UNL     1      -3.779   0.119  -4.686  0.00  0.00    +0.030 A 
ATOM     12  C   UNL     1      -3.942   0.010  -3.293  0.00  0.00    +0.090 A 
ATOM     13  N   UNL     1      -3.037   0.543  -2.463  0.00  0.00    -0.241 NA
ENDROOT
BRANCH   1  17
ATOM     14  C   UNL     1      -7.048  -1.892   3.382  0.00  0.00    +0.059 A 
ATOM     15  C   UNL     1      -5.743  -2.392   3.328  0.00  0.00    +0.017 A 
ATOM     16  C   UNL     1      -4.831  -1.838   2.458  0.00  0.00    +0.027 A 
ATOM     17  C   UNL     1      -5.206  -0.783   1.633  0.00  0.00    +0.050 A 
ATOM     18  C   UNL     1      -6.502  -0.280   1.687  0.00  0.00    +0.027 A 
ATOM     19  C   UNL     1      -7.421  -0.832   2.551  0.00  0.00    +0.017 A 
BRANCH  14  20
ATOM     20  C   UNL     1      -8.028  -2.483   4.312  0.00  0.00    +0.339 C 
ATOM     21  O   UNL     1      -7.701  -3.404   5.034  0.00  0.00    -0.245 OA
BRANCH  20  22
ATOM     22  O   UNL     1      -9.285  -2.000   4.362  0.00  0.00    -0.461 OA
BRANCH  22  23
ATOM     23  C   UNL     1     -10.195  -2.629   5.302  0.00  0.00    +0.232 C 
BRANCH  23  25
ATOM     24  C   UNL     1     -12.524  -2.615   6.207  0.00  0.00    +0.007 C 
ATOM     25  C   UNL     1     -11.565  -1.952   5.217  0.00  0.00    +0.038 C 
ENDBRANCH  23  25
ENDBRANCH  22  23
ENDBRANCH  20  22
ENDBRANCH  14  20
ENDBRANCH   1  17
BRANCH   3  26
ATOM     26  C   UNL     1      -1.187   1.624   0.017  0.00  0.00    +0.250 C 
ATOM     27  O   UNL     1      -1.204   2.841   0.023  0.00  0.00    -0.270 OA
ATOM     28  N   UNL     1      -0.011   0.966   0.007  0.00  0.00    -0.311 N 
ATOM     29  H   UNL     1       0.002  -0.004   0.002  0.00  0.00    +0.149 HD
BRANCH  28  30
ATOM     30  C   UNL     1       1.248   1.716  -0.001  0.00  0.00    +0.105 C 
BRANCH  30  31
ATOM     31  C   UNL     1       2.424   0.737  -0.017  0.00  0.00    +0.022 C 
BRANCH  31  32
ATOM     32  C   UNL     1       3.738   1.520  -0.025  0.00  0.00    -0.016 C 
ATOM     33  C   UNL     1       3.877   2.298   1.285  0.00  0.00    +0.007 C 
ATOM     34  C   UNL     1       4.910   0.547  -0.168  0.00  0.00    +0.007 C 
ENDBRANCH  31  32
ENDBRANCH  30  31
ENDBRANCH  28  30
ENDBRANCH   3  26
BRANCH   2  35
ATOM     35  N   UNL     1      -2.766   0.648   2.433  0.00  0.00    -0.343 N 
ATOM     36  H   UNL     1      -1.948   1.133   2.625  0.00  0.00    +0.144 HD
ATOM     37  H   UNL     1      -3.312   0.312   3.160  0.00  0.00    +0.144 HD
ENDBRANCH   2  35
TORSDOF 10
