REMARK  Name = ZINC67387795
REMARK  4 active torsions:
REMARK  status: ('A' for Active; 'I' for Inactive)
REMARK    1  A    between atoms: C_6  and  C_7
REMARK    2  A    between atoms: C_7  and  C_10
REMARK    3  A    between atoms: C_10  and  N_11
REMARK    4  A    between atoms: N_14  and  C_15
REMARK                            x       y       z     vdW  Elec       q    Type
REMARK                         _______ _______ _______ _____ _____    ______ ____
ROOT
ATOM      1  N   UNL     1      -2.462   1.229   0.785  0.00  0.00    -0.299 N 
ATOM      2  C   UNL     1      -3.322   1.934   1.547  0.00  0.00    +0.300 C 
ATOM      3  O   UNL     1      -4.073   1.357   2.309  0.00  0.00    -0.253 OA
ATOM      4  N   UNL     1      -3.349   3.279   1.463  0.00  0.00    -0.293 N 
ATOM      5  H   UNL     1      -1.862   1.689   0.177  0.00  0.00    +0.150 HD
ATOM      6  H   UNL     1      -2.750   3.739   0.855  0.00  0.00    +0.151 HD
ENDROOT
BRANCH   4   7
ATOM      7  C   UNL     1      -4.284   4.045   2.290  0.00  0.00    +0.106 C 
ATOM      8  C   UNL     1      -3.728   5.451   2.507  0.00  0.00    +0.027 C 
ATOM      9  C   UNL     1      -4.817   6.299   3.175  0.00  0.00    +0.008 C 
ATOM     10  C   UNL     1      -5.935   6.527   2.161  0.00  0.00    +0.054 C 
ATOM     11  C   UNL     1      -6.373   5.221   1.548  0.00  0.00    +0.024 A 
ATOM     12  C   UNL     1      -5.623   4.103   1.602  0.00  0.00    -0.008 A 
ATOM     13  C   UNL     1      -6.091   2.921   0.995  0.00  0.00    +0.012 A 
ATOM     14  C   UNL     1      -7.296   2.912   0.363  0.00  0.00    +0.070 A 
ATOM     15  C   UNL     1      -8.056   4.094   0.331  0.00  0.00    +0.249 A 
ATOM     16  O   UNL     1      -9.141   4.109  -0.228  0.00  0.00    -0.268 OA
ATOM     17  N   UNL     1      -7.585   5.204   0.917  0.00  0.00    -0.326 N 
ATOM     18  H   UNL     1      -8.117   6.015   0.892  0.00  0.00    +0.169 HD
ENDBRANCH   4   7
BRANCH   1  19
ATOM     19  C   UNL     1      -2.432  -0.233   0.877  0.00  0.00    +0.117 C 
BRANCH  19  20
ATOM     20  C   UNL     1      -1.292  -0.775   0.011  0.00  0.00    +0.011 C 
ATOM     21  C   UNL     1      -1.543  -0.897  -1.493  0.00  0.00    +0.014 C 
ATOM     22  C   UNL     1      -1.481  -2.154  -0.623  0.00  0.00    +0.014 C 
BRANCH  20  28
ATOM     23  C   UNL     1       0.709  -1.099   1.479  0.00  0.00    +0.005 A 
ATOM     24  C   UNL     1       1.984  -0.754   1.888  0.00  0.00    +0.020 A 
ATOM     25  C   UNL     1       2.647   0.292   1.273  0.00  0.00    +0.041 A 
ATOM     26  C   UNL     1       2.035   0.993   0.250  0.00  0.00    +0.020 A 
ATOM     27  C   UNL     1       0.760   0.648  -0.158  0.00  0.00    +0.005 A 
ATOM     28  C   UNL     1       0.097  -0.398   0.457  0.00  0.00    -0.040 A 
ATOM     29 CL   UNL     1       4.248   0.726   1.786  0.00  0.00    -0.084 Cl
ENDBRANCH  20  28
ENDBRANCH  19  20
ENDBRANCH   1  19
TORSDOF 4
