REMARK  Name = ZINC14671930
REMARK  7 active torsions:
REMARK  status: ('A' for Active; 'I' for Inactive)
REMARK    1  A    between atoms: C_1  and  C_2
REMARK    2  A    between atoms: C_5  and  C_8
REMARK    3  A    between atoms: C_8  and  O_10
REMARK    4  A    between atoms: O_10  and  C_11
REMARK    5  A    between atoms: C_14  and  C_17
REMARK    6  A    between atoms: C_22  and  C_26
REMARK    7  A    between atoms: C_22  and  C_27
REMARK                            x       y       z     vdW  Elec       q    Type
REMARK                         _______ _______ _______ _____ _____    ______ ____
ROOT
ATOM      1  C   UNL     1       4.971   3.962   0.017  0.00  0.00    +0.116 C 
ATOM      2  C   UNL     1       5.783   3.446   1.184  0.00  0.00    +0.030 C 
ATOM      3  C   UNL     1       7.064   3.051   1.206  0.00  0.00    +0.017 C 
ATOM      4  C   UNL     1       7.665   2.442   2.464  0.00  0.00    +0.058 C 
ATOM      5  C   UNL     1       7.099   3.150   3.695  0.00  0.00    -0.023 C 
ATOM      6  C   UNL     1       5.582   2.938   3.691  0.00  0.00    +0.086 C 
ATOM      7  C   UNL     1       5.026   3.408   2.385  0.00  0.00    +0.163 C 
ATOM      8  O   UNL     1       3.867   3.775   2.349  0.00  0.00    -0.292 OA
ATOM      9  C   UNL     1       7.415   4.646   3.625  0.00  0.00    +0.011 C 
ATOM     10  C   UNL     1       7.706   2.549   4.964  0.00  0.00    +0.011 C 
ATOM     11  N   UNL     1       7.928   3.188   0.180  0.00  0.00    -0.317 N 
ATOM     12  C   UNL     1       8.181   4.323  -0.574  0.00  0.00    +0.045 A 
ATOM     13  C   UNL     1       9.327   5.086  -0.422  0.00  0.00    +0.024 A 
ATOM     14  C   UNL     1       9.521   6.178  -1.252  0.00  0.00    +0.002 A 
ATOM     15  C   UNL     1       8.585   6.498  -2.218  0.00  0.00    +0.001 A 
ATOM     16  C   UNL     1       7.431   5.744  -2.356  0.00  0.00    +0.016 A 
ATOM     17  C   UNL     1       7.230   4.663  -1.510  0.00  0.00    +0.030 A 
ATOM     18  S   UNL     1       5.751   3.714  -1.587  0.00  0.00    -0.110 S 
ATOM     19  H   UNL     1       8.433   2.396  -0.061  0.00  0.00    +0.152 HD
ENDROOT
BRANCH   1  23
ATOM     20  C   UNL     1       1.187   1.975   0.011  0.00  0.00    +0.132 A 
ATOM     21  C   UNL     1       2.358   1.239  -0.099  0.00  0.00    +0.047 A 
ATOM     22  C   UNL     1       3.580   1.884  -0.102  0.00  0.00    +0.008 A 
ATOM     23  C   UNL     1       3.636   3.261   0.015  0.00  0.00    -0.029 A 
ATOM     24  C   UNL     1       2.471   3.996   0.130  0.00  0.00    +0.008 A 
ATOM     25  C   UNL     1       1.247   3.356   0.128  0.00  0.00    +0.047 A 
BRANCH  20  26
ATOM     26  O   UNL     1      -0.016   1.343   0.009  0.00  0.00    -0.422 OA
BRANCH  26  27
ATOM     27  C   UNL     1      -0.734   1.397  -1.130  0.00  0.00    +0.344 C 
ATOM     28  O   UNL     1      -0.340   2.064  -2.065  0.00  0.00    -0.245 OA
BRANCH  27  33
ATOM     29  C   UNL     1      -5.664  -1.537  -1.565  0.00  0.00    +0.044 C 
ATOM     30  C   UNL     1      -4.372  -0.769  -1.451  0.00  0.00    -0.050 A 
ATOM     31  C   UNL     1      -3.926  -0.009  -2.518  0.00  0.00    +0.004 A 
ATOM     32  C   UNL     1      -2.745   0.696  -2.421  0.00  0.00    +0.015 A 
ATOM     33  C   UNL     1      -1.999   0.643  -1.242  0.00  0.00    +0.059 A 
ATOM     34  C   UNL     1      -2.452  -0.130  -0.171  0.00  0.00    +0.015 A 
ATOM     35  C   UNL     1      -3.638  -0.826  -0.279  0.00  0.00    +0.004 A 
ENDBRANCH  27  33
ENDBRANCH  26  27
ENDBRANCH  20  26
ENDBRANCH   1  23
TORSDOF 4
