REMARK  Name = ZINC11245010
REMARK  8 active torsions:
REMARK  status: ('A' for Active; 'I' for Inactive)
REMARK    1  A    between atoms: C_1  and  C_2
REMARK    2  A    between atoms: C_8  and  N_10
REMARK    3  A    between atoms: C_14  and  C_16
REMARK    4  A    between atoms: C_16  and  O_17
REMARK    5  A    between atoms: O_17  and  C_18
REMARK    6  A    between atoms: C_18  and  C_20
REMARK    7  A    between atoms: N_23  and  S_26
REMARK    8  A    between atoms: S_26  and  C_29
REMARK                            x       y       z     vdW  Elec       q    Type
REMARK                         _______ _______ _______ _____ _____    ______ ____
ROOT
ATOM      1  C   UNL     1       1.134   7.484   4.418  0.00  0.00    +0.311 C 
ATOM      2  O   UNL     1       2.028   8.264   4.186  0.00  0.00    -0.251 OA
ENDROOT
BRANCH   1   3
ATOM      3  C   UNL     1       1.148   6.115   3.789  0.00  0.00    +0.100 C 
ATOM      4  C   UNL     1       2.392   5.970   2.910  0.00  0.00    +0.032 C 
ATOM      5  C   UNL     1       2.421   4.564   2.301  0.00  0.00    +0.110 C 
ATOM      6  N   UNL     1       1.153   4.329   1.596  0.00  0.00    -0.177 NA
ATOM      7  C   UNL     1      -0.107   4.534   2.323  0.00  0.00    +0.110 C 
ATOM      8  C   UNL     1      -0.107   5.934   2.934  0.00  0.00    +0.032 C 
BRANCH   6   9
ATOM      9  S   UNL     1       1.145   3.848   0.012  0.00  0.00    +0.061 S 
ATOM     10  O   UNL     1       2.379   4.275  -0.549  0.00  0.00    -0.153 OA
ATOM     11  O   UNL     1      -0.111   4.239  -0.525  0.00  0.00    -0.153 OA
BRANCH   9  12
ATOM     12  C   UNL     1       1.171   2.086   0.002  0.00  0.00    +0.106 A 
ATOM     13  C   UNL     1      -0.017   1.378   0.010  0.00  0.00    +0.031 A 
ATOM     14  C   UNL     1       0.002  -0.004   0.002  0.00  0.00    +0.040 A 
ATOM     15  C   UNL     1       1.211  -0.679  -0.013  0.00  0.00    +0.124 A 
ATOM     16  C   UNL     1       2.399   0.031  -0.021  0.00  0.00    +0.040 A 
ATOM     17  C   UNL     1       2.378   1.413  -0.013  0.00  0.00    +0.031 A 
ATOM     18  F   UNL     1       1.230  -2.030  -0.020  0.00  0.00    -0.205 F 
ENDBRANCH   9  12
ENDBRANCH   6   9
ENDBRANCH   1   3
BRANCH   1  19
ATOM     19  O   UNL     1       0.130   7.838   5.235  0.00  0.00    -0.455 OA
BRANCH  19  20
ATOM     20  C   UNL     1       0.182   9.173   5.804  0.00  0.00    +0.328 C 
BRANCH  20  25
ATOM     21  N   UNL     1      -2.422  11.934   8.755  0.00  0.00    -0.296 N 
ATOM     22  C   UNL     1      -2.258  10.758   8.116  0.00  0.00    +0.306 C 
ATOM     23  O   UNL     1      -3.079   9.873   8.253  0.00  0.00    -0.252 OA
ATOM     24  N   UNL     1      -1.184  10.565   7.326  0.00  0.00    -0.237 N 
ATOM     25  C   UNL     1      -1.020   9.389   6.688  0.00  0.00    +0.258 C 
ATOM     26  O   UNL     1      -1.839   8.506   6.824  0.00  0.00    -0.272 OA
ATOM     27  H   UNL     1      -1.767  12.640   8.646  0.00  0.00    +0.151 HD
ATOM     28  H   UNL     1      -0.528  11.271   7.217  0.00  0.00    +0.159 HD
BRANCH  21  35
ATOM     29  C   UNL     1      -4.180  14.193   8.311  0.00  0.00    +0.009 C 
ATOM     30  C   UNL     1      -3.891  13.641   9.708  0.00  0.00    +0.006 C 
ATOM     31  C   UNL     1      -5.110  13.861  10.606  0.00  0.00    +0.005 C 
ATOM     32  C   UNL     1      -4.821  13.309  12.003  0.00  0.00    +0.000 C 
ATOM     33  C   UNL     1      -4.521  11.812  11.909  0.00  0.00    +0.002 C 
ATOM     34  C   UNL     1      -3.301  11.593  11.012  0.00  0.00    +0.022 C 
ATOM     35  C   UNL     1      -3.590  12.144   9.614  0.00  0.00    +0.077 C 
ENDBRANCH  21  35
ENDBRANCH  20  25
ENDBRANCH  19  20
ENDBRANCH   1  19
TORSDOF 7
