REMARK  Name = ZINC22353246
REMARK  8 active torsions:
REMARK  status: ('A' for Active; 'I' for Inactive)
REMARK    1  A    between atoms: C_1  and  C_2
REMARK    2  A    between atoms: C_2  and  C_4
REMARK    3  A    between atoms: C_2  and  N_8
REMARK    4  A    between atoms: C_4  and  C_5
REMARK    5  A    between atoms: C_4  and  C_6
REMARK    6  A    between atoms: C_4  and  C_7
REMARK    7  A    between atoms: C_9  and  C_11
REMARK    8  A    between atoms: C_14  and  C_16
REMARK                            x       y       z     vdW  Elec       q    Type
REMARK                         _______ _______ _______ _____ _____    ______ ____
ROOT
ATOM      1  C   UNL     1       1.088   3.174   0.008  0.00  0.00    +0.074 A 
ATOM      2  C   UNL     1       1.154   1.788   0.001  0.00  0.00    +0.021 A 
ATOM      3  C   UNL     1      -0.013   1.076   0.008  0.00  0.00    +0.017 A 
ATOM      4  C   UNL     1      -1.215   1.766   0.017  0.00  0.00    +0.020 A 
ATOM      5  S   UNL     1      -0.673   3.466   0.026  0.00  0.00    -0.084 S 
ENDROOT
BRANCH   4   6
ATOM      6  C   UNL     1      -2.591   1.230   0.021  0.00  0.00    -0.008 A 
ATOM      7  C   UNL     1      -2.806  -0.149   0.008  0.00  0.00    +0.013 A 
ATOM      8  C   UNL     1      -4.092  -0.647   0.017  0.00  0.00    +0.050 A 
ATOM      9  C   UNL     1      -5.176   0.219   0.026  0.00  0.00    +0.166 A 
ATOM     10  C   UNL     1      -4.968   1.598   0.033  0.00  0.00    +0.167 A 
ATOM     11  C   UNL     1      -3.682   2.103   0.030  0.00  0.00    +0.058 A 
ATOM     12  O   UNL     1      -6.183   2.221   0.042  0.00  0.00    -0.453 OA
ATOM     13  C   UNL     1      -7.128   1.216   0.453  0.00  0.00    +0.466 C 
ATOM     14  O   UNL     1      -6.520  -0.019   0.030  0.00  0.00    -0.453 OA
ENDBRANCH   4   6
BRANCH   1  16
ATOM     15  N   UNL     1       1.911   5.466   0.012  0.00  0.00    -0.308 N 
ATOM     16  C   UNL     1       2.183   4.146   0.003  0.00  0.00    +0.251 C 
ATOM     17  O   UNL     1       3.338   3.763  -0.011  0.00  0.00    -0.270 OA
ATOM     18  H   UNL     1       0.867   5.813   0.024  0.00  0.00    +0.149 HD
BRANCH  15  20
ATOM     19  C   UNL     1       3.485   6.677   1.440  0.00  0.00    +0.028 C 
ATOM     20  C   UNL     1       3.006   6.440   0.006  0.00  0.00    +0.076 C 
BRANCH  20  21
ATOM     21  C   UNL     1       2.513   7.759  -0.592  0.00  0.00    -0.020 C 
ATOM     22  C   UNL     1       1.355   8.299   0.249  0.00  0.00    +0.012 C 
ATOM     23  C   UNL     1       3.656   8.775  -0.598  0.00  0.00    +0.012 C 
ATOM     24  C   UNL     1       2.034   7.521  -2.026  0.00  0.00    +0.012 C 
ENDBRANCH  20  21
ENDBRANCH  15  20
ENDBRANCH   1  16
TORSDOF 4
