REMARK  Name = ZINC22988339
REMARK  7 active torsions:
REMARK  status: ('A' for Active; 'I' for Inactive)
REMARK    1  A    between atoms: C_1  and  C_2
REMARK    2  A    between atoms: C_6  and  C_9
REMARK    3  A    between atoms: C_7  and  N_8
REMARK    4  A    between atoms: C_9  and  O_11
REMARK    5  A    between atoms: O_11  and  C_12
REMARK    6  A    between atoms: C_12  and  C_13
REMARK    7  A    between atoms: C_15  and  C_18
REMARK                            x       y       z     vdW  Elec       q    Type
REMARK                         _______ _______ _______ _____ _____    ______ ____
ROOT
ATOM      1  O   UNL     1       4.797   7.260   1.367  0.00  0.00    -0.451 OA
ENDROOT
BRANCH   1   2
ATOM      2  C   UNL     1       5.362   8.471   1.544  0.00  0.00    +0.341 C 
ATOM      3  O   UNL     1       5.665   9.146   0.580  0.00  0.00    -0.245 OA
BRANCH   2   9
ATOM      4  C   UNL     1       7.290  11.934   4.596  0.00  0.00    +0.045 C 
ATOM      5  C   UNL     1       6.540  10.644   4.384  0.00  0.00    -0.029 A 
ATOM      6  C   UNL     1       6.080   9.927   5.469  0.00  0.00    +0.005 A 
ATOM      7  C   UNL     1       5.389   8.740   5.285  0.00  0.00    +0.001 A 
ATOM      8  C   UNL     1       5.153   8.262   4.015  0.00  0.00    +0.017 A 
ATOM      9  C   UNL     1       5.611   8.976   2.905  0.00  0.00    +0.080 A 
ATOM     10  C   UNL     1       6.316  10.176   3.095  0.00  0.00    +0.042 A 
BRANCH  10  11
ATOM     11  N   UNL     1       6.782  10.892   2.001  0.00  0.00    -0.357 N 
ATOM     12  H   UNL     1       6.604  10.519   0.982  0.00  0.00    +0.142 HD
ATOM     13  H   UNL     1       7.331  11.834   2.154  0.00  0.00    +0.142 HD
ENDBRANCH  10  11
ENDBRANCH   2   9
ENDBRANCH   1   2
BRANCH   1  14
ATOM     14  C   UNL     1       4.580   6.827  -0.001  0.00  0.00    +0.331 C 
BRANCH  14  15
ATOM     15  C   UNL     1       3.945   5.460  -0.001  0.00  0.00    +0.265 A 
ATOM     16  N   UNL     1       2.662   5.199   0.004  0.00  0.00    -0.188 NA
ATOM     17  C   UNL     1       2.565   3.850   0.005  0.00  0.00    +0.202 A 
ATOM     18  N   UNL     1       3.784   3.376  -0.008  0.00  0.00    -0.056 NA
ATOM     19  O   UNL     1       4.585   4.287  -0.012  0.00  0.00    -0.334 OA
BRANCH  17  20
ATOM     20  C   UNL     1       1.311   3.056   0.013  0.00  0.00    +0.023 A 
ATOM     21  C   UNL     1       1.365   1.664   0.007  0.00  0.00    +0.012 A 
ATOM     22  C   UNL     1       0.196   0.930   0.015  0.00  0.00    +0.002 A 
ATOM     23  C   UNL     1      -1.028   1.574   0.023  0.00  0.00    +0.015 A 
ATOM     24  C   UNL     1      -1.088   2.957   0.035  0.00  0.00    +0.019 A 
ATOM     25  C   UNL     1       0.076   3.701   0.027  0.00  0.00    +0.027 A 
ATOM     26 BR   UNL     1      -2.765   3.829   0.054  0.00  0.00    -0.050 Br
ENDBRANCH  17  20
ENDBRANCH  14  15
ENDBRANCH   1  14
TORSDOF 6
