REMARK  Name = ZINC35877570
REMARK  11 active torsions:
REMARK  status: ('A' for Active; 'I' for Inactive)
REMARK    1  A    between atoms: C_1  and  C_2
REMARK    2  A    between atoms: C_2  and  O_3
REMARK    3  A    between atoms: O_3  and  C_4
REMARK    4  A    between atoms: C_4  and  C_6
REMARK    5  A    between atoms: C_9  and  N_12
REMARK    6  A    between atoms: C_13  and  C_15
REMARK    7  A    between atoms: C_18  and  C_33
REMARK    8  A    between atoms: C_25  and  C_32
REMARK    9  A    between atoms: C_26  and  C_31
REMARK   10  A    between atoms: C_33  and  C_35
REMARK   11  A    between atoms: C_33  and  O_36
REMARK                            x       y       z     vdW  Elec       q    Type
REMARK                         _______ _______ _______ _____ _____    ______ ____
ROOT
ATOM      1  C   UNL     1      -8.303  -5.798   0.072  0.00  0.00    +0.076 C 
ATOM      2  C   UNL     1      -9.025  -5.405  -1.236  0.00  0.00    -0.001 C 
ATOM      3  C   UNL     1      -9.451  -6.745  -1.876  0.00  0.00    -0.040 C 
ATOM      4  N   UNL     1      -8.514  -7.751  -1.308  0.00  0.00    +0.395 N 
ATOM      5  C   UNL     1      -8.341  -7.330   0.099  0.00  0.00    +0.049 C 
ATOM      6  C   UNL     1      -7.088  -7.904   0.697  0.00  0.00    -0.027 A 
ATOM      7  C   UNL     1      -5.753  -7.812   0.373  0.00  0.00    +0.005 A 
ATOM      8  C   UNL     1      -4.808  -8.475   1.135  0.00  0.00    +0.004 A 
ATOM      9  C   UNL     1      -5.207  -9.229   2.224  0.00  0.00    -0.046 A 
ATOM     10  C   UNL     1      -6.543  -9.324   2.553  0.00  0.00    -0.026 A 
ATOM     11  C   UNL     1      -7.502  -8.660   1.791  0.00  0.00    +0.039 A 
ATOM     12  N   UNL     1      -8.891  -8.601   1.921  0.00  0.00    -0.286 N 
ATOM     13  C   UNL     1      -9.459  -7.839   0.967  0.00  0.00    +0.211 C 
ATOM     14  O   UNL     1     -10.642  -7.608   0.833  0.00  0.00    -0.277 OA
ATOM     15  C   UNL     1      -6.968 -10.149   3.741  0.00  0.00    +0.046 C 
ATOM     16  C   UNL     1      -4.177  -9.950   3.055  0.00  0.00    +0.044 C 
ATOM     17  H   UNL     1      -8.919  -8.674  -1.352  0.00  0.00    -0.083 HD
ATOM     18  H   UNL     1      -9.389  -9.056   2.618  0.00  0.00    +0.155 HD
ATOM     19  H   UNL     1      -7.631  -7.727  -1.795  0.00  0.00    -0.083 HD
ENDROOT
BRANCH   1  21
ATOM     20  N   UNL     1      -6.266  -4.963   1.202  0.00  0.00    -0.285 N 
ATOM     21  C   UNL     1      -6.877  -5.308   0.051  0.00  0.00    +0.220 C 
ATOM     22  O   UNL     1      -6.280  -5.226  -1.001  0.00  0.00    -0.275 OA
ATOM     23  H   UNL     1      -6.717  -5.099   2.050  0.00  0.00    +0.155 HD
BRANCH  20  27
ATOM     24  C   UNL     1      -2.444  -3.310   1.116  0.00  0.00    +0.059 A 
ATOM     25  C   UNL     1      -3.343  -3.051   0.077  0.00  0.00    +0.017 A 
ATOM     26  C   UNL     1      -4.605  -3.599   0.108  0.00  0.00    +0.024 A 
ATOM     27  C   UNL     1      -4.987  -4.410   1.173  0.00  0.00    +0.033 A 
ATOM     28  C   UNL     1      -4.095  -4.669   2.209  0.00  0.00    +0.024 A 
ATOM     29  C   UNL     1      -2.829  -4.129   2.181  0.00  0.00    +0.017 A 
BRANCH  24  30
ATOM     30  C   UNL     1      -1.091  -2.724   1.085  0.00  0.00    +0.339 C 
ATOM     31  O   UNL     1      -0.309  -2.954   1.986  0.00  0.00    -0.245 OA
BRANCH  30  32
ATOM     32  O   UNL     1      -0.721  -1.935   0.058  0.00  0.00    -0.461 OA
BRANCH  32  34
ATOM     33  C   UNL     1       0.840  -0.537  -1.147  0.00  0.00    +0.048 C 
ATOM     34  C   UNL     1       0.604  -1.402   0.093  0.00  0.00    +0.229 C 
ENDBRANCH  32  34
ENDBRANCH  30  32
ENDBRANCH  24  30
ENDBRANCH  20  27
ENDBRANCH   1  21
BRANCH   3  35
ATOM     35  C   UNL     1      -9.306  -6.678  -3.398  0.00  0.00    +0.098 C 
ATOM     36  C   UNL     1     -10.310  -5.671  -3.962  0.00  0.00    +0.036 C 
BRANCH  35  37
ATOM     37  O   UNL     1      -7.979  -6.266  -3.732  0.00  0.00    -0.394 OA
ATOM     38  H   UNL     1      -7.737  -5.397  -3.384  0.00  0.00    +0.210 HD
ENDBRANCH  35  37
ENDBRANCH   3  35
TORSDOF 7
