REMARK  Name = ZINC34757869
REMARK  6 active torsions:
REMARK  status: ('A' for Active; 'I' for Inactive)
REMARK    1  A    between atoms: C_4  and  C_7
REMARK    2  A    between atoms: C_7  and  C_8
REMARK    3  A    between atoms: C_8  and  N_9
REMARK    4  A    between atoms: C_22  and  S_24
REMARK    5  A    between atoms: S_24  and  C_25
REMARK    6  A    between atoms: C_25  and  C_26
REMARK                            x       y       z     vdW  Elec       q    Type
REMARK                         _______ _______ _______ _____ _____    ______ ____
ROOT
ATOM      1  N   UNL     1       5.901  -1.993   0.264  0.00  0.00    +0.382 N 
ATOM      2  C   UNL     1       7.134  -2.646  -0.195  0.00  0.00    -0.060 C 
ATOM      3  C   UNL     1       8.031  -2.946   1.011  0.00  0.00    +0.088 C 
ATOM      4  N   UNL     1       7.255  -3.730   1.984  0.00  0.00    -0.318 N 
ATOM      5  C   UNL     1       5.929  -3.230   2.378  0.00  0.00    +0.088 C 
ATOM      6  C   UNL     1       5.132  -2.916   1.108  0.00  0.00    -0.060 C 
ATOM      7  C   UNL     1       7.759  -4.904   2.514  0.00  0.00    +0.134 A 
ATOM      8  C   UNL     1       8.461  -4.893   3.751  0.00  0.00    +0.051 A 
ATOM      9  C   UNL     1       8.761  -3.744   4.622  0.00  0.00    -0.025 A 
ATOM     10  C   UNL     1       9.446  -3.997   5.747  0.00  0.00    -0.004 A 
ATOM     11  S   UNL     1       9.734  -5.752   5.729  0.00  0.00    -0.073 S 
ATOM     12  C   UNL     1       8.929  -6.141   4.199  0.00  0.00    +0.115 A 
ATOM     13  N   UNL     1       8.724  -7.246   3.506  0.00  0.00    -0.214 NA
ATOM     14  C   UNL     1       8.061  -7.198   2.358  0.00  0.00    +0.191 A 
ATOM     15  N   UNL     1       7.588  -6.053   1.881  0.00  0.00    -0.206 NA
ATOM     16  C   UNL     1       9.698  -2.751   6.553  0.00  0.00    +0.043 C 
ATOM     17  C   UNL     1       9.445  -1.592   5.564  0.00  0.00    +0.010 C 
ATOM     18  C   UNL     1       8.467  -2.242   4.566  0.00  0.00    +0.037 C 
ATOM     19  H   UNL     1       6.138  -1.169   0.796  0.00  0.00    -0.082 HD
ENDROOT
BRANCH   1  20
ATOM     20  C   UNL     1       5.092  -1.606  -0.900  0.00  0.00    -0.074 C 
BRANCH  20  21
ATOM     21  C   UNL     1       5.842  -0.550  -1.714  0.00  0.00    +0.016 C 
BRANCH  21  25
ATOM     22  C   UNL     1       3.491   0.576  -5.098  0.00  0.00    +0.000 A 
ATOM     23  C   UNL     1       3.355   1.258  -3.904  0.00  0.00    +0.000 A 
ATOM     24  C   UNL     1       4.115   0.894  -2.809  0.00  0.00    +0.003 A 
ATOM     25  C   UNL     1       5.012  -0.154  -2.908  0.00  0.00    -0.049 A 
ATOM     26  C   UNL     1       5.148  -0.837  -4.102  0.00  0.00    +0.003 A 
ATOM     27  C   UNL     1       4.388  -0.471  -5.197  0.00  0.00    +0.000 A 
ENDBRANCH  21  25
ENDBRANCH  20  21
ENDBRANCH   1  20
BRANCH  14  28
ATOM     28  S   UNL     1       7.799  -8.685   1.450  0.00  0.00    -0.077 S 
BRANCH  28  29
ATOM     29  C   UNL     1       8.595  -9.963   2.462  0.00  0.00    +0.173 C 
BRANCH  29  30
ATOM     30  C   UNL     1       8.442 -11.304   1.790  0.00  0.00    +0.226 C 
ATOM     31  O   UNL     1       7.854 -11.388   0.733  0.00  0.00    -0.275 OA
ATOM     32  N   UNL     1       8.958 -12.408   2.364  0.00  0.00    -0.301 N 
ATOM     33  C   UNL     1       9.668 -12.322   3.648  0.00  0.00    +0.108 C 
ATOM     34  C   UNL     1       9.038 -13.318   4.627  0.00  0.00    +0.019 C 
ATOM     35  C   UNL     1       9.040 -14.714   4.000  0.00  0.00    +0.003 C 
ATOM     36  C   UNL     1       8.202 -14.701   2.719  0.00  0.00    +0.019 C 
ATOM     37  C   UNL     1       8.817 -13.722   1.722  0.00  0.00    +0.108 C 
ENDBRANCH  29  30
ENDBRANCH  28  29
ENDBRANCH  14  28
TORSDOF 6
