REMARK  Name = ZINC20100107
REMARK  17 active torsions:
REMARK  status: ('A' for Active; 'I' for Inactive)
REMARK    1  A    between atoms: C_1  and  C_2
REMARK    2  A    between atoms: C_2  and  C_4
REMARK    3  A    between atoms: C_2  and  O_29
REMARK    4  A    between atoms: C_7  and  S_12
REMARK    5  A    between atoms: N_8  and  C_9
REMARK    6  A    between atoms: C_9  and  C_10
REMARK    7  A    between atoms: C_9  and  C_11
REMARK    8  A    between atoms: S_12  and  C_13
REMARK    9  A    between atoms: C_13  and  C_14
REMARK   10  A    between atoms: N_16  and  C_17
REMARK   11  A    between atoms: C_20  and  O_27
REMARK   12  A    between atoms: C_21  and  N_23
REMARK   13  A    between atoms: C_24  and  C_26
REMARK   14  A    between atoms: O_27  and  C_28
REMARK   15  A    between atoms: O_29  and  C_30
REMARK   16  A    between atoms: C_33  and  O_36
REMARK   17  A    between atoms: O_36  and  C_37
REMARK                            x       y       z     vdW  Elec       q    Type
REMARK                         _______ _______ _______ _____ _____    ______ ____
ROOT
ATOM      1  C   UNL     1       1.015  -1.336   1.852  0.00  0.00    +0.175 A 
ATOM      2  N   UNL     1       2.288  -1.108   2.016  0.00  0.00    -0.130 NA
ATOM      3  N   UNL     1       2.677  -1.573   3.148  0.00  0.00    -0.122 NA
ATOM      4  C   UNL     1       1.665  -2.129   3.774  0.00  0.00    +0.192 A 
ATOM      5  N   UNL     1       0.572  -1.990   2.968  0.00  0.00    -0.300 N 
ENDROOT
BRANCH   5   6
ATOM      6  C   UNL     1      -0.792  -2.449   3.241  0.00  0.00    +0.085 C 
ATOM      7  C   UNL     1      -0.791  -3.966   3.435  0.00  0.00    +0.030 C 
ATOM      8  C   UNL     1      -1.313  -1.773   4.512  0.00  0.00    +0.030 C 
ENDBRANCH   5   6
BRANCH   1  10
ATOM      9  C   UNL     1      -0.085   0.560   0.693  0.00  0.00    +0.060 C 
ATOM     10  C   UNL     1       0.185  -0.946   0.657  0.00  0.00    +0.238 C 
BRANCH  10  11
ATOM     11  O   UNL     1       0.890  -1.275  -0.542  0.00  0.00    -0.481 OA
BRANCH  11  12
ATOM     12  C   UNL     1       0.146  -1.681  -1.605  0.00  0.00    +0.122 A 
ATOM     13  C   UNL     1       0.771  -2.131  -2.758  0.00  0.00    +0.049 A 
ATOM     14  C   UNL     1       0.015  -2.543  -3.838  0.00  0.00    +0.049 A 
ATOM     15  C   UNL     1      -1.369  -2.508  -3.769  0.00  0.00    +0.120 A 
ATOM     16  C   UNL     1      -1.995  -2.059  -2.615  0.00  0.00    +0.049 A 
ATOM     17  C   UNL     1      -1.239  -1.650  -1.534  0.00  0.00    +0.049 A 
BRANCH  15  18
ATOM     18  O   UNL     1      -2.114  -2.913  -4.832  0.00  0.00    -0.495 OA
ATOM     19  C   UNL     1      -3.535  -2.850  -4.691  0.00  0.00    +0.277 C 
ENDBRANCH  15  18
ENDBRANCH  11  12
ENDBRANCH  10  11
ENDBRANCH   1  10
BRANCH   4  20
ATOM     20  S   UNL     1       1.708  -2.901   5.357  0.00  0.00    -0.077 S 
BRANCH  20  21
ATOM     21  C   UNL     1       3.438  -2.738   5.878  0.00  0.00    +0.173 C 
BRANCH  21  22
ATOM     22  C   UNL     1       3.616  -3.366   7.236  0.00  0.00    +0.227 C 
ATOM     23  O   UNL     1       2.668  -3.874   7.798  0.00  0.00    -0.275 OA
ATOM     24  N   UNL     1       4.827  -3.364   7.827  0.00  0.00    -0.285 N 
ATOM     25  H   UNL     1       5.567  -2.891   7.415  0.00  0.00    +0.155 HD
BRANCH  24  26
ATOM     26  C   UNL     1       5.018  -4.044   9.037  0.00  0.00    +0.035 A 
ATOM     27  C   UNL     1       4.339  -5.231   9.280  0.00  0.00    +0.027 A 
ATOM     28  C   UNL     1       4.525  -5.904  10.473  0.00  0.00    +0.049 A 
ATOM     29  C   UNL     1       5.390  -5.397  11.429  0.00  0.00    +0.141 A 
ATOM     30  C   UNL     1       6.073  -4.207  11.188  0.00  0.00    +0.077 A 
ATOM     31  C   UNL     1       5.889  -3.535   9.989  0.00  0.00    +0.050 A 
BRANCH  30  32
ATOM     32  N   UNL     1       6.948  -3.692  12.154  0.00  0.00    -0.283 N 
ATOM     33  C   UNL     1       7.222  -2.373  12.181  0.00  0.00    +0.214 C 
ATOM     34  O   UNL     1       6.633  -1.616  11.438  0.00  0.00    -0.276 OA
ATOM     35  C   UNL     1       8.260  -1.838  13.133  0.00  0.00    +0.109 C 
ATOM     36  H   UNL     1       7.356  -4.285  12.804  0.00  0.00    +0.155 HD
ENDBRANCH  30  32
BRANCH  29  37
ATOM     37  O   UNL     1       5.572  -6.060  12.602  0.00  0.00    -0.493 OA
ATOM     38  C   UNL     1       4.839  -7.274  12.782  0.00  0.00    +0.277 C 
ENDBRANCH  29  37
ENDBRANCH  24  26
ENDBRANCH  21  22
ENDBRANCH  20  21
ENDBRANCH   4  20
TORSDOF 11
