REMARK  Name = ZINC09030545
REMARK  4 active torsions:
REMARK  status: ('A' for Active; 'I' for Inactive)
REMARK    1  A    between atoms: N_8  and  S_9
REMARK    2  A    between atoms: S_9  and  C_12
REMARK    3  A    between atoms: C_26  and  N_29
REMARK    4  A    between atoms: N_29  and  C_30
REMARK                            x       y       z     vdW  Elec       q    Type
REMARK                         _______ _______ _______ _____ _____    ______ ____
ROOT
ATOM      1  C   UNL     1      -0.001   1.429  -0.050  0.00  0.00    +0.001 A 
ATOM      2  C   UNL     1       1.193   2.123   0.030  0.00  0.00    +0.001 A 
ATOM      3  C   UNL     1       2.397   1.445   0.069  0.00  0.00    +0.012 A 
ATOM      4  C   UNL     1       2.408   0.053   0.025  0.00  0.00    +0.033 A 
ATOM      5  C   UNL     1       1.194  -0.652  -0.057  0.00  0.00    +0.013 A 
ATOM      6  C   UNL     1      -0.006   0.045  -0.094  0.00  0.00    +0.011 A 
ATOM      7  C   UNL     1       1.214  -2.133  -0.102  0.00  0.00    +0.095 C 
ATOM      8  N   UNL     1       0.093  -2.801  -0.179  0.00  0.00    -0.128 NA
ATOM      9  C   UNL     1       2.495  -2.847  -0.061  0.00  0.00    +0.057 C 
ATOM     10  C   UNL     1       3.662  -2.171   0.018  0.00  0.00    +0.081 C 
ATOM     11  C   UNL     1       3.679  -0.696   0.065  0.00  0.00    +0.208 C 
ATOM     12  O   UNL     1       4.736  -0.099   0.135  0.00  0.00    -0.285 OA
ENDROOT
BRANCH   8  13
ATOM     13  S   UNL     1      -1.264  -2.232   0.580  0.00  0.00    +0.100 S 
ATOM     14  O   UNL     1      -0.817  -1.395   1.638  0.00  0.00    -0.146 OA
ATOM     15  O   UNL     1      -2.136  -1.768  -0.441  0.00  0.00    -0.146 OA
BRANCH  13  16
ATOM     16  C   UNL     1      -2.058  -3.613   1.333  0.00  0.00    +0.120 A 
ATOM     17  C   UNL     1      -2.170  -3.699   2.694  0.00  0.00    +0.031 A 
ATOM     18  C   UNL     1      -2.788  -4.767   3.344  0.00  0.00    +0.026 A 
ATOM     19  C   UNL     1      -3.323  -5.808   2.608  0.00  0.00    +0.042 A 
ATOM     20  C   UNL     1      -3.202  -5.706   1.226  0.00  0.00    +0.017 A 
ATOM     21  C   UNL     1      -2.595  -4.648   0.549  0.00  0.00    +0.011 A 
ATOM     22  C   UNL     1      -2.570  -4.712  -0.855  0.00  0.00    +0.010 A 
ATOM     23  C   UNL     1      -3.139  -5.791  -1.478  0.00  0.00    +0.001 A 
ATOM     24  C   UNL     1      -3.747  -6.838  -0.786  0.00  0.00    +0.014 A 
ATOM     25  C   UNL     1      -3.782  -6.817   0.597  0.00  0.00    +0.047 A 
ATOM     26  C   UNL     1      -4.285  -7.638   1.705  0.00  0.00    +0.249 C 
ATOM     27  O   UNL     1      -4.864  -8.703   1.601  0.00  0.00    -0.270 OA
ATOM     28  N   UNL     1      -3.990  -6.999   2.868  0.00  0.00    -0.281 N 
ATOM     29  H   UNL     1      -4.212  -7.327   3.753  0.00  0.00    +0.155 HD
ENDBRANCH  13  16
ENDBRANCH   8  13
BRANCH  10  30
ATOM     30  N   UNL     1       4.859  -2.871   0.056  0.00  0.00    -0.311 N 
ATOM     31  H   UNL     1       5.101  -3.458  -0.678  0.00  0.00    +0.152 HD
BRANCH  30  32
ATOM     32  C   UNL     1       5.715  -2.732   1.151  0.00  0.00    +0.031 A 
ATOM     33  C   UNL     1       5.208  -2.353   2.388  0.00  0.00    +0.024 A 
ATOM     34  C   UNL     1       6.057  -2.216   3.468  0.00  0.00    +0.022 A 
ATOM     35  C   UNL     1       7.412  -2.455   3.319  0.00  0.00    +0.041 A 
ATOM     36  C   UNL     1       7.920  -2.832   2.088  0.00  0.00    +0.022 A 
ATOM     37  C   UNL     1       7.075  -2.977   1.006  0.00  0.00    +0.024 A 
ATOM     38 CL   UNL     1       8.477  -2.280   4.679  0.00  0.00    -0.084 Cl
ENDBRANCH  30  32
ENDBRANCH  10  30
TORSDOF 4
