REMARK  Name = ZINC11842680
REMARK  7 active torsions:
REMARK  status: ('A' for Active; 'I' for Inactive)
REMARK    1  A    between atoms: C_4  and  C_7
REMARK    2  A    between atoms: C_7  and  C_9
REMARK    3  A    between atoms: C_7  and  N_59
REMARK    4  A    between atoms: C_9  and  N_10
REMARK    5  A    between atoms: C_11  and  C_13
REMARK    6  A    between atoms: N_15  and  C_18
REMARK    7  A    between atoms: C_18  and  C_19
REMARK                            x       y       z     vdW  Elec       q    Type
REMARK                         _______ _______ _______ _____ _____    ______ ____
ROOT
ATOM      1  N   UNL     1      -1.313   2.157  -0.762  0.00  0.00    -0.311 N 
ATOM      2  C   UNL     1      -0.349   1.511  -1.448  0.00  0.00    +0.266 C 
ATOM      3  O   UNL     1       0.452   2.142  -2.111  0.00  0.00    -0.268 OA
ATOM      4  H   UNL     1      -1.954   1.653  -0.236  0.00  0.00    +0.149 HD
ENDROOT
BRANCH   2   5
ATOM      5  C   UNL     1      -0.271   0.039  -1.401  0.00  0.00    +0.167 A 
ATOM      6  C   UNL     1       0.650  -0.733  -2.052  0.00  0.00    +0.143 A 
ATOM      7  N   UNL     1       0.372  -2.016  -1.744  0.00  0.00    -0.246 N 
ATOM      8  N   UNL     1      -0.740  -1.996  -0.889  0.00  0.00    -0.065 NA
ATOM      9  N   UNL     1      -1.088  -0.770  -0.706  0.00  0.00    -0.125 NA
BRANCH   7  10
ATOM     10  C   UNL     1       1.094  -3.202  -2.211  0.00  0.00    +0.186 C 
BRANCH  10  11
ATOM     11  C   UNL     1       1.543  -4.016  -1.025  0.00  0.00    +0.044 A 
ATOM     12  C   UNL     1       2.780  -3.781  -0.452  0.00  0.00    +0.131 A 
ATOM     13  C   UNL     1       3.189  -4.525   0.642  0.00  0.00    +0.039 A 
ATOM     14  C   UNL     1       2.367  -5.511   1.154  0.00  0.00    +0.006 A 
ATOM     15  C   UNL     1       1.133  -5.751   0.579  0.00  0.00    +0.039 A 
ATOM     16  C   UNL     1       0.720  -5.004  -0.511  0.00  0.00    +0.131 A 
ATOM     17  F   UNL     1      -0.486  -5.238  -1.073  0.00  0.00    -0.205 F 
ATOM     18  F   UNL     1       3.587  -2.821  -0.955  0.00  0.00    -0.205 F 
ENDBRANCH  10  11
ENDBRANCH   7  10
ENDBRANCH   2   5
BRANCH   1  19
ATOM     19  C   UNL     1      -1.391   3.619  -0.809  0.00  0.00    +0.094 C 
BRANCH  19  20
ATOM     20  C   UNL     1      -2.658   4.085  -0.089  0.00  0.00    -0.020 C 
BRANCH  20  27
ATOM     21  C   UNL     1      -4.895   4.568  -0.909  0.00  0.00    -0.078 C 
ATOM     22  C   UNL     1      -6.213   3.995  -1.352  0.00  0.00    -0.019 C 
ATOM     23  C   UNL     1      -7.061   3.690  -0.099  0.00  0.00    -0.002 C 
ATOM     24  C   UNL     1      -6.651   2.452   0.555  0.00  0.00    -0.002 C 
ATOM     25  C   UNL     1      -5.188   2.506   1.042  0.00  0.00    -0.019 C 
ATOM     26  C   UNL     1      -4.284   2.279  -0.139  0.00  0.00    -0.078 C 
ATOM     27  N   UNL     1      -3.810   3.532  -0.819  0.00  0.00    +0.385 N 
ATOM     28  H   UNL     1      -3.513   3.291  -1.772  0.00  0.00    -0.081 HD
ENDBRANCH  20  27
BRANCH  20  32
ATOM     29  C   UNL     1      -2.832   8.353  -0.132  0.00  0.00    +0.000 A 
ATOM     30  C   UNL     1      -2.852   7.672   1.071  0.00  0.00    +0.000 A 
ATOM     31  C   UNL     1      -2.796   6.291   1.085  0.00  0.00    +0.002 A 
ATOM     32  C   UNL     1      -2.720   5.591  -0.104  0.00  0.00    -0.059 A 
ATOM     33  C   UNL     1      -2.694   6.271  -1.307  0.00  0.00    +0.002 A 
ATOM     34  C   UNL     1      -2.755   7.652  -1.321  0.00  0.00    +0.000 A 
ENDBRANCH  20  32
ENDBRANCH  19  20
ENDBRANCH   1  19
TORSDOF 7
