REMARK  Name = ZINC01433423
REMARK  7 active torsions:
REMARK  status: ('A' for Active; 'I' for Inactive)
REMARK    1  A    between atoms: C_3  and  O_8
REMARK    2  A    between atoms: O_8  and  C_9
REMARK    3  A    between atoms: C_9  and  C_10
REMARK    4  A    between atoms: N_12  and  N_13
REMARK    5  A    between atoms: C_14  and  C_15
REMARK    6  A    between atoms: C_18  and  O_23
REMARK    7  A    between atoms: C_19  and  O_22
REMARK                            x       y       z     vdW  Elec       q    Type
REMARK                         _______ _______ _______ _____ _____    ______ ____
ROOT
ATOM      1  N   UNL     1       8.291   2.646  -0.065  0.00  0.00    -0.188 NA
ATOM      2  C   UNL     1       9.497   2.166  -0.079  0.00  0.00    +0.139 C 
ENDROOT
BRANCH   2   3
ATOM      3  C   UNL     1      10.654   3.079  -0.085  0.00  0.00    +0.013 A 
ATOM      4  C   UNL     1      11.953   2.564  -0.106  0.00  0.00    +0.029 A 
ATOM      5  C   UNL     1      13.034   3.421  -0.113  0.00  0.00    +0.064 A 
ATOM      6  C   UNL     1      12.836   4.795  -0.099  0.00  0.00    +0.174 A 
ATOM      7  C   UNL     1      11.544   5.315  -0.077  0.00  0.00    +0.174 A 
ATOM      8  C   UNL     1      10.455   4.463  -0.076  0.00  0.00    +0.072 A 
ATOM      9 BR   UNL     1       8.700   5.167  -0.056  0.00  0.00    -0.046 Br
ATOM     10 BR   UNL     1      14.791   2.722  -0.141  0.00  0.00    -0.046 Br
BRANCH   7  11
ATOM     11  O   UNL     1      11.354   6.662  -0.063  0.00  0.00    -0.503 OA
ATOM     12  H   UNL     1      11.287   7.059  -0.942  0.00  0.00    +0.292 HD
ENDBRANCH   7  11
BRANCH   6  13
ATOM     13  O   UNL     1      13.905   5.634  -0.106  0.00  0.00    -0.503 OA
ATOM     14  H   UNL     1      14.203   5.885  -0.991  0.00  0.00    +0.292 HD
ENDBRANCH   6  13
ENDBRANCH   2   3
BRANCH   1  17
ATOM     15  C   UNL     1       5.940   2.276  -0.043  0.00  0.00    +0.270 C 
ATOM     16  O   UNL     1       5.765   3.477  -0.036  0.00  0.00    -0.270 OA
ATOM     17  N   UNL     1       7.192   1.778  -0.058  0.00  0.00    -0.204 N 
ATOM     18  H   UNL     1       7.332   0.818  -0.064  0.00  0.00    +0.177 HD
BRANCH  15  19
ATOM     19  C   UNL     1       4.757   1.343  -0.037  0.00  0.00    +0.326 C 
BRANCH  19  20
ATOM     20  O   UNL     1       3.548   2.105  -0.021  0.00  0.00    -0.483 OA
BRANCH  20  23
ATOM     21  C   UNL     1      -0.017   1.378   0.010  0.00  0.00    +0.005 A 
ATOM     22  C   UNL     1       1.170   2.087   0.002  0.00  0.00    +0.046 A 
ATOM     23  C   UNL     1       2.381   1.410  -0.013  0.00  0.00    +0.122 A 
ATOM     24  C   UNL     1       2.398   0.023  -0.021  0.00  0.00    +0.061 A 
ATOM     25  C   UNL     1       1.208  -0.682  -0.013  0.00  0.00    +0.021 A 
ATOM     26  C   UNL     1       0.002  -0.004   0.002  0.00  0.00    +0.015 A 
ATOM     27 BR   UNL     1       1.230  -2.573  -0.024  0.00  0.00    -0.050 Br
ENDBRANCH  20  23
ENDBRANCH  19  20
ENDBRANCH  15  19
ENDBRANCH   1  17
TORSDOF 7
