REMARK  Name = ZINC13776372
REMARK  4 active torsions:
REMARK  status: ('A' for Active; 'I' for Inactive)
REMARK    1  A    between atoms: C_4  and  S_7
REMARK    2  A    between atoms: S_7  and  N_10
REMARK    3  A    between atoms: C_13  and  C_16
REMARK    4  A    between atoms: C_20  and  N_22
REMARK                            x       y       z     vdW  Elec       q    Type
REMARK                         _______ _______ _______ _____ _____    ______ ____
ROOT
ATOM      1  N   UNL     1       2.142   8.212   0.025  0.00  0.00    -0.103 NA
ATOM      2  C   UNL     1       1.069   7.335   0.031  0.00  0.00    +0.192 A 
ATOM      3  N   UNL     1       1.069   6.015   0.029  0.00  0.00    -0.332 N 
ATOM      4  C   UNL     1      -0.070   5.327   0.031  0.00  0.00    +0.055 A 
ATOM      5  C   UNL     1      -1.258   6.001   0.046  0.00  0.00    +0.075 A 
ATOM      6  S   UNL     1      -0.682   7.693   0.049  0.00  0.00    -0.056 S 
ATOM      7  H   UNL     1       2.022   5.465   0.026  0.00  0.00    +0.168 HD
ENDROOT
BRANCH   4   8
ATOM      8  C   UNL     1      -0.050   3.844   0.023  0.00  0.00    +0.001 A 
ATOM      9  C   UNL     1      -1.246   3.128   0.031  0.00  0.00    +0.010 A 
ATOM     10  C   UNL     1      -1.222   1.748   0.017  0.00  0.00    +0.003 A 
ATOM     11  C   UNL     1      -0.013   1.076   0.008  0.00  0.00    +0.033 A 
ATOM     12  C   UNL     1       1.177   1.781   0.000  0.00  0.00    +0.127 A 
ATOM     13  C   UNL     1       1.165   3.161   0.007  0.00  0.00    +0.042 A 
BRANCH  12  14
ATOM     14  N   UNL     1       2.467   1.054  -0.016  0.00  0.00    +0.056 N 
ATOM     15  O   UNL     1       2.479  -0.164  -0.022  0.00  0.00    -0.126 OA
ATOM     16  O   UNL     1       3.515   1.674  -0.022  0.00  0.00    -0.126 OA
ENDBRANCH  12  14
ENDBRANCH   4   8
BRANCH   1  17
ATOM     17  S   UNL     1       1.877   9.846   0.037  0.00  0.00    +0.101 S 
ATOM     18  O   UNL     1       3.156  10.465   0.055  0.00  0.00    -0.146 OA
ATOM     19  O   UNL     1       0.918  10.109  -0.978  0.00  0.00    -0.146 OA
BRANCH  17  23
ATOM     20  C   UNL     1      -0.103  10.852   3.982  0.00  0.00    +0.000 A 
ATOM     21  C   UNL     1       1.275  10.870   3.876  0.00  0.00    +0.002 A 
ATOM     22  C   UNL     1       1.880  10.562   2.671  0.00  0.00    +0.029 A 
ATOM     23  C   UNL     1       1.106  10.238   1.573  0.00  0.00    +0.113 A 
ATOM     24  C   UNL     1      -0.272  10.226   1.677  0.00  0.00    +0.029 A 
ATOM     25  C   UNL     1      -0.876  10.528   2.883  0.00  0.00    +0.002 A 
ENDBRANCH  17  23
ENDBRANCH   1  17
TORSDOF 4
