REMARK  Name = ZINC04283255
REMARK  7 active torsions:
REMARK  status: ('A' for Active; 'I' for Inactive)
REMARK    1  A    between atoms: C_10  and  N_11
REMARK    2  A    between atoms: C_12  and  C_14
REMARK    3  A    between atoms: N_16  and  N_17
REMARK    4  A    between atoms: C_18  and  C_19
REMARK    5  A    between atoms: C_24  and  O_25
REMARK    6  A    between atoms: O_25  and  C_26
REMARK    7  A    between atoms: C_26  and  C_27
REMARK                            x       y       z     vdW  Elec       q    Type
REMARK                         _______ _______ _______ _____ _____    ______ ____
ROOT
ATOM      1  C   UNL     1       2.330  -2.697  -0.049  0.00  0.00    +0.318 C 
ATOM      2  O   UNL     1       3.374  -2.076  -0.061  0.00  0.00    -0.263 OA
ATOM      3  N   UNL     1       1.154  -2.040  -0.039  0.00  0.00    -0.199 N 
ATOM      4  H   UNL     1       0.321  -2.536  -0.030  0.00  0.00    +0.178 HD
ENDROOT
BRANCH   1   6
ATOM      5  N   UNL     1       3.528  -4.846  -0.058  0.00  0.00    -0.277 N 
ATOM      6  C   UNL     1       2.351  -4.188  -0.047  0.00  0.00    +0.305 C 
ATOM      7  O   UNL     1       1.308  -4.809  -0.036  0.00  0.00    -0.265 OA
ATOM      8  H   UNL     1       4.359  -4.351  -0.133  0.00  0.00    +0.155 HD
BRANCH   5  18
ATOM      9  C   UNL     1       6.625  -8.205   2.084  0.00  0.00    +0.001 A 
ATOM     10  C   UNL     1       6.622  -6.814   1.998  0.00  0.00    +0.001 A 
ATOM     11  C   UNL     1       5.631  -6.155   1.337  0.00  0.00    +0.010 A 
ATOM     12  C   UNL     1       4.597  -6.885   0.728  0.00  0.00    +0.003 A 
ATOM     13  C   UNL     1       4.596  -8.299   0.820  0.00  0.00    -0.016 A 
ATOM     14  C   UNL     1       5.636  -8.944   1.510  0.00  0.00    +0.008 A 
ATOM     15  C   UNL     1       3.560  -9.030   0.215  0.00  0.00    +0.008 A 
ATOM     16  C   UNL     1       2.564  -8.378  -0.448  0.00  0.00    +0.002 A 
ATOM     17  C   UNL     1       2.551  -6.990  -0.540  0.00  0.00    +0.024 A 
ATOM     18  C   UNL     1       3.550  -6.236   0.040  0.00  0.00    +0.042 A 
ENDBRANCH   5  18
ENDBRANCH   1   6
BRANCH   3  19
ATOM     19  N   UNL     1       1.135  -0.639  -0.041  0.00  0.00    -0.187 NA
ATOM     20  C   UNL     1       0.001  -0.005  -0.031  0.00  0.00    +0.142 C 
BRANCH  20  21
ATOM     21  C   UNL     1      -0.020   1.468  -0.033  0.00  0.00    +0.036 A 
ATOM     22  C   UNL     1      -1.237   2.154  -0.028  0.00  0.00    +0.013 A 
ATOM     23  C   UNL     1      -1.249   3.532  -0.023  0.00  0.00    +0.001 A 
ATOM     24  C   UNL     1      -0.060   4.241  -0.037  0.00  0.00    +0.004 A 
ATOM     25  C   UNL     1       1.151   3.575  -0.048  0.00  0.00    +0.046 A 
ATOM     26  C   UNL     1       1.182   2.190  -0.046  0.00  0.00    +0.130 A 
BRANCH  26  27
ATOM     27  O   UNL     1       2.371   1.534  -0.057  0.00  0.00    -0.487 OA
BRANCH  27  28
ATOM     28  C   UNL     1       3.554   2.336  -0.070  0.00  0.00    +0.264 C 
BRANCH  28  29
ATOM     29  C   UNL     1       4.767   1.442  -0.080  0.00  0.00    -0.010 A 
ATOM     30  C   UNL     1       5.338   1.039   1.113  0.00  0.00    +0.008 A 
ATOM     31  C   UNL     1       6.448   0.215   1.104  0.00  0.00    +0.015 A 
ATOM     32  C   UNL     1       6.993  -0.198  -0.098  0.00  0.00    +0.018 A 
ATOM     33  C   UNL     1       6.424   0.209  -1.291  0.00  0.00    +0.015 A 
ATOM     34  C   UNL     1       5.311   1.029  -1.281  0.00  0.00    +0.008 A 
ATOM     35 BR   UNL     1       8.515  -1.320  -0.111  0.00  0.00    -0.050 Br
ENDBRANCH  28  29
ENDBRANCH  27  28
ENDBRANCH  26  27
ENDBRANCH  20  21
ENDBRANCH   3  19
TORSDOF 7
