REMARK  Name = ZINC63362810
REMARK  9 active torsions:
REMARK  status: ('A' for Active; 'I' for Inactive)
REMARK    1  A    between atoms: C_4  and  C_7
REMARK    2  A    between atoms: C_7  and  C_8
REMARK    3  A    between atoms: C_8  and  C_10
REMARK    4  A    between atoms: C_8  and  N_36
REMARK    5  A    between atoms: C_15  and  C_18
REMARK    6  A    between atoms: N_20  and  CA_21
REMARK    7  A    between atoms: CA_21  and  CB_23
REMARK    8  A    between atoms: CA_21  and  C_33
REMARK    9  A    between atoms: CB_23  and  CG_24
REMARK                            x       y       z     vdW  Elec       q    Type
REMARK                         _______ _______ _______ _____ _____    ______ ____
ROOT
ATOM      1  C   UNK A   0       5.422  -1.804   1.383  0.00  0.00    +0.201 C 
ATOM      2  O   UNK A   0       6.506  -1.282   1.528  0.00  0.00    -0.277 OA
ATOM      3  N   UNK A   0       5.334  -3.138   1.209  0.00  0.00    -0.303 N 
ATOM      4  C   UNK A   0       4.028  -3.785   1.027  0.00  0.00    +0.108 C 
ATOM      5  C   UNK A   0       3.889  -4.913   2.055  0.00  0.00    +0.032 C 
ATOM      6  C   UNK A   0       5.083  -5.862   1.930  0.00  0.00    +0.078 C 
ATOM      7  C   UNK A   0       6.377  -5.098   2.223  0.00  0.00    +0.032 C 
ATOM      8  C   UNK A   0       6.544  -3.971   1.192  0.00  0.00    +0.108 C 
ENDROOT
BRANCH   6   9
ATOM      9  C   UNK A   0       4.933  -6.991   2.916  0.00  0.00    +0.217 C 
ATOM     10  O   UNK A   0       3.966  -7.033   3.647  0.00  0.00    -0.275 OA
ATOM     11  N   TRP A   1       5.873  -7.955   2.986  0.00  0.00    -0.302 N 
ATOM     12  H   TRP A   1       6.646  -7.921   2.402  0.00  0.00    +0.150 HD
BRANCH  11  13
ATOM     13  CA  TRP A   1       5.726  -9.053   3.945  0.00  0.00    +0.190 C 
BRANCH  13  14
ATOM     14  C   TRP A   1       6.270  -8.626   5.284  0.00  0.00    +0.376 C 
ATOM     15  O   TRP A   1       5.800  -9.090   6.309  0.00  0.00    -0.244 OA
ATOM     16  OXT TRP A   1       7.180  -7.817   5.343  0.00  0.00    -0.244 OA
ENDBRANCH  13  14
BRANCH  13  17
ATOM     17  CB  TRP A   1       6.502 -10.273   3.445  0.00  0.00    +0.067 C 
BRANCH  17  18
ATOM     18  CG  TRP A   1       5.880 -10.774   2.167  0.00  0.00    -0.039 C 
ATOM     19  CD2 TRP A   1       6.261 -10.473   0.905  0.00  0.00    -0.001 A 
ATOM     20  CE3 TRP A   1       7.326  -9.620   0.364  0.00  0.00    +0.010 A 
ATOM     21  CZ3 TRP A   1       7.464  -9.512  -0.977  0.00  0.00    +0.001 A 
ATOM     22  CH2 TRP A   1       6.617 -10.193  -1.862  0.00  0.00    +0.002 A 
ATOM     23  CZ2 TRP A   1       5.615 -10.995  -1.441  0.00  0.00    +0.026 A 
ATOM     24  CE2 TRP A   1       5.380 -11.181  -0.051  0.00  0.00    +0.043 A 
ATOM     25  NE1 TRP A   1       4.489 -11.893   0.596  0.00  0.00    -0.380 N 
ATOM     26  CD1 TRP A   1       4.708 -11.721   2.036  0.00  0.00    +0.144 C 
ATOM     27  HE1 TRP A   1       3.802 -12.445   0.190  0.00  0.00    +0.160 HD
ENDBRANCH  17  18
ENDBRANCH  13  17
ENDBRANCH  11  13
ENDBRANCH   6   9
BRANCH   1  28
ATOM     28  C   UNK A   0       4.171  -0.963   1.399  0.00  0.00    +0.017 C 
BRANCH  28  29
ATOM     29  N   UNK A   0       4.452   0.319   2.059  0.00  0.00    +0.386 N 
ATOM     30  H   UNK A   0       3.615   0.882   2.070  0.00  0.00    -0.089 HD
ATOM     31  H   UNK A   0       4.755   0.150   3.006  0.00  0.00    -0.089 HD
ATOM     32  H   UNK A   0       5.178   0.805   1.555  0.00  0.00    -0.089 HD
ENDBRANCH  28  29
BRANCH  28  33
ATOM     33  C   UNK A   0       3.711  -0.707  -0.038  0.00  0.00    +0.028 C 
BRANCH  33  37
ATOM     34  C   UNK A   0      -0.017   1.378   0.010  0.00  0.00    +0.000 A 
ATOM     35  C   UNK A   0       1.171   2.086   0.002  0.00  0.00    +0.000 A 
ATOM     36  C   UNK A   0       2.377   1.411  -0.013  0.00  0.00    +0.003 A 
ATOM     37  C   UNK A   0       2.396   0.029  -0.020  0.00  0.00    -0.048 A 
ATOM     38  C   UNK A   0       1.208  -0.679  -0.012  0.00  0.00    +0.003 A 
ATOM     39  C   UNK A   0       0.002  -0.004   0.002  0.00  0.00    +0.000 A 
ENDBRANCH  33  37
ENDBRANCH  28  33
ENDBRANCH   1  28
TORSDOF 9
