REMARK  Name = ZINC34998275
REMARK  11 active torsions:
REMARK  status: ('A' for Active; 'I' for Inactive)
REMARK    1  A    between atoms: C_1  and  C_2
REMARK    2  A    between atoms: C_2  and  C_3
REMARK    3  A    between atoms: C_6  and  N_9
REMARK    4  A    between atoms: N_12  and  C_13
REMARK    5  A    between atoms: C_13  and  C_15
REMARK    6  A    between atoms: C_13  and  C_18
REMARK    7  A    between atoms: C_15  and  C_16
REMARK    8  A    between atoms: C_15  and  C_17
REMARK    9  A    between atoms: C_24  and  C_27
REMARK   10  A    between atoms: N_30  and  C_31
REMARK   11  A    between atoms: C_31  and  C_32
REMARK                            x       y       z     vdW  Elec       q    Type
REMARK                         _______ _______ _______ _____ _____    ______ ____
ROOT
ATOM      1  C   UNL     1       2.680  -2.662   7.665  0.00  0.00    +0.163 C 
ENDROOT
BRANCH   1   2
ATOM      2  C   UNL     1       3.594  -2.360   8.824  0.00  0.00    +0.236 C 
ATOM      3  O   UNL     1       4.696  -2.863   8.875  0.00  0.00    -0.274 OA
ATOM      4  N   UNL     1       3.187  -1.529   9.804  0.00  0.00    -0.297 N 
ATOM      5  C   UNL     1       1.817  -0.997   9.813  0.00  0.00    +0.127 C 
ATOM      6  C   UNL     1       1.885   0.534   9.868  0.00  0.00    +0.128 C 
ATOM      7  N   UNL     1       2.804   0.924  10.947  0.00  0.00    -0.280 N 
ATOM      8  C   UNL     1       4.174   0.393  10.938  0.00  0.00    +0.092 C 
ATOM      9  C   UNL     1       4.104  -1.143  10.886  0.00  0.00    +0.130 C 
ATOM     10  C   UNL     1       4.903   0.832  12.210  0.00  0.00    +0.030 C 
ATOM     11  C   UNL     1       2.397   1.755  11.928  0.00  0.00    +0.303 C 
ATOM     12  O   UNL     1       3.197   2.171  12.743  0.00  0.00    -0.253 OA
ATOM     13  N   UNL     1       1.103   2.124  12.004  0.00  0.00    -0.299 N 
ATOM     14  H   UNL     1       0.451   1.736  11.399  0.00  0.00    +0.150 HD
BRANCH  13  15
ATOM     15  C   UNL     1       0.680   3.111  13.001  0.00  0.00    +0.102 C 
ATOM     16  C   UNL     1      -0.826   3.350  12.875  0.00  0.00    +0.024 C 
ENDBRANCH  13  15
ENDBRANCH   1   2
BRANCH   1  20
ATOM     17  N   UNL     1       3.650  -2.768   4.120  0.00  0.00    -0.269 N 
ATOM     18  C   UNL     1       2.918  -2.611   5.240  0.00  0.00    +0.304 C 
ATOM     19  O   UNL     1       1.754  -2.268   5.163  0.00  0.00    -0.252 OA
ATOM     20  N   UNL     1       3.476  -2.833   6.447  0.00  0.00    -0.288 N 
ATOM     21  H   UNL     1       4.552  -3.119   4.175  0.00  0.00    +0.156 HD
ATOM     22  H   UNL     1       4.405  -3.106   6.508  0.00  0.00    +0.151 HD
BRANCH  17  26
ATOM     23  C   UNL     1       2.039  -1.741   0.417  0.00  0.00    -0.048 A 
ATOM     24  C   UNL     1       1.739  -0.983   1.534  0.00  0.00    +0.005 A 
ATOM     25  C   UNL     1       2.271  -1.321   2.763  0.00  0.00    +0.023 A 
ATOM     26  C   UNL     1       3.108  -2.423   2.876  0.00  0.00    +0.035 A 
ATOM     27  C   UNL     1       3.408  -3.182   1.752  0.00  0.00    +0.023 A 
ATOM     28  C   UNL     1       2.868  -2.842   0.527  0.00  0.00    +0.005 A 
BRANCH  23  30
ATOM     29  C   UNL     1       0.114  -2.080  -1.109  0.00  0.00    +0.009 C 
ATOM     30  C   UNL     1       1.456  -1.370  -0.922  0.00  0.00    +0.032 C 
ENDBRANCH  23  30
ENDBRANCH  17  26
ENDBRANCH   1  20
BRANCH   1  31
ATOM     31  C   UNL     1       1.903  -3.949   7.950  0.00  0.00    +0.012 C 
ATOM     32  C   UNL     1       1.039  -3.756   9.198  0.00  0.00    +0.009 C 
ATOM     33  C   UNL     1       1.006  -4.279   6.755  0.00  0.00    +0.009 C 
ENDBRANCH   1  31
TORSDOF 6
