REMARK  Name = ZINC02185973
REMARK  5 active torsions:
REMARK  status: ('A' for Active; 'I' for Inactive)
REMARK    1  A    between atoms: C_1  and  C_2
REMARK    2  A    between atoms: C_5  and  C_8
REMARK    3  A    between atoms: C_10  and  C_35
REMARK    4  A    between atoms: C_25  and  C_27
REMARK    5  A    between atoms: C_25  and  C_28
REMARK                            x       y       z     vdW  Elec       q    Type
REMARK                         _______ _______ _______ _____ _____    ______ ____
ROOT
ATOM      1  C   UNL     1      -2.401   3.446   0.036  0.00  0.00    +0.098 C 
ATOM      2  C   UNL     1      -3.074   3.190   1.367  0.00  0.00    +0.082 C 
ATOM      3  C   UNL     1      -4.417   2.821   1.359  0.00  0.00    +0.147 C 
ATOM      4  N   UNL     1      -5.013   2.591   2.537  0.00  0.00    -0.215 NA
ATOM      5  C   UNL     1      -6.277   2.239   2.643  0.00  0.00    +0.128 C 
ATOM      6  C   UNL     1      -7.097   2.088   1.422  0.00  0.00    +0.047 A 
ATOM      7  C   UNL     1      -8.512   1.714   1.320  0.00  0.00    -0.025 A 
ATOM      8  C   UNL     1      -9.031   1.645   0.077  0.00  0.00    -0.005 A 
ATOM      9  S   UNL     1      -7.693   2.078  -1.005  0.00  0.00    -0.077 S 
ATOM     10  C   UNL     1      -6.438   2.337   0.221  0.00  0.00    +0.089 A 
ATOM     11  N   UNL     1      -5.113   2.695   0.175  0.00  0.00    -0.250 N 
ATOM     12  C   UNL     1      -4.546   2.908  -1.059  0.00  0.00    +0.026 C 
ATOM     13  C   UNL     1      -3.255   3.271  -1.203  0.00  0.00    +0.025 C 
ATOM     14  C   UNL     1      -2.678   3.492  -2.462  0.00  0.00    +0.162 C 
ATOM     15  O   UNL     1      -1.506   3.802  -2.539  0.00  0.00    -0.292 OA
ATOM     16  C   UNL     1      -3.494   3.351  -3.720  0.00  0.00    +0.086 C 
ATOM     17  C   UNL     1      -4.960   3.657  -3.393  0.00  0.00    -0.023 C 
ATOM     18  C   UNL     1      -5.421   2.718  -2.277  0.00  0.00    +0.058 C 
ATOM     19  C   UNL     1      -5.089   5.109  -2.928  0.00  0.00    +0.011 C 
ATOM     20  C   UNL     1      -5.820   3.439  -4.640  0.00  0.00    +0.011 C 
ATOM     21  C   UNL     1     -10.428   1.278  -0.316  0.00  0.00    +0.043 C 
ATOM     22  C   UNL     1     -11.421   2.086   0.530  0.00  0.00    +0.005 C 
ATOM     23  C   UNL     1     -11.728   1.294   1.797  0.00  0.00    +0.001 C 
ATOM     24  C   UNL     1     -10.498   0.497   2.227  0.00  0.00    +0.005 C 
ATOM     25  C   UNL     1      -9.346   1.435   2.567  0.00  0.00    +0.037 C 
ATOM     26  N   UNL     1      -6.831   2.013   3.881  0.00  0.00    -0.343 N 
ATOM     27  H   UNL     1      -6.265   1.756   4.626  0.00  0.00    +0.144 HD
ATOM     28  H   UNL     1      -7.787   2.110   4.010  0.00  0.00    +0.144 HD
ENDROOT
BRANCH   1  33
ATOM     29  C   UNL     1       2.122  -0.125  -0.395  0.00  0.00    +0.044 C 
ATOM     30  C   UNL     1       0.942   0.806  -0.282  0.00  0.00    -0.050 A 
ATOM     31  C   UNL     1      -0.343   0.297  -0.282  0.00  0.00    +0.003 A 
ATOM     32  C   UNL     1      -1.425   1.151  -0.184  0.00  0.00    +0.005 A 
ATOM     33  C   UNL     1      -1.222   2.514  -0.076  0.00  0.00    -0.035 A 
ATOM     34  C   UNL     1       0.063   3.023  -0.076  0.00  0.00    +0.005 A 
ATOM     35  C   UNL     1       1.145   2.169  -0.179  0.00  0.00    +0.003 A 
ENDBRANCH   1  33
BRANCH   2  36
ATOM     36  C   UNL     1      -2.352   3.324   2.597  0.00  0.00    +0.099 C 
ATOM     37  N   UNL     1      -1.780   3.429   3.573  0.00  0.00    -0.191 NA
ENDBRANCH   2  36
TORSDOF 2
