REMARK  Name = ZINC67028884
REMARK  7 active torsions:
REMARK  status: ('A' for Active; 'I' for Inactive)
REMARK    1  A    between atoms: C_1  and  C_2
REMARK    2  A    between atoms: C_2  and  C_3
REMARK    3  A    between atoms: C_5  and  C_8
REMARK    4  A    between atoms: C_10  and  C_17
REMARK    5  A    between atoms: C_11  and  C_16
REMARK    6  A    between atoms: N_19  and  C_20
REMARK    7  A    between atoms: N_19  and  C_21
REMARK                            x       y       z     vdW  Elec       q    Type
REMARK                         _______ _______ _______ _____ _____    ______ ____
ROOT
ATOM      1  C   UNL     1      -4.331  -1.680  -2.216  0.00  0.00    +0.158 C 
ATOM      2  C   UNL     1      -4.447  -0.335  -2.904  0.00  0.00    +0.057 C 
ATOM      3  C   UNL     1      -5.670   0.232  -2.973  0.00  0.00    +0.017 C 
ATOM      4  N   UNL     1      -6.765  -0.387  -2.440  0.00  0.00    -0.300 N 
ATOM      5  C   UNL     1      -6.720  -1.574  -1.823  0.00  0.00    +0.135 C 
ATOM      6  S   UNL     1      -8.170  -2.239  -1.200  0.00  0.00    -0.019 S 
ATOM      7  N   UNL     1      -5.571  -2.262  -1.675  0.00  0.00    -0.314 N 
ATOM      8  C   UNL     1      -5.830   1.570  -3.647  0.00  0.00    +0.061 C 
ATOM      9  H   UNL     1      -7.624   0.059  -2.514  0.00  0.00    +0.154 HD
ATOM     10  H   UNL     1      -5.562  -3.120  -1.224  0.00  0.00    +0.149 HD
ENDROOT
BRANCH   1  13
ATOM     11  C   UNL     1      -1.247  -1.071  -0.301  0.00  0.00    +0.078 A 
ATOM     12  N   UNL     1      -2.096  -1.194  -1.291  0.00  0.00    -0.247 NA
ATOM     13  C   UNL     1      -3.351  -1.538  -1.080  0.00  0.00    +0.074 A 
ATOM     14  C   UNL     1      -3.720  -1.758   0.208  0.00  0.00    +0.072 A 
ATOM     15  S   UNL     1      -2.176  -1.450   1.050  0.00  0.00    -0.080 S 
BRANCH  11  17
ATOM     16  C   UNL     1       0.344   0.829  -0.237  0.00  0.00    +0.011 C 
ATOM     17  C   UNL     1       0.209  -0.690  -0.359  0.00  0.00    +0.059 C 
ENDBRANCH  11  17
ENDBRANCH   1  13
BRANCH   2  18
ATOM     18  C   UNL     1      -3.311   0.306  -3.455  0.00  0.00    +0.250 C 
ATOM     19  O   UNL     1      -2.553   0.928  -2.733  0.00  0.00    -0.270 OA
ATOM     20  N   UNL     1      -3.069   0.228  -4.778  0.00  0.00    -0.271 N 
ATOM     21  C   UNL     1      -3.928  -0.597  -5.632  0.00  0.00    +0.138 C 
BRANCH  20  22
ATOM     22  C   UNL     1      -1.999   0.934  -5.336  0.00  0.00    +0.036 A 
ATOM     23  C   UNL     1      -1.096   1.595  -4.513  0.00  0.00    +0.023 A 
ATOM     24  C   UNL     1      -0.040   2.291  -5.067  0.00  0.00    +0.002 A 
ATOM     25  C   UNL     1       0.119   2.331  -6.440  0.00  0.00    +0.000 A 
ATOM     26  C   UNL     1      -0.778   1.675  -7.263  0.00  0.00    +0.002 A 
ATOM     27  C   UNL     1      -1.833   0.971  -6.715  0.00  0.00    +0.023 A 
ENDBRANCH  20  22
ENDBRANCH   2  18
TORSDOF 4
