REMARK  Name = ZINC16569340
REMARK  10 active torsions:
REMARK  status: ('A' for Active; 'I' for Inactive)
REMARK    1  A    between atoms: C_1  and  C_2
REMARK    2  A    between atoms: C_2  and  C_3
REMARK    3  A    between atoms: C_3  and  C_4
REMARK    4  A    between atoms: C_4  and  N_5
REMARK    5  A    between atoms: N_5  and  C_6
REMARK    6  A    between atoms: C_6  and  C_7
REMARK    7  A    between atoms: C_21  and  C_23
REMARK    8  A    between atoms: C_29  and  C_31
REMARK    9  A    between atoms: C_31  and  O_32
REMARK   10  A    between atoms: O_32  and  C_33
REMARK                            x       y       z     vdW  Elec       q    Type
REMARK                         _______ _______ _______ _____ _____    ______ ____
ROOT
ATOM      1  C   UNL     1      -1.579   4.263  -1.340  0.00  0.00    +0.238 C 
ATOM      2  O   UNL     1      -2.659   3.804  -1.648  0.00  0.00    -0.273 OA
ATOM      3  N   UNL     1      -0.746   3.556  -0.552  0.00  0.00    -0.255 N 
ATOM      4  C   UNL     1      -1.163   2.330  -0.015  0.00  0.00    +0.061 A 
ATOM      5  C   UNL     1      -2.096   1.551  -0.680  0.00  0.00    +0.025 A 
ATOM      6  C   UNL     1      -2.517   0.356  -0.128  0.00  0.00    +0.002 A 
ATOM      7  C   UNL     1      -2.011  -0.071   1.087  0.00  0.00    +0.002 A 
ATOM      8  C   UNL     1      -1.074   0.696   1.756  0.00  0.00    +0.028 A 
ATOM      9  C   UNL     1      -0.647   1.890   1.208  0.00  0.00    +0.068 A 
ATOM     10  N   UNL     1       0.307   2.697   1.845  0.00  0.00    -0.316 N 
ATOM     11  C   UNL     1       0.793   2.644   3.108  0.00  0.00    +0.092 A 
ATOM     12  C   UNL     1       1.691   3.644   3.256  0.00  0.00    +0.020 A 
ATOM     13  C   UNL     1       1.762   4.338   2.028  0.00  0.00    +0.025 A 
ATOM     14  C   UNL     1       0.914   3.743   1.183  0.00  0.00    +0.049 A 
ATOM     15  C   UNL     1       0.603   4.070  -0.257  0.00  0.00    +0.159 C 
ENDROOT
BRANCH  15  16
ATOM     16  C   UNL     1       1.612   3.409  -1.161  0.00  0.00    -0.021 A 
ATOM     17  C   UNL     1       1.486   2.069  -1.473  0.00  0.00    +0.006 A 
ATOM     18  C   UNL     1       2.409   1.463  -2.305  0.00  0.00    +0.000 A 
ATOM     19  C   UNL     1       3.463   2.196  -2.817  0.00  0.00    +0.000 A 
ATOM     20  C   UNL     1       3.592   3.536  -2.501  0.00  0.00    +0.000 A 
ATOM     21  C   UNL     1       2.666   4.142  -1.672  0.00  0.00    +0.006 A 
ENDBRANCH  15  16
BRANCH   1  22
ATOM     22  C   UNL     1      -1.170   5.625  -1.839  0.00  0.00    +0.204 C 
BRANCH  22  23
ATOM     23  N   UNL     1      -2.282   6.230  -2.576  0.00  0.00    -0.290 N 
ATOM     24  C   UNL     1      -3.187   6.988  -1.927  0.00  0.00    +0.254 C 
ATOM     25  O   UNL     1      -3.082   7.170  -0.733  0.00  0.00    -0.272 OA
BRANCH  23  26
ATOM     26  C   UNL     1      -2.409   6.010  -4.019  0.00  0.00    +0.108 C 
BRANCH  26  27
ATOM     27  C   UNL     1      -3.256   4.762  -4.272  0.00  0.00    +0.019 C 
BRANCH  27  29
ATOM     28  C   UNL     1      -4.236   3.283  -6.032  0.00  0.00    +0.004 C 
ATOM     29  C   UNL     1      -3.389   4.532  -5.779  0.00  0.00    -0.002 C 
ENDBRANCH  27  29
ENDBRANCH  26  27
ENDBRANCH  23  26
BRANCH  24  30
ATOM     30  C   UNL     1      -4.331   7.610  -2.686  0.00  0.00    +0.324 C 
BRANCH  30  31
ATOM     31  O   UNL     1      -5.148   8.361  -1.786  0.00  0.00    -0.483 OA
BRANCH  31  32
ATOM     32  C   UNL     1      -6.231   8.991  -2.313  0.00  0.00    +0.121 A 
ATOM     33  C   UNL     1      -6.498   8.892  -3.671  0.00  0.00    +0.047 A 
ATOM     34  C   UNL     1      -7.602   9.529  -4.205  0.00  0.00    +0.023 A 
ATOM     35  C   UNL     1      -8.435  10.273  -3.388  0.00  0.00    +0.041 A 
ATOM     36  C   UNL     1      -8.167  10.377  -2.034  0.00  0.00    +0.023 A 
ATOM     37  C   UNL     1      -7.067   9.737  -1.496  0.00  0.00    +0.047 A 
ATOM     38 CL   UNL     1      -9.818  11.077  -4.062  0.00  0.00    -0.084 Cl
ENDBRANCH  31  32
ENDBRANCH  30  31
ENDBRANCH  24  30
ENDBRANCH  22  23
ENDBRANCH   1  22
TORSDOF 9
