REMARK  Name = ZINC13778992
REMARK  12 active torsions:
REMARK  status: ('A' for Active; 'I' for Inactive)
REMARK    1  A    between atoms: C_1  and  C_2
REMARK    2  A    between atoms: C_2  and  C_3
REMARK    3  A    between atoms: C_3  and  O_4
REMARK    4  A    between atoms: O_4  and  C_5
REMARK    5  A    between atoms: C_8  and  C_14
REMARK    6  A    between atoms: C_10  and  O_11
REMARK    7  A    between atoms: O_11  and  C_12
REMARK    8  A    between atoms: C_12  and  C_13
REMARK    9  A    between atoms: N_22  and  C_25
REMARK   10  A    between atoms: C_28  and  C_31
REMARK   11  A    between atoms: C_31  and  C_32
REMARK   12  A    between atoms: N_34  and  C_35
REMARK                            x       y       z     vdW  Elec       q    Type
REMARK                         _______ _______ _______ _____ _____    ______ ____
ROOT
ATOM      1  C   UNL     1       3.327  -4.432   5.568  0.00  0.00    +0.157 C 
ATOM      2  C   UNL     1       4.860  -4.412   5.374  0.00  0.00    +0.145 C 
ATOM      3  C   UNL     1       5.317  -3.197   6.226  0.00  0.00    +0.249 C 
ATOM      4  C   UNL     1       5.882  -2.244   5.196  0.00  0.00    +0.259 C 
ATOM      5  O   UNL     1       6.378  -1.164   5.437  0.00  0.00    -0.272 OA
ATOM      6  N   UNL     1       5.749  -2.778   3.976  0.00  0.00    -0.208 N 
ATOM      7  C   UNL     1       5.181  -4.008   3.954  0.00  0.00    +0.235 C 
ATOM      8  O   UNL     1       4.959  -4.678   2.968  0.00  0.00    -0.274 OA
ATOM      9  O   UNL     1       4.113  -2.642   6.786  0.00  0.00    -0.257 OA
ATOM     10  N   UNL     1       3.145  -3.689   6.839  0.00  0.00    -0.244 N 
ENDROOT
BRANCH   1  14
ATOM     11  C   UNL     1       1.367  -2.415   2.346  0.00  0.00    +0.162 A 
ATOM     12  C   UNL     1       1.980  -1.686   3.353  0.00  0.00    +0.050 A 
ATOM     13  C   UNL     1       2.612  -2.341   4.393  0.00  0.00    +0.009 A 
ATOM     14  C   UNL     1       2.636  -3.723   4.432  0.00  0.00    -0.018 A 
ATOM     15  C   UNL     1       2.027  -4.456   3.430  0.00  0.00    +0.055 A 
ATOM     16  C   UNL     1       1.386  -3.806   2.388  0.00  0.00    +0.162 A 
BRANCH  11  17
ATOM     17  O   UNL     1       0.745  -1.772   1.322  0.00  0.00    -0.488 OA
BRANCH  17  18
ATOM     18  C   UNL     1       0.766  -0.344   1.344  0.00  0.00    +0.229 C 
BRANCH  18  20
ATOM     19  C   UNL     1       0.043   1.726   0.146  0.00  0.00    +0.007 C 
ATOM     20  C   UNL     1       0.021   0.197   0.122  0.00  0.00    +0.038 C 
ENDBRANCH  18  20
ENDBRANCH  17  18
ENDBRANCH  11  17
BRANCH  16  21
ATOM     21  O   UNL     1       0.781  -4.525   1.405  0.00  0.00    -0.489 OA
BRANCH  21  22
ATOM     22  C   UNL     1       0.840  -5.949   1.513  0.00  0.00    +0.226 C 
ATOM     23  C   UNL     1       0.111  -6.581   0.326  0.00  0.00    +0.048 C 
ENDBRANCH  21  22
ENDBRANCH  16  21
ENDBRANCH   1  14
BRANCH   6  24
ATOM     24  C   UNL     1       6.170  -2.122   2.811  0.00  0.00    +0.044 A 
ATOM     25  C   UNL     1       7.226  -2.633   2.068  0.00  0.00    +0.024 A 
ATOM     26  C   UNL     1       7.638  -1.984   0.920  0.00  0.00    +0.005 A 
ATOM     27  C   UNL     1       7.002  -0.827   0.511  0.00  0.00    -0.048 A 
ATOM     28  C   UNL     1       5.950  -0.316   1.250  0.00  0.00    +0.005 A 
ATOM     29  C   UNL     1       5.529  -0.963   2.395  0.00  0.00    +0.024 A 
BRANCH  27  30
ATOM     30  C   UNL     1       7.455  -0.122  -0.741  0.00  0.00    +0.032 C 
ATOM     31  C   UNL     1       6.681  -0.668  -1.942  0.00  0.00    +0.009 C 
ENDBRANCH  27  30
ENDBRANCH   6  24
BRANCH  10  32
ATOM     32  C   UNL     1       2.238  -3.962   7.866  0.00  0.00    +0.065 A 
ATOM     33  C   UNL     1       1.372  -5.043   7.761  0.00  0.00    +0.028 A 
ATOM     34  C   UNL     1       0.477  -5.310   8.778  0.00  0.00    +0.002 A 
ATOM     35  C   UNL     1       0.441  -4.502   9.900  0.00  0.00    +0.000 A 
ATOM     36  C   UNL     1       1.301  -3.425  10.007  0.00  0.00    +0.002 A 
ATOM     37  C   UNL     1       2.203  -3.156   8.996  0.00  0.00    +0.028 A 
ENDBRANCH  10  32
TORSDOF 9
