REMARK  Name = ZINC13110649
REMARK  3 active torsions:
REMARK  status: ('A' for Active; 'I' for Inactive)
REMARK    1  A    between atoms: C_4  and  N_11
REMARK    2  A    between atoms: C_5  and  C_7
REMARK    3  A    between atoms: N_14  and  C_15
REMARK                            x       y       z     vdW  Elec       q    Type
REMARK                         _______ _______ _______ _____ _____    ______ ____
ROOT
ATOM      1  N   UNL     1       3.510  -0.505  -0.061  0.00  0.00    -0.326 N 
ATOM      2  C   UNL     1       4.756   0.054  -0.113  0.00  0.00    +0.203 C 
ATOM      3  N   UNL     1       4.897   1.380  -0.406  0.00  0.00    -0.369 N 
ATOM      4  N   UNL     1       5.824  -0.689   0.121  0.00  0.00    -0.179 NA
ATOM      5  H   UNL     1       3.321  -1.211   0.577  0.00  0.00    +0.169 HD
ATOM      6  H   UNL     1       4.157   1.990  -0.264  0.00  0.00    +0.159 HD
ATOM      7  H   UNL     1       5.739   1.712  -0.756  0.00  0.00    +0.159 HD
ENDROOT
BRANCH   4   8
ATOM      8  C   UNL     1       5.703  -2.021   0.239  0.00  0.00    +0.234 A 
ATOM      9  N   UNL     1       6.786  -2.765   0.619  0.00  0.00    -0.291 N 
ATOM     10  H   UNL     1       7.636  -2.334   0.800  0.00  0.00    +0.172 HD
ATOM     11  C   UNL     1       6.664  -4.104   0.738  0.00  0.00    +0.256 A 
ATOM     12  O   UNL     1       7.619  -4.786   1.075  0.00  0.00    -0.267 OA
ATOM     13  C   UNL     1       5.420  -4.701   0.468  0.00  0.00    +0.038 A 
ATOM     14  C   UNL     1       4.370  -3.912   0.093  0.00  0.00    +0.053 A 
ATOM     15  N   UNL     1       4.535  -2.594  -0.007  0.00  0.00    -0.217 NA
ATOM     16  C   UNL     1       3.143  -4.765  -0.143  0.00  0.00    +0.056 C 
ATOM     17  C   UNL     1       3.676  -6.207  -0.290  0.00  0.00    +0.011 C 
ATOM     18  C   UNL     1       4.992  -6.150   0.516  0.00  0.00    +0.043 C 
ENDBRANCH   4   8
BRANCH   1  22
ATOM     19  C   UNL     1       0.523   0.819  -2.646  0.00  0.00    +0.001 A 
ATOM     20  C   UNL     1       1.838   1.192  -2.861  0.00  0.00    +0.002 A 
ATOM     21  C   UNL     1       2.830   0.755  -2.006  0.00  0.00    +0.026 A 
ATOM     22  C   UNL     1       2.507  -0.061  -0.929  0.00  0.00    +0.054 A 
ATOM     23  C   UNL     1       1.186  -0.434  -0.716  0.00  0.00    +0.078 A 
ATOM     24  C   UNL     1       0.199   0.007  -1.575  0.00  0.00    +0.014 A 
BRANCH  23  25
ATOM     25  C   UNL     1       0.831  -1.319   0.451  0.00  0.00    +0.419 C 
ATOM     26  F   UNL     1      -0.548  -1.554   0.455  0.00  0.00    -0.166 F 
ATOM     27  F   UNL     1       1.512  -2.536   0.337  0.00  0.00    -0.166 F 
ATOM     28  F   UNL     1       1.200  -0.688   1.644  0.00  0.00    -0.166 F 
ENDBRANCH  23  25
ENDBRANCH   1  22
TORSDOF 3
