REMARK  Name = ZINC43213473
REMARK  14 active torsions:
REMARK  status: ('A' for Active; 'I' for Inactive)
REMARK    1  A    between atoms: C_1  and  C_2
REMARK    2  A    between atoms: C_2  and  C_3
REMARK    3  A    between atoms: C_2  and  C_4
REMARK    4  A    between atoms: C_4  and  C_5
REMARK    5  A    between atoms: C_5  and  C_7
REMARK    6  A    between atoms: C_5  and  N_36
REMARK    7  A    between atoms: C_9  and  C_12
REMARK    8  A    between atoms: N_14  and  C_15
REMARK    9  A    between atoms: C_15  and  C_16
REMARK   10  A    between atoms: C_16  and  C_35
REMARK   11  A    between atoms: C_20  and  C_34
REMARK   12  A    between atoms: C_29  and  C_31
REMARK   13  A    between atoms: C_31  and  C_32
REMARK   14  A    between atoms: C_31  and  C_33
REMARK                            x       y       z     vdW  Elec       q    Type
REMARK                         _______ _______ _______ _____ _____    ______ ____
ROOT
ATOM      1  C   UNL     1      -6.247  -5.864   3.845  0.00  0.00    +0.111 C 
ENDROOT
BRANCH   1   2
ATOM      2  C   UNL     1      -5.462  -6.070   5.140  0.00  0.00    -0.013 C 
ATOM      3  C   UNL     1      -4.596  -4.842   5.431  0.00  0.00    +0.008 C 
ATOM      4  C   UNL     1      -5.420  -3.678   5.967  0.00  0.00    +0.001 C 
ATOM      5  C   UNL     1      -6.146  -4.097   7.247  0.00  0.00    +0.011 C 
ATOM      6  C   UNL     1      -7.099  -5.247   6.937  0.00  0.00    -0.003 C 
ATOM      7  C   UNL     1      -6.351  -6.410   6.314  0.00  0.00    +0.007 C 
ATOM      8  C   UNL     1      -7.329  -7.549   6.031  0.00  0.00    +0.009 C 
ATOM      9  C   UNL     1      -7.767  -8.137   7.373  0.00  0.00    +0.036 C 
ATOM     10  C   UNL     1      -8.063  -7.068   8.390  0.00  0.00    -0.043 A 
ATOM     11  C   UNL     1      -7.760  -5.736   8.209  0.00  0.00    -0.038 A 
ATOM     12  C   UNL     1      -8.063  -4.812   9.194  0.00  0.00    +0.005 A 
ATOM     13  C   UNL     1      -8.668  -5.215  10.369  0.00  0.00    +0.004 A 
ATOM     14  C   UNL     1      -8.974  -6.550  10.557  0.00  0.00    -0.045 A 
ATOM     15  C   UNL     1      -8.674  -7.468   9.574  0.00  0.00    +0.007 A 
ATOM     16  C   UNL     1      -8.220  -4.727   6.036  0.00  0.00    +0.016 C 
ATOM     17  C   UNL     1      -4.491  -7.252   4.907  0.00  0.00    +0.013 C 
BRANCH  14  18
ATOM     18  C   UNL     1      -9.633  -7.000  11.836  0.00  0.00    +0.013 C 
ATOM     19  C   UNL     1      -8.730  -6.657  13.023  0.00  0.00    +0.012 C 
ATOM     20  C   UNL     1     -10.977  -6.287  11.995  0.00  0.00    +0.012 C 
ENDBRANCH  14  18
ENDBRANCH   1   2
BRANCH   1  23
ATOM     21  C   UNL     1      -5.782  -5.459   1.488  0.00  0.00    +0.266 C 
ATOM     22  O   UNL     1      -6.981  -5.444   1.284  0.00  0.00    -0.268 OA
ATOM     23  N   UNL     1      -5.313  -5.662   2.735  0.00  0.00    -0.309 N 
ATOM     24  H   UNL     1      -4.356  -5.673   2.897  0.00  0.00    +0.149 HD
BRANCH  21  27
ATOM     25  C   UNL     1      -3.004  -5.038  -0.741  0.00  0.00    +0.182 A 
ATOM     26  N   UNL     1      -3.483  -5.246   0.448  0.00  0.00    -0.210 NA
ATOM     27  C   UNL     1      -4.842  -5.255   0.370  0.00  0.00    +0.163 A 
ATOM     28  C   UNL     1      -5.169  -5.041  -0.933  0.00  0.00    +0.230 A 
ATOM     29  O   UNL     1      -4.017  -4.903  -1.609  0.00  0.00    -0.449 OA
BRANCH  25  30
ATOM     30  C   UNL     1      -1.540  -4.954  -1.090  0.00  0.00    +0.013 C 
BRANCH  30  31
ATOM     31  N   UNL     1      -1.282  -5.733  -2.308  0.00  0.00    +0.386 N 
ATOM     32  H   UNL     1      -0.302  -5.677  -2.541  0.00  0.00    -0.089 HD
ATOM     33  H   UNL     1      -1.536  -6.697  -2.151  0.00  0.00    -0.089 HD
ATOM     34  H   UNL     1      -1.830  -5.361  -3.068  0.00  0.00    -0.089 HD
ENDBRANCH  30  31
BRANCH  30  35
ATOM     35  C   UNL     1      -1.155  -3.493  -1.328  0.00  0.00    -0.004 C 
BRANCH  35  37
ATOM     36  C   UNL     1       0.721  -1.953  -1.920  0.00  0.00    +0.007 C 
ATOM     37  C   UNL     1       0.354  -3.394  -1.559  0.00  0.00    -0.018 C 
ATOM     38  C   UNL     1       1.093  -3.804  -0.283  0.00  0.00    +0.007 C 
ENDBRANCH  35  37
ENDBRANCH  30  35
ENDBRANCH  25  30
ENDBRANCH  21  27
ENDBRANCH   1  23
TORSDOF 8
