REMARK  Name = ZINC09805515
REMARK  7 active torsions:
REMARK  status: ('A' for Active; 'I' for Inactive)
REMARK    1  A    between atoms: C_1  and  C_2
REMARK    2  A    between atoms: C_2  and  C_3
REMARK    3  A    between atoms: C_3  and  C_5
REMARK    4  A    between atoms: C_3  and  C_11
REMARK    5  A    between atoms: C_17  and  C_18
REMARK    6  A    between atoms: C_21  and  C_23
REMARK    7  A    between atoms: C_26  and  C_29
REMARK                            x       y       z     vdW  Elec       q    Type
REMARK                         _______ _______ _______ _____ _____    ______ ____
ROOT
ATOM      1  C   UNL     1      -0.458   1.317  -0.996  0.00  0.00    +0.107 C 
ATOM      2  N   UNL     1       0.749   1.763  -0.798  0.00  0.00    -0.169 NA
ATOM      3  N   UNL     1       1.833   0.911  -0.771  0.00  0.00    -0.152 N 
ATOM      4  C   UNL     1       3.165   1.283  -0.495  0.00  0.00    +0.153 C 
ATOM      5  N   UNL     1       3.486   2.386   0.130  0.00  0.00    -0.283 NA
ATOM      6  C   UNL     1       4.171   0.302  -0.985  0.00  0.00    +0.084 C 
ATOM      7  C   UNL     1       5.423   0.698  -1.425  0.00  0.00    +0.063 C 
ATOM      8  C   UNL     1       3.761  -1.122  -0.976  0.00  0.00    +0.273 C 
ATOM      9  O   UNL     1       4.589  -2.014  -0.885  0.00  0.00    -0.268 OA
ATOM     10  N   UNL     1       2.446  -1.401  -1.073  0.00  0.00    -0.152 NA
ATOM     11  C   UNL     1       1.578  -0.422  -1.012  0.00  0.00    +0.181 C 
ATOM     12  S   UNL     1      -0.186  -0.439  -1.191  0.00  0.00    -0.037 S 
ATOM     13  H   UNL     1       4.409   2.550   0.382  0.00  0.00    +0.188 HD
ENDROOT
BRANCH   7  14
ATOM     14  C   UNL     1       5.699   2.063  -1.625  0.00  0.00    +0.129 A 
ATOM     15  C   UNL     1       6.938   2.606  -1.931  0.00  0.00    +0.050 A 
ATOM     16  C   UNL     1       6.758   3.984  -2.042  0.00  0.00    +0.050 A 
ATOM     17  C   UNL     1       5.424   4.237  -1.800  0.00  0.00    +0.136 A 
ATOM     18  O   UNL     1       4.803   3.070  -1.557  0.00  0.00    -0.455 OA
BRANCH  17  19
ATOM     19  C   UNL     1       4.784   5.566  -1.812  0.00  0.00    +0.017 A 
ATOM     20  C   UNL     1       5.547   6.707  -2.080  0.00  0.00    +0.012 A 
ATOM     21  C   UNL     1       4.951   7.942  -2.096  0.00  0.00    +0.016 A 
ATOM     22  C   UNL     1       3.583   8.061  -1.833  0.00  0.00    +0.063 A 
ATOM     23  C   UNL     1       2.821   6.921  -1.560  0.00  0.00    +0.016 A 
ATOM     24  C   UNL     1       3.415   5.686  -1.549  0.00  0.00    +0.012 A 
BRANCH  22  25
ATOM     25  C   UNL     1       2.942   9.391  -1.845  0.00  0.00    +0.387 C 
ATOM     26  O   UNL     1       1.754   9.495  -1.617  0.00  0.00    -0.241 OA
ATOM     27  O   UNL     1       3.676  10.490  -2.108  0.00  0.00    -0.241 OA
ENDBRANCH  22  25
ENDBRANCH  17  19
ENDBRANCH   7  14
BRANCH   1  28
ATOM     28  C   UNL     1      -1.753   2.086  -1.053  0.00  0.00    +0.076 C 
BRANCH  28  29
ATOM     29  C   UNL     1      -1.473   3.514  -1.444  0.00  0.00    -0.038 A 
ATOM     30  C   UNL     1      -0.658   4.300  -0.652  0.00  0.00    +0.004 A 
ATOM     31  C   UNL     1      -0.397   5.609  -1.013  0.00  0.00    +0.000 A 
ATOM     32  C   UNL     1      -0.959   6.134  -2.161  0.00  0.00    +0.000 A 
ATOM     33  C   UNL     1      -1.778   5.349  -2.951  0.00  0.00    +0.000 A 
ATOM     34  C   UNL     1      -2.035   4.039  -2.592  0.00  0.00    +0.004 A 
ENDBRANCH  28  29
BRANCH  28  36
ATOM     35  C   UNL     1      -3.796   2.728   0.233  0.00  0.00    +0.005 C 
ATOM     36  C   UNL     1      -2.425   2.056   0.321  0.00  0.00    +0.011 C 
ENDBRANCH  28  36
ENDBRANCH   1  28
TORSDOF 6
