REMARK  Name = ZINC31862953
REMARK  6 active torsions:
REMARK  status: ('A' for Active; 'I' for Inactive)
REMARK    1  A    between atoms: C_1  and  C_2
REMARK    2  A    between atoms: C_4  and  N_23
REMARK    3  A    between atoms: C_8  and  C_11
REMARK    4  A    between atoms: C_11  and  C_13
REMARK    5  A    between atoms: C_11  and  O_14
REMARK    6  A    between atoms: O_14  and  C_15
REMARK                            x       y       z     vdW  Elec       q    Type
REMARK                         _______ _______ _______ _____ _____    ______ ____
ROOT
ATOM      1  C   UNL     1       1.800   4.803   5.276  0.00  0.00    +0.045 C 
ATOM      2  C   UNL     1       0.913   4.986   4.072  0.00  0.00    -0.032 A 
ATOM      3  C   UNL     1       0.542   6.279   3.669  0.00  0.00    +0.031 A 
ATOM      4  C   UNL     1      -0.263   6.443   2.576  0.00  0.00    +0.070 A 
ATOM      5  C   UNL     1      -0.707   5.300   1.872  0.00  0.00    +0.182 A 
ATOM      6  N   UNL     1      -1.472   5.128   0.807  0.00  0.00    -0.127 NA
ATOM      7  N   UNL     1      -1.581   3.870   0.556  0.00  0.00    -0.130 NA
ATOM      8  C   UNL     1      -0.902   3.173   1.431  0.00  0.00    +0.178 A 
ATOM      9  N   UNL     1      -0.330   4.051   2.298  0.00  0.00    -0.282 N 
ATOM     10  C   UNL     1       0.479   3.906   3.389  0.00  0.00    +0.098 A 
ENDROOT
BRANCH   4  11
ATOM     11  N   UNL     1      -0.641   7.721   2.161  0.00  0.00    -0.355 N 
ATOM     12  H   UNL     1      -1.289   7.843   1.280  0.00  0.00    +0.142 HD
ATOM     13  H   UNL     1      -0.290   8.605   2.714  0.00  0.00    +0.142 HD
ENDBRANCH   4  11
BRANCH   8  14
ATOM     14  C   UNL     1      -0.782   1.672   1.474  0.00  0.00    +0.238 C 
ATOM     15  C   UNL     1       0.166   1.204   0.368  0.00  0.00    +0.060 C 
BRANCH  14  16
ATOM     16  O   UNL     1      -2.070   1.085   1.277  0.00  0.00    -0.480 OA
BRANCH  16  17
ATOM     17  C   UNL     1      -2.264  -0.162   1.784  0.00  0.00    +0.140 A 
ATOM     18  C   UNL     1      -1.205  -0.851   2.356  0.00  0.00    +0.048 A 
ATOM     19  C   UNL     1      -1.405  -2.116   2.875  0.00  0.00    +0.023 A 
ATOM     20  C   UNL     1      -2.659  -2.699   2.816  0.00  0.00    +0.043 A 
ATOM     21  C   UNL     1      -3.715  -2.016   2.241  0.00  0.00    +0.043 A 
ATOM     22  C   UNL     1      -3.520  -0.748   1.725  0.00  0.00    +0.084 A 
ATOM     23 CL   UNL     1      -4.846   0.110   1.003  0.00  0.00    -0.080 Cl
ATOM     24 CL   UNL     1      -2.905  -4.291   3.463  0.00  0.00    -0.083 Cl
ENDBRANCH  16  17
ENDBRANCH  14  16
ENDBRANCH   8  14
TORSDOF 4
