REMARK  Name = ZINC35271272
REMARK  14 active torsions:
REMARK  status: ('A' for Active; 'I' for Inactive)
REMARK    1  A    between atoms: C_1  and  C_2
REMARK    2  A    between atoms: C_3  and  C_4
REMARK    3  A    between atoms: C_3  and  C_5
REMARK    4  A    between atoms: C_5  and  O_7
REMARK    5  A    between atoms: O_7  and  C_8
REMARK    6  A    between atoms: C_10  and  O_39
REMARK    7  A    between atoms: C_12  and  O_38
REMARK    8  A    between atoms: C_14  and  C_37
REMARK    9  A    between atoms: C_17  and  O_19
REMARK   10  A    between atoms: O_19  and  C_20
REMARK   11  A    between atoms: C_20  and  C_36
REMARK   12  A    between atoms: C_29  and  C_33
REMARK   13  A    between atoms: C_33  and  C_34
REMARK   14  A    between atoms: C_33  and  C_35
REMARK                            x       y       z     vdW  Elec       q    Type
REMARK                         _______ _______ _______ _____ _____    ______ ____
ROOT
ATOM      1  C   UNL     1       2.378   0.216  -4.230  0.00  0.00    +0.263 C 
ATOM      2  C   UNL     1       2.320  -0.540  -5.561  0.00  0.00    +0.191 C 
ATOM      3  C   UNL     1       3.160  -1.816  -5.448  0.00  0.00    +0.175 C 
ATOM      4  C   UNL     1       4.592  -1.442  -5.055  0.00  0.00    +0.149 C 
ATOM      5  O   UNL     1       4.571  -0.715  -3.825  0.00  0.00    -0.342 OA
ATOM      6  C   UNL     1       3.840   0.512  -3.883  0.00  0.00    +0.295 C 
ATOM      7  C   UNL     1       5.422  -2.715  -4.881  0.00  0.00    +0.041 C 
ENDROOT
BRANCH   3   8
ATOM      8  O   UNL     1       2.598  -2.672  -4.452  0.00  0.00    -0.387 OA
ATOM      9  H   UNL     1       3.080  -3.500  -4.327  0.00  0.00    +0.210 HD
ENDBRANCH   3   8
BRANCH   2  10
ATOM     10  O   UNL     1       0.965  -0.883  -5.858  0.00  0.00    -0.385 OA
ATOM     11  H   UNL     1       0.854  -1.365  -6.689  0.00  0.00    +0.210 HD
ENDBRANCH   2  10
BRANCH   1  12
ATOM     12  O   UNL     1       1.796  -0.586  -3.200  0.00  0.00    -0.450 OA
BRANCH  12  13
ATOM     13  C   UNL     1       1.204   0.066  -2.179  0.00  0.00    +0.335 C 
ATOM     14  O   UNL     1       1.183   1.281  -2.164  0.00  0.00    -0.245 OA
BRANCH  13  17
ATOM     15  C   UNL     1      -0.027   1.457  -0.058  0.00  0.00    +0.036 C 
ATOM     16  C   UNL     1      -0.001  -0.050  -0.077  0.00  0.00    -0.020 C 
ATOM     17  C   UNL     1       0.584  -0.693  -1.085  0.00  0.00    +0.029 C 
ATOM     18  C   UNL     1       0.610  -2.200  -1.103  0.00  0.00    +0.051 C 
ENDBRANCH  13  17
ENDBRANCH  12  13
ENDBRANCH   1  12
BRANCH   6  19
ATOM     19  O   UNL     1       3.904   1.169  -2.615  0.00  0.00    -0.337 OA
BRANCH  19  20
ATOM     20  C   UNL     1       5.195   1.692  -2.297  0.00  0.00    +0.088 C 
ATOM     21  C   UNL     1       5.147   2.369  -0.925  0.00  0.00    +0.047 C 
ATOM     22  C   UNL     1       6.432   3.169  -0.706  0.00  0.00    +0.082 C 
ATOM     23  C   UNL     1       6.724   3.998  -1.930  0.00  0.00    +0.159 C 
ATOM     24  O   UNL     1       5.888   4.767  -2.356  0.00  0.00    -0.292 OA
ATOM     25  C   UNL     1       8.017   3.876  -2.604  0.00  0.00    -0.012 C 
ATOM     26  C   UNL     1       8.933   3.024  -2.141  0.00  0.00    +0.016 C 
ATOM     27  C   UNL     1       8.313   4.711  -3.823  0.00  0.00    +0.038 C 
ATOM     28  C   UNL     1       8.279   3.826  -5.070  0.00  0.00    +0.012 C 
ATOM     29  C   UNL     1       6.842   3.370  -5.333  0.00  0.00    +0.014 C 
ATOM     30  C   UNL     1       6.437   2.362  -4.289  0.00  0.00    -0.025 C 
ATOM     31  C   UNL     1       5.599   2.701  -3.341  0.00  0.00    +0.003 C 
ATOM     32  C   UNL     1       6.215   0.552  -2.267  0.00  0.00    +0.046 C 
BRANCH  29  33
ATOM     33  C   UNL     1       5.904   4.577  -5.268  0.00  0.00    -0.010 C 
ATOM     34  C   UNL     1       6.317   5.601  -6.327  0.00  0.00    +0.008 C 
ATOM     35  C   UNL     1       4.468   4.121  -5.531  0.00  0.00    +0.008 C 
ENDBRANCH  29  33
ENDBRANCH  19  20
ENDBRANCH   6  19
TORSDOF 8
