REMARK  Name = ZINC09520302
REMARK  5 active torsions:
REMARK  status: ('A' for Active; 'I' for Inactive)
REMARK    1  A    between atoms: C_3  and  C_6
REMARK    2  A    between atoms: C_9  and  C_12
REMARK    3  A    between atoms: C_19  and  C_21
REMARK    4  A    between atoms: C_21  and  S_22
REMARK    5  A    between atoms: S_22  and  C_23
REMARK                            x       y       z     vdW  Elec       q    Type
REMARK                         _______ _______ _______ _____ _____    ______ ____
ROOT
ATOM      1  C   UNL     1      -0.772   1.599   1.210  0.00  0.00    +0.075 C 
ATOM      2  N   UNL     1      -1.795   2.285   0.810  0.00  0.00    -0.180 NA
ATOM      3  N   UNL     1      -1.917   2.367  -0.576  0.00  0.00    -0.184 N 
ATOM      4  C   UNL     1      -0.810   1.622  -1.197  0.00  0.00    +0.137 C 
ATOM      5  C   UNL     1      -0.013   1.086   0.008  0.00  0.00    +0.087 C 
ATOM      6  C   UNL     1      -2.891   3.021  -1.239  0.00  0.00    +0.246 C 
ATOM      7  O   UNL     1      -2.900   3.027  -2.452  0.00  0.00    -0.273 OA
ENDROOT
BRANCH   4   8
ATOM      8  C   UNL     1       0.044   2.541  -2.032  0.00  0.00    -0.025 A 
ATOM      9  C   UNL     1       0.233   3.854  -1.641  0.00  0.00    +0.008 A 
ATOM     10  C   UNL     1       1.020   4.696  -2.403  0.00  0.00    +0.038 A 
ATOM     11  C   UNL     1       1.611   4.227  -3.564  0.00  0.00    +0.123 A 
ATOM     12  C   UNL     1       1.417   2.914  -3.957  0.00  0.00    +0.038 A 
ATOM     13  C   UNL     1       0.634   2.072  -3.191  0.00  0.00    +0.008 A 
ATOM     14  F   UNL     1       2.377   5.051  -4.312  0.00  0.00    -0.205 F 
ENDBRANCH   4   8
BRANCH   1  17
ATOM     15  C   UNL     1      -0.501   1.424   4.977  0.00  0.00    +0.008 A 
ATOM     16  C   UNL     1      -1.040   1.784   3.764  0.00  0.00    +0.017 A 
ATOM     17  C   UNL     1      -0.407   1.356   2.610  0.00  0.00    +0.035 A 
ATOM     18  S   UNL     1       0.966   0.424   3.269  0.00  0.00    -0.095 S 
ATOM     19  C   UNL     1       0.626   0.666   5.005  0.00  0.00    +0.046 A 
ENDBRANCH   1  17
BRANCH   6  20
ATOM     20  C   UNL     1      -3.968   3.746  -0.474  0.00  0.00    +0.175 C 
BRANCH  20  21
ATOM     21  S   UNL     1      -5.121   4.521  -1.640  0.00  0.00    -0.076 S 
BRANCH  21  22
ATOM     22  C   UNL     1      -6.304   5.317  -0.604  0.00  0.00    +0.198 A 
ATOM     23  N   UNL     1      -6.307   5.313   0.707  0.00  0.00    -0.120 NA
ATOM     24  N   UNL     1      -7.409   6.061   1.142  0.00  0.00    -0.109 NA
ATOM     25  C   UNL     1      -8.051   6.492   0.083  0.00  0.00    +0.237 A 
ATOM     26  N   UNL     1      -7.385   6.044  -1.027  0.00  0.00    -0.260 N 
ATOM     27  C   UNL     1      -7.844   6.351  -2.291  0.00  0.00    +0.037 A 
ATOM     28  C   UNL     1      -8.952   7.098  -2.439  0.00  0.00    +0.037 A 
ATOM     29  C   UNL     1      -9.645   7.567  -1.290  0.00  0.00    +0.256 A 
ATOM     30  O   UNL     1     -10.649   8.244  -1.420  0.00  0.00    -0.267 OA
ATOM     31  N   UNL     1      -9.193   7.262  -0.059  0.00  0.00    -0.291 N 
ATOM     32  H   UNL     1      -9.666   7.581   0.726  0.00  0.00    +0.172 HD
ATOM     33  C   UNL     1      -9.258   7.303  -3.908  0.00  0.00    +0.043 C 
ATOM     34  C   UNL     1      -8.435   6.221  -4.642  0.00  0.00    +0.011 C 
ATOM     35  C   UNL     1      -7.282   5.971  -3.646  0.00  0.00    +0.055 C 
ENDBRANCH  21  22
ENDBRANCH  20  21
ENDBRANCH   6  20
TORSDOF 5
