REMARK  Name = ZINC36017316
REMARK  16 active torsions:
REMARK  status: ('A' for Active; 'I' for Inactive)
REMARK    1  A    between atoms: C_1  and  C_2
REMARK    2  A    between atoms: C_2  and  C_3
REMARK    3  A    between atoms: C_3  and  N_4
REMARK    4  A    between atoms: N_11  and  C_14
REMARK    5  A    between atoms: C_14  and  C_15
REMARK    6  A    between atoms: C_16  and  C_35
REMARK    7  A    between atoms: C_17  and  C_25
REMARK    8  A    between atoms: N_22  and  C_23
REMARK    9  A    between atoms: C_23  and  C_24
REMARK   10  A    between atoms: C_29  and  O_33
REMARK   11  A    between atoms: C_30  and  O_31
REMARK   12  A    between atoms: O_31  and  C_32
REMARK   13  A    between atoms: O_33  and  C_34
REMARK   14  A    between atoms: C_35  and  O_37
REMARK   15  A    between atoms: O_37  and  C_38
REMARK   16  A    between atoms: C_38  and  C_39
REMARK                            x       y       z     vdW  Elec       q    Type
REMARK                         _______ _______ _______ _____ _____    ______ ____
ROOT
ATOM      1  C   UNL     1      -0.631  -7.226  -6.340  0.00  0.00    +0.010 C 
ATOM      2  C   UNL     1      -0.576  -8.305  -7.151  0.00  0.00    +0.077 C 
ATOM      3  C   UNL     1       0.678  -8.501  -7.979  0.00  0.00    +0.147 C 
ATOM      4  N   UNL     1       1.740  -7.492  -7.830  0.00  0.00    -0.288 N 
ATOM      5  C   UNL     1       1.538  -6.468  -6.978  0.00  0.00    +0.307 C 
ATOM      6  O   UNL     1       2.409  -5.630  -6.848  0.00  0.00    -0.252 OA
ATOM      7  N   UNL     1       0.406  -6.340  -6.274  0.00  0.00    -0.261 N 
ATOM      8  H   UNL     1       2.567  -7.564  -8.333  0.00  0.00    +0.151 HD
ENDROOT
BRANCH   3   9
ATOM      9  C   UNL     1       1.261  -9.845  -7.626  0.00  0.00    +0.023 A 
ATOM     10  C   UNL     1       1.977 -10.002  -6.454  0.00  0.00    +0.009 A 
ATOM     11  C   UNL     1       2.514 -11.233  -6.127  0.00  0.00    +0.004 A 
ATOM     12  C   UNL     1       2.338 -12.313  -6.972  0.00  0.00    +0.049 A 
ATOM     13  C   UNL     1       1.622 -12.163  -8.149  0.00  0.00    +0.162 A 
ATOM     14  C   UNL     1       1.076 -10.925  -8.474  0.00  0.00    +0.167 A 
BRANCH  14  15
ATOM     15  O   UNL     1       0.368 -10.773  -9.625  0.00  0.00    -0.491 OA
ATOM     16  C   UNL     1       1.101 -10.399 -10.794  0.00  0.00    +0.277 C 
ENDBRANCH  14  15
BRANCH  13  17
ATOM     17  O   UNL     1       1.448 -13.225  -8.981  0.00  0.00    -0.491 OA
ATOM     18  C   UNL     1       2.031 -14.466  -8.580  0.00  0.00    +0.277 C 
ENDBRANCH  13  17
ENDBRANCH   3   9
BRANCH   7  19
ATOM     19  C   UNL     1       0.276  -5.189  -5.378  0.00  0.00    +0.111 C 
ATOM     20  C   UNL     1       0.919  -5.517  -4.029  0.00  0.00    +0.025 C 
ENDBRANCH   7  19
BRANCH   2  21
ATOM     21  C   UNL     1      -1.652  -9.220  -7.224  0.00  0.00    +0.339 C 
ATOM     22  O   UNL     1      -2.705  -8.967  -6.670  0.00  0.00    -0.245 OA
BRANCH  21  23
ATOM     23  O   UNL     1      -1.510 -10.375  -7.909  0.00  0.00    -0.462 OA
BRANCH  23  24
ATOM     24  C   UNL     1      -2.637 -11.252  -7.941  0.00  0.00    +0.229 C 
ATOM     25  C   UNL     1      -2.289 -12.499  -8.757  0.00  0.00    +0.048 C 
ENDBRANCH  23  24
ENDBRANCH  21  23
ENDBRANCH   2  21
BRANCH   1  26
ATOM     26  C   UNL     1      -1.860  -6.993  -5.499  0.00  0.00    -0.026 C 
BRANCH  26  34
ATOM     27  N   UNL     1      -5.860  -7.078  -9.105  0.00  0.00    -0.299 N 
ATOM     28  C   UNL     1      -6.156  -6.130  -8.195  0.00  0.00    +0.302 C 
ATOM     29  O   UNL     1      -7.303  -5.984  -7.820  0.00  0.00    -0.253 OA
ATOM     30  N   UNL     1      -5.180  -5.342  -7.700  0.00  0.00    -0.287 N 
ATOM     31  C   UNL     1      -5.510  -4.397  -6.614  0.00  0.00    +0.107 C 
ATOM     32  C   UNL     1      -4.401  -4.372  -5.547  0.00  0.00    +0.000 C 
ATOM     33  C   UNL     1      -3.894  -5.778  -5.314  0.00  0.00    -0.077 C 
ATOM     34  N   UNL     1      -2.734  -6.020  -6.168  0.00  0.00    +0.384 N 
ATOM     35  C   UNL     1      -3.037  -6.507  -7.459  0.00  0.00    -0.059 C 
ATOM     36  C   UNL     1      -3.845  -5.457  -8.248  0.00  0.00    +0.091 C 
ATOM     37  H   UNL     1      -4.959  -7.148  -9.457  0.00  0.00    +0.150 HD
ATOM     38  H   UNL     1      -2.224  -5.154  -6.266  0.00  0.00    -0.081 HD
BRANCH  27  39
ATOM     39  C   UNL     1      -6.899  -8.005  -9.562  0.00  0.00    +0.105 C 
BRANCH  39  41
ATOM     40  C   UNL     1      -7.388  -9.940 -11.064  0.00  0.00    +0.005 C 
ATOM     41  C   UNL     1      -6.303  -8.973 -10.586  0.00  0.00    +0.015 C 
ENDBRANCH  39  41
ENDBRANCH  27  39
ENDBRANCH  26  34
ENDBRANCH   1  26
TORSDOF 11
