REMARK  Name = ZINC59830062
REMARK  9 active torsions:
REMARK  status: ('A' for Active; 'I' for Inactive)
REMARK    1  A    between atoms: C_2  and  C_3
REMARK    2  A    between atoms: C_3  and  N_4
REMARK    3  A    between atoms: C_6  and  C_9
REMARK    4  A    between atoms: N_10  and  N_11
REMARK    5  A    between atoms: C_15  and  S_18
REMARK    6  A    between atoms: N_16  and  N_17
REMARK    7  A    between atoms: S_18  and  C_19
REMARK    8  A    between atoms: C_19  and  C_20
REMARK    9  A    between atoms: N_22  and  C_23
REMARK                            x       y       z     vdW  Elec       q    Type
REMARK                         _______ _______ _______ _____ _____    ______ ____
ROOT
ATOM      1  N   UNL     1      -1.790  -6.593  -4.389  0.00  0.00    -0.204 N 
ATOM      2  C   UNL     1      -1.699  -6.945  -5.728  0.00  0.00    +0.254 A 
ATOM      3  N   UNL     1      -1.469  -6.127  -6.726  0.00  0.00    -0.109 NA
ATOM      4  N   UNL     1      -1.454  -6.880  -7.908  0.00  0.00    -0.119 NA
ATOM      5  C   UNL     1      -1.676  -8.134  -7.593  0.00  0.00    +0.210 A 
ATOM      6  N   UNL     1      -1.827  -8.208  -6.237  0.00  0.00    -0.211 N 
ATOM      7  H   UNL     1      -1.959  -7.273  -3.719  0.00  0.00    +0.177 HD
ENDROOT
BRANCH   6   8
ATOM      8  N   UNL     1      -2.067  -9.344  -5.517  0.00  0.00    -0.294 N 
ATOM      9  H   UNL     1      -3.058  -9.510  -5.425  0.00  0.00    +0.163 HD
ATOM     10  H   UNL     1      -1.604 -10.139  -5.930  0.00  0.00    +0.163 HD
ENDBRANCH   6   8
BRANCH   1  12
ATOM     11  C   UNL     1      -1.722  -4.924  -2.753  0.00  0.00    +0.141 C 
ATOM     12  N   UNL     1      -1.637  -5.254  -4.006  0.00  0.00    -0.187 NA
BRANCH  11  15
ATOM     13  N   UNL     1      -1.426  -1.688  -1.134  0.00  0.00    -0.267 N 
ATOM     14  C   UNL     1      -1.626  -3.020  -1.065  0.00  0.00    +0.118 A 
ATOM     15  C   UNL     1      -1.561  -3.514  -2.349  0.00  0.00    +0.032 A 
ATOM     16  C   UNL     1      -1.312  -2.421  -3.207  0.00  0.00    +0.143 A 
ATOM     17  N   UNL     1      -1.239  -1.340  -2.477  0.00  0.00    -0.179 NA
BRANCH  13  18
ATOM     18  C   UNL     1      -1.412  -0.762   0.001  0.00  0.00    +0.170 C 
BRANCH  18  20
ATOM     19  C   UNL     1      -0.146   1.325   0.006  0.00  0.00    +0.006 C 
ATOM     20  C   UNL     1      -0.121   0.015  -0.000  0.00  0.00    -0.012 C 
ENDBRANCH  18  20
ENDBRANCH  13  18
ENDBRANCH  11  15
ENDBRANCH   1  12
BRANCH   5  21
ATOM     21  S   UNL     1      -1.757  -9.486  -8.720  0.00  0.00    -0.075 S 
BRANCH  21  22
ATOM     22  C   UNL     1      -1.469  -8.725 -10.341  0.00  0.00    +0.173 C 
BRANCH  22  23
ATOM     23  C   UNL     1      -1.513  -9.786 -11.409  0.00  0.00    +0.228 C 
ATOM     24  O   UNL     1      -1.718 -10.943 -11.107  0.00  0.00    -0.275 OA
ATOM     25  N   UNL     1      -1.323  -9.451 -12.701  0.00  0.00    -0.284 N 
ATOM     26  H   UNL     1      -1.224  -8.519 -12.950  0.00  0.00    +0.155 HD
BRANCH  25  27
ATOM     27  C   UNL     1      -1.271 -10.447 -13.682  0.00  0.00    +0.053 A 
ATOM     28  C   UNL     1      -2.060 -11.583 -13.563  0.00  0.00    +0.044 A 
ATOM     29  C   UNL     1      -2.006 -12.565 -14.534  0.00  0.00    +0.043 A 
ATOM     30  C   UNL     1      -1.167 -12.417 -15.625  0.00  0.00    +0.021 A 
ATOM     31  C   UNL     1      -0.379 -11.287 -15.746  0.00  0.00    +0.023 A 
ATOM     32  C   UNL     1      -0.433 -10.299 -14.781  0.00  0.00    +0.062 A 
ATOM     33 CL   UNL     1       0.551  -8.877 -14.937  0.00  0.00    -0.082 Cl
ATOM     34 CL   UNL     1      -2.992 -13.986 -14.386  0.00  0.00    -0.083 Cl
ENDBRANCH  25  27
ENDBRANCH  22  23
ENDBRANCH  21  22
ENDBRANCH   5  21
TORSDOF 9
