REMARK  Name = ZINC64137358
REMARK  9 active torsions:
REMARK  status: ('A' for Active; 'I' for Inactive)
REMARK    1  A    between atoms: C_1  and  C_2
REMARK    2  A    between atoms: C_7  and  C_8
REMARK    3  A    between atoms: C_8  and  N_9
REMARK    4  A    between atoms: C_11  and  N_20
REMARK    5  A    between atoms: C_14  and  C_16
REMARK    6  A    between atoms: C_16  and  O_18
REMARK    7  A    between atoms: O_18  and  C_19
REMARK    8  A    between atoms: C_21  and  C_23
REMARK    9  A    between atoms: C_25  and  C_34
REMARK                            x       y       z     vdW  Elec       q    Type
REMARK                         _______ _______ _______ _____ _____    ______ ____
ROOT
ATOM      1  N   UNL     1      -3.746  -1.248   4.979  0.00  0.00    -0.309 N 
ATOM      2  C   UNL     1      -4.819  -1.945   4.556  0.00  0.00    +0.240 C 
ATOM      3  O   UNL     1      -5.294  -1.723   3.462  0.00  0.00    -0.273 OA
ATOM      4  H   UNL     1      -3.321  -1.476   5.820  0.00  0.00    +0.149 HD
ENDROOT
BRANCH   2   5
ATOM      5  C   UNL     1      -5.429  -3.000   5.441  0.00  0.00    +0.198 C 
ATOM      6  C   UNL     1      -4.739  -4.328   5.221  0.00  0.00    -0.000 C 
ATOM      7  C   UNL     1      -5.723  -5.192   4.771  0.00  0.00    +0.006 A 
ATOM      8  C   UNL     1      -5.699  -6.558   4.397  0.00  0.00    +0.030 A 
ATOM      9  C   UNL     1      -6.840  -7.161   3.984  0.00  0.00    +0.042 A 
ATOM     10  C   UNL     1      -8.055  -6.468   3.917  0.00  0.00    +0.022 A 
ATOM     11  C   UNL     1      -8.153  -5.162   4.258  0.00  0.00    +0.027 A 
ATOM     12  C   UNL     1      -7.000  -4.458   4.700  0.00  0.00    +0.044 A 
ATOM     13  N   UNL     1      -6.835  -3.209   5.083  0.00  0.00    -0.370 N 
ATOM     14 CL   UNL     1      -6.795  -8.836   3.529  0.00  0.00    -0.084 Cl
ATOM     15  H   UNL     1      -7.532  -2.535   5.121  0.00  0.00    +0.161 HD
BRANCH   6  16
ATOM     16  C   UNL     1      -3.324  -4.636   5.439  0.00  0.00    -0.019 A 
ATOM     17  C   UNL     1      -2.657  -5.528   4.588  0.00  0.00    +0.008 A 
ATOM     18  C   UNL     1      -1.325  -5.811   4.800  0.00  0.00    +0.001 A 
ATOM     19  C   UNL     1      -0.646  -5.218   5.850  0.00  0.00    +0.000 A 
ATOM     20  C   UNL     1      -1.296  -4.335   6.696  0.00  0.00    +0.001 A 
ATOM     21  C   UNL     1      -2.626  -4.035   6.497  0.00  0.00    +0.008 A 
ENDBRANCH   6  16
ENDBRANCH   2   5
BRANCH   1  24
ATOM     22  N   UNL     1      -1.348   0.494   2.813  0.00  0.00    -0.284 NA
ATOM     23  C   UNL     1      -2.216  -0.665   3.110  0.00  0.00    +0.107 C 
ATOM     24  C   UNL     1      -3.222  -0.146   4.168  0.00  0.00    +0.089 C 
ATOM     25  C   UNL     1      -2.326   0.793   5.017  0.00  0.00    +0.054 C 
ATOM     26  C   UNL     1      -1.376   1.409   3.969  0.00  0.00    +0.168 C 
BRANCH  26  27
ATOM     27  C   UNL     1       0.009   1.544   4.548  0.00  0.00    +0.324 C 
ATOM     28  O   UNL     1       0.641   0.556   4.840  0.00  0.00    -0.249 OA
BRANCH  27  29
ATOM     29  O   UNL     1       0.540   2.762   4.742  0.00  0.00    -0.467 OA
ATOM     30  C   UNL     1       1.856   2.815   5.295  0.00  0.00    +0.280 C 
ENDBRANCH  27  29
ENDBRANCH  26  27
BRANCH  22  31
ATOM     31  C   UNL     1       0.024   0.062   2.516  0.00  0.00    +0.120 C 
BRANCH  31  38
ATOM     32  C   UNL     1       0.159   1.819   0.227  0.00  0.00    +0.044 C 
ATOM     33  C   UNL     1       0.144   0.325   0.030  0.00  0.00    -0.046 A 
ATOM     34  C   UNL     1       0.200  -0.204  -1.246  0.00  0.00    +0.003 A 
ATOM     35  C   UNL     1       0.186  -1.575  -1.427  0.00  0.00    +0.000 A 
ATOM     36  C   UNL     1       0.116  -2.416  -0.331  0.00  0.00    +0.000 A 
ATOM     37  C   UNL     1       0.060  -1.886   0.944  0.00  0.00    +0.005 A 
ATOM     38  C   UNL     1       0.079  -0.516   1.125  0.00  0.00    -0.030 A 
ENDBRANCH  31  38
ENDBRANCH  22  31
ENDBRANCH   1  24
TORSDOF 7
