REMARK  Name = ZINC64227528
REMARK  5 active torsions:
REMARK  status: ('A' for Active; 'I' for Inactive)
REMARK    1  A    between atoms: C_6  and  C_7
REMARK    2  A    between atoms: C_7  and  C_12
REMARK    3  A    between atoms: C_12  and  N_13
REMARK    4  A    between atoms: N_16  and  N_17
REMARK    5  A    between atoms: C_18  and  C_20
REMARK                            x       y       z     vdW  Elec       q    Type
REMARK                         _______ _______ _______ _____ _____    ______ ____
ROOT
ATOM      1  N   UNL     1      -2.438   0.913   1.360  0.00  0.00    -0.297 N 
ATOM      2  C   UNL     1      -3.034   1.409   2.462  0.00  0.00    +0.316 C 
ATOM      3  O   UNL     1      -3.257   0.684   3.412  0.00  0.00    -0.251 OA
ATOM      4  N   UNL     1      -3.385   2.710   2.511  0.00  0.00    -0.218 N 
ATOM      5  H   UNL     1      -2.260   1.492   0.602  0.00  0.00    +0.150 HD
ATOM      6  H   UNL     1      -3.814   3.067   3.304  0.00  0.00    +0.174 HD
ENDROOT
BRANCH   4   7
ATOM      7  N   UNL     1      -3.129   3.546   1.416  0.00  0.00    -0.229 N 
ATOM      8  C   UNL     1      -3.479   4.846   1.465  0.00  0.00    +0.263 C 
ATOM      9  O   UNL     1      -4.017   5.294   2.459  0.00  0.00    -0.269 OA
ATOM     10  H   UNL     1      -2.699   3.188   0.623  0.00  0.00    +0.173 HD
BRANCH   8  11
ATOM     11  C   UNL     1      -3.209   5.726   0.313  0.00  0.00    +0.076 A 
ATOM     12  C   UNL     1      -3.517   7.159   0.198  0.00  0.00    +0.054 A 
ATOM     13  C   UNL     1      -3.093   7.530  -1.020  0.00  0.00    +0.195 A 
ATOM     14  O   UNL     1      -2.564   6.467  -1.645  0.00  0.00    -0.470 OA
ATOM     15  C   UNL     1      -2.618   5.381  -0.867  0.00  0.00    +0.208 A 
ENDBRANCH   8  11
ENDBRANCH   4   7
BRANCH   1  16
ATOM     16  C   UNL     1      -2.057  -0.501   1.308  0.00  0.00    +0.117 C 
BRANCH  16  17
ATOM     17  C   UNL     1      -1.466  -0.819  -0.067  0.00  0.00    +0.011 C 
ATOM     18  C   UNL     1      -2.477  -0.465  -1.172  0.00  0.00    +0.013 C 
ATOM     19  C   UNL     1      -2.783  -1.776  -1.925  0.00  0.00    +0.001 C 
ATOM     20  C   UNL     1      -2.450  -2.889  -0.901  0.00  0.00    +0.001 C 
ATOM     21  C   UNL     1      -1.192  -2.332  -0.188  0.00  0.00    +0.013 C 
BRANCH  17  27
ATOM     22  C   UNL     1       0.441  -0.062  -1.502  0.00  0.00    +0.005 A 
ATOM     23  C   UNL     1       1.613   0.647  -1.689  0.00  0.00    +0.020 A 
ATOM     24  C   UNL     1       2.156   1.373  -0.644  0.00  0.00    +0.041 A 
ATOM     25  C   UNL     1       1.525   1.390   0.587  0.00  0.00    +0.020 A 
ATOM     26  C   UNL     1       0.354   0.680   0.773  0.00  0.00    +0.005 A 
ATOM     27  C   UNL     1      -0.188  -0.046  -0.271  0.00  0.00    -0.040 A 
ATOM     28 CL   UNL     1       3.627   2.264  -0.878  0.00  0.00    -0.084 Cl
ENDBRANCH  17  27
ENDBRANCH  16  17
ENDBRANCH   1  16
TORSDOF 5
