REMARK  Name = ZINC08997220
REMARK  6 active torsions:
REMARK  status: ('A' for Active; 'I' for Inactive)
REMARK    1  A    between atoms: C_1  and  C_2
REMARK    2  A    between atoms: C_14  and  N_27
REMARK    3  A    between atoms: N_27  and  C_28
REMARK    4  A    between atoms: C_28  and  C_29
REMARK    5  A    between atoms: C_29  and  N_64
REMARK    6  A    between atoms: C_34  and  C_36
REMARK                            x       y       z     vdW  Elec       q    Type
REMARK                         _______ _______ _______ _____ _____    ______ ____
ROOT
ATOM      1  C   UNL     1     -10.177  -4.848   4.509  0.00  0.00    +0.044 C 
ATOM      2  C   UNL     1      -8.968  -4.124   3.975  0.00  0.00    -0.048 A 
ATOM      3  C   UNL     1      -9.030  -2.764   3.729  0.00  0.00    +0.007 A 
ATOM      4  C   UNL     1      -7.925  -2.092   3.240  0.00  0.00    +0.048 A 
ATOM      5  C   UNL     1      -6.748  -2.782   2.993  0.00  0.00    +0.152 A 
ATOM      6  C   UNL     1      -6.686  -4.152   3.240  0.00  0.00    +0.083 A 
ATOM      7  C   UNL     1      -7.798  -4.819   3.732  0.00  0.00    +0.032 A 
ATOM      8  N   UNL     1      -5.499  -4.850   2.991  0.00  0.00    -0.349 N 
ATOM      9  H   UNL     1      -5.444  -5.803   3.160  0.00  0.00    +0.166 HD
ATOM     10  C   UNL     1      -4.402  -4.158   2.501  0.00  0.00    +0.094 A 
ATOM     11  C   UNL     1      -4.501  -2.774   2.263  0.00  0.00    +0.154 A 
ATOM     12  O   UNL     1      -5.663  -2.122   2.513  0.00  0.00    -0.452 OA
ATOM     13  C   UNL     1      -3.416  -2.075   1.776  0.00  0.00    +0.072 A 
ATOM     14  C   UNL     1      -2.212  -2.728   1.513  0.00  0.00    +0.042 A 
ATOM     15  C   UNL     1      -2.097  -4.106   1.738  0.00  0.00    +0.056 A 
ATOM     16  C   UNL     1      -3.205  -4.827   2.244  0.00  0.00    +0.062 A 
ATOM     17  C   UNL     1      -3.093  -6.272   2.488  0.00  0.00    +0.197 A 
ATOM     18  O   UNL     1      -4.046  -6.893   2.917  0.00  0.00    -0.287 OA
ATOM     19  C   UNL     1      -1.824  -6.970   2.196  0.00  0.00    +0.033 A 
ATOM     20  C   UNL     1      -1.709  -8.340   2.421  0.00  0.00    +0.012 A 
ATOM     21  C   UNL     1      -0.515  -8.984   2.154  0.00  0.00    +0.001 A 
ATOM     22  C   UNL     1       0.569  -8.276   1.665  0.00  0.00    +0.001 A 
ATOM     23  C   UNL     1       0.472  -6.916   1.436  0.00  0.00    +0.012 A 
ATOM     24  C   UNL     1      -0.723  -6.251   1.699  0.00  0.00    +0.033 A 
ATOM     25  C   UNL     1      -0.836  -4.798   1.458  0.00  0.00    +0.196 A 
ATOM     26  O   UNL     1       0.118  -4.176   1.028  0.00  0.00    -0.287 OA
ENDROOT
BRANCH  14  27
ATOM     27  N   UNL     1      -1.130  -2.014   1.022  0.00  0.00    -0.345 N 
ATOM     28  H   UNL     1      -0.323  -2.481   0.753  0.00  0.00    +0.146 HD
BRANCH  27  29
ATOM     29  C   UNL     1      -1.204  -0.556   0.910  0.00  0.00    +0.083 C 
BRANCH  29  30
ATOM     30  C   UNL     1       0.113  -0.019   0.346  0.00  0.00    -0.060 C 
BRANCH  30  37
ATOM     31  C   UNL     1      -0.883   1.842  -0.839  0.00  0.00    -0.078 C 
ATOM     32  C   UNL     1      -1.048   3.364  -0.832  0.00  0.00    -0.019 C 
ATOM     33  C   UNL     1       0.320   4.021  -1.037  0.00  0.00    -0.003 C 
ATOM     34  C   UNL     1       1.274   3.552   0.065  0.00  0.00    -0.016 C 
ATOM     35  C   UNL     1       1.371   2.025   0.032  0.00  0.00    -0.072 C 
ATOM     36  C   UNL     1       2.308   1.549   1.144  0.00  0.00    -0.013 C 
ATOM     37  N   UNL     1       0.027   1.453   0.260  0.00  0.00    +0.382 N 
ATOM     38  H   UNL     1      -0.344   1.818   1.145  0.00  0.00    -0.081 HD
ENDBRANCH  30  37
ENDBRANCH  29  30
ENDBRANCH  27  29
ENDBRANCH  14  27
TORSDOF 4
