REMARK  Name = ZINC14240893
REMARK  12 active torsions:
REMARK  status: ('A' for Active; 'I' for Inactive)
REMARK    1  A    between atoms: C_1  and  C_2
REMARK    2  A    between atoms: C_3  and  C_33
REMARK    3  A    between atoms: N_9  and  C_19
REMARK    4  A    between atoms: C_10  and  C_12
REMARK    5  A    between atoms: C_12  and  N_65
REMARK    6  A    between atoms: C_15  and  C_18
REMARK    7  A    between atoms: C_19  and  C_20
REMARK    8  A    between atoms: C_20  and  C_22
REMARK    9  A    between atoms: C_23  and  C_32
REMARK   10  A    between atoms: C_24  and  C_29
REMARK   11  A    between atoms: C_25  and  C_28
REMARK   12  A    between atoms: C_29  and  C_31
REMARK                            x       y       z     vdW  Elec       q    Type
REMARK                         _______ _______ _______ _____ _____    ______ ____
ROOT
ATOM      1  C   UNL     1       6.643  -1.813   3.431  0.00  0.00    +0.045 C 
ATOM      2  C   UNL     1       7.110  -1.789   1.999  0.00  0.00    -0.026 A 
ATOM      3  C   UNL     1       8.367  -2.145   1.688  0.00  0.00    -0.008 A 
ATOM      4  S   UNL     1       8.424  -1.952  -0.084  0.00  0.00    -0.073 S 
ATOM      5  C   UNL     1       6.760  -1.399  -0.354  0.00  0.00    +0.116 A 
ATOM      6  C   UNL     1       6.207  -1.380   0.939  0.00  0.00    +0.075 A 
ATOM      7  C   UNL     1       4.839  -0.961   1.021  0.00  0.00    +0.263 A 
ATOM      8  O   UNL     1       4.270  -0.911   2.099  0.00  0.00    -0.267 OA
ATOM      9  N   UNL     1       4.192  -0.623  -0.110  0.00  0.00    -0.290 N 
ATOM     10  C   UNL     1       4.807  -0.678  -1.319  0.00  0.00    +0.097 A 
ATOM     11  N   UNL     1       6.054  -1.051  -1.426  0.00  0.00    -0.228 NA
ATOM     12  C   UNL     1       9.465  -2.599   2.614  0.00  0.00    +0.052 C 
ENDROOT
BRANCH  10  13
ATOM     13  C   UNL     1       4.039  -0.297  -2.558  0.00  0.00    -0.003 C 
BRANCH  13  20
ATOM     14  C   UNL     1       4.195  -0.178  -4.971  0.00  0.00    -0.078 C 
ATOM     15  C   UNL     1       5.154  -0.324  -6.155  0.00  0.00    -0.016 C 
ATOM     16  C   UNL     1       6.225   0.767  -6.076  0.00  0.00    -0.018 C 
ATOM     17  C   UNL     1       6.959   0.655  -4.737  0.00  0.00    -0.016 C 
ATOM     18  C   UNL     1       5.948   0.773  -3.594  0.00  0.00    -0.078 C 
ATOM     19  C   UNL     1       7.222   0.589  -7.222  0.00  0.00    +0.007 C 
ATOM     20  N   UNL     1       4.960  -0.320  -3.714  0.00  0.00    +0.384 N 
ATOM     21  H   UNL     1       5.456  -1.219  -3.726  0.00  0.00    -0.081 HD
ENDBRANCH  13  20
ENDBRANCH  10  13
BRANCH   9  22
ATOM     22  C   UNL     1       2.793  -0.194  -0.035  0.00  0.00    +0.207 C 
BRANCH  22  23
ATOM     23  C   UNL     1       2.736   1.300   0.151  0.00  0.00    +0.199 C 
ATOM     24  O   UNL     1       3.763   1.944   0.215  0.00  0.00    -0.289 OA
BRANCH  23  25
ATOM     25  C   UNL     1       1.484   1.954   0.251  0.00  0.00    +0.088 A 
ATOM     26  C   UNL     1       1.289   3.307   0.422  0.00  0.00    -0.012 A 
ATOM     27  C   UNL     1      -0.108   3.516   0.468  0.00  0.00    +0.041 A 
ATOM     28  C   UNL     1      -0.711   2.276   0.318  0.00  0.00    +0.024 A 
ATOM     29  N   UNL     1       0.246   1.346   0.194  0.00  0.00    -0.355 N 
ATOM     30  H   UNL     1       0.092   0.395   0.079  0.00  0.00    +0.166 HD
ATOM     31  C   UNL     1      -2.196   2.017   0.299  0.00  0.00    +0.064 C 
ATOM     32  C   UNL     1       2.360   4.361   0.536  0.00  0.00    +0.047 C 
BRANCH  27  33
ATOM     33  C   UNL     1      -0.791   4.802   0.638  0.00  0.00    +0.162 C 
ATOM     34  O   UNL     1      -1.158   5.427  -0.335  0.00  0.00    -0.292 OA
ATOM     35  C   UNL     1      -1.038   5.348   2.021  0.00  0.00    +0.091 C 
ENDBRANCH  27  33
ENDBRANCH  23  25
ENDBRANCH  22  23
ENDBRANCH   9  22
TORSDOF 6
