REMARK  Name = ZINC14841747
REMARK  10 active torsions:
REMARK  status: ('A' for Active; 'I' for Inactive)
REMARK    1  A    between atoms: C_1  and  C_2
REMARK    2  A    between atoms: C_3  and  C_10
REMARK    3  A    between atoms: C_4  and  C_7
REMARK    4  A    between atoms: C_7  and  C_8
REMARK    5  A    between atoms: C_7  and  C_9
REMARK    6  A    between atoms: N_12  and  N_13
REMARK    7  A    between atoms: C_14  and  C_16
REMARK    8  A    between atoms: C_19  and  C_22
REMARK    9  A    between atoms: C_22  and  O_23
REMARK   10  A    between atoms: O_23  and  C_24
REMARK                            x       y       z     vdW  Elec       q    Type
REMARK                         _______ _______ _______ _____ _____    ______ ____
ROOT
ATOM      1  N   UNL     1      -1.188   0.172  -4.564  0.00  0.00    -0.230 N 
ATOM      2  C   UNL     1      -2.361   0.357  -5.202  0.00  0.00    +0.260 C 
ATOM      3  O   UNL     1      -3.408   0.162  -4.617  0.00  0.00    -0.269 OA
ATOM      4  H   UNL     1      -0.352   0.327  -5.030  0.00  0.00    +0.173 HD
ENDROOT
BRANCH   2   5
ATOM      5  C   UNL     1      -2.373   0.796  -6.613  0.00  0.00    +0.038 A 
ATOM      6  C   UNL     1      -1.172   1.015  -7.290  0.00  0.00    +0.013 A 
ATOM      7  C   UNL     1      -1.190   1.424  -8.607  0.00  0.00    +0.008 A 
ATOM      8  C   UNL     1      -2.396   1.619  -9.257  0.00  0.00    -0.010 A 
ATOM      9  C   UNL     1      -3.590   1.404  -8.592  0.00  0.00    +0.008 A 
ATOM     10  C   UNL     1      -3.586   0.988  -7.277  0.00  0.00    +0.013 A 
BRANCH   8  11
ATOM     11  C   UNL     1      -2.409   2.067 -10.696  0.00  0.00    +0.264 C 
BRANCH  11  12
ATOM     12  O   UNL     1      -2.404   0.922 -11.552  0.00  0.00    -0.487 OA
BRANCH  12  13
ATOM     13  C   UNL     1      -2.414   1.153 -12.891  0.00  0.00    +0.121 A 
ATOM     14  C   UNL     1      -2.422   2.454 -13.372  0.00  0.00    +0.047 A 
ATOM     15  C   UNL     1      -2.432   2.687 -14.733  0.00  0.00    +0.023 A 
ATOM     16  C   UNL     1      -2.435   1.623 -15.618  0.00  0.00    +0.041 A 
ATOM     17  C   UNL     1      -2.426   0.324 -15.140  0.00  0.00    +0.023 A 
ATOM     18  C   UNL     1      -2.410   0.087 -13.779  0.00  0.00    +0.047 A 
ATOM     19 CL   UNL     1      -2.448   1.917 -17.328  0.00  0.00    -0.084 Cl
ENDBRANCH  12  13
ENDBRANCH  11  12
ENDBRANCH   8  11
ENDBRANCH   2   5
BRANCH   1  22
ATOM     20  C   UNL     1      -0.004  -0.429  -2.588  0.00  0.00    +0.265 C 
ATOM     21  O   UNL     1       1.044  -0.234  -3.173  0.00  0.00    -0.268 OA
ATOM     22  N   UNL     1      -1.176  -0.244  -3.226  0.00  0.00    -0.230 N 
ATOM     23  H   UNL     1      -2.012  -0.399  -2.759  0.00  0.00    +0.173 HD
BRANCH  20  26
ATOM     24  C   UNL     1      -0.018   1.503   0.010  0.00  0.00    +0.070 C 
ATOM     25  C   UNL     1       0.002  -0.004   0.002  0.00  0.00    +0.093 A 
ATOM     26  C   UNL     1       0.009  -0.867  -1.180  0.00  0.00    +0.103 A 
ATOM     27  C   UNL     1       0.028  -2.155  -0.729  0.00  0.00    +0.152 A 
ATOM     28  O   UNL     1       0.034  -2.126   0.606  0.00  0.00    -0.358 OA
ATOM     29  N   UNL     1       0.023  -0.782   1.044  0.00  0.00    -0.083 NA
BRANCH  27  30
ATOM     30  C   UNL     1       0.040  -3.394  -1.587  0.00  0.00    +0.052 C 
ATOM     31  C   UNL     1       1.302  -4.207  -1.291  0.00  0.00    +0.015 C 
ATOM     32  C   UNL     1      -1.196  -4.241  -1.278  0.00  0.00    +0.015 C 
ENDBRANCH  27  30
ENDBRANCH  20  26
ENDBRANCH   1  22
TORSDOF 7
