REMARK  Name = ZINC62825029
REMARK  8 active torsions:
REMARK  status: ('A' for Active; 'I' for Inactive)
REMARK    1  A    between atoms: C_1  and  C_2
REMARK    2  A    between atoms: C_2  and  C_4
REMARK    3  A    between atoms: C_4  and  N_5
REMARK    4  A    between atoms: N_10  and  N_11
REMARK    5  A    between atoms: C_12  and  C_13
REMARK    6  A    between atoms: C_14  and  C_15
REMARK    7  A    between atoms: N_22  and  C_29
REMARK    8  A    between atoms: N_25  and  C_28
REMARK                            x       y       z     vdW  Elec       q    Type
REMARK                         _______ _______ _______ _____ _____    ______ ____
ROOT
ATOM      1  N   UNL     1      -0.746  -0.013   2.301  0.00  0.00    -0.301 N 
ATOM      2  C   UNL     1      -0.617  -1.245   2.924  0.00  0.00    +0.153 A 
ATOM      3  C   UNL     1      -1.841  -1.507   3.531  0.00  0.00    +0.170 A 
ATOM      4  N   UNL     1      -2.647  -0.476   3.274  0.00  0.00    -0.195 NA
ATOM      5  C   UNL     1      -2.010   0.422   2.550  0.00  0.00    +0.218 A 
ATOM      6  N   UNL     1      -2.543   1.613   2.111  0.00  0.00    -0.206 N 
ATOM      7  N   UNL     1      -1.997  -2.691   4.236  0.00  0.00    -0.280 N 
ATOM      8  C   UNL     1      -0.975  -3.562   4.324  0.00  0.00    +0.333 A 
ATOM      9  O   UNL     1      -1.129  -4.596   4.947  0.00  0.00    -0.246 OA
ATOM     10  N   UNL     1       0.212  -3.319   3.742  0.00  0.00    -0.262 N 
ATOM     11  C   UNL     1       0.423  -2.185   3.043  0.00  0.00    +0.282 A 
ATOM     12  O   UNL     1       1.504  -1.976   2.520  0.00  0.00    -0.265 OA
ATOM     13  C   UNL     1       1.292  -4.300   3.869  0.00  0.00    +0.157 C 
ATOM     14  C   UNL     1      -3.275  -2.992   4.885  0.00  0.00    +0.155 C 
ATOM     15  H   UNL     1      -2.004   2.218   1.578  0.00  0.00    +0.177 HD
ENDROOT
BRANCH   6  16
ATOM     16  N   UNL     1      -3.864   1.951   2.434  0.00  0.00    -0.187 NA
ATOM     17  C   UNL     1      -4.414   3.007   1.906  0.00  0.00    +0.145 C 
BRANCH  17  18
ATOM     18  C   UNL     1      -3.966   3.486   0.648  0.00  0.00    +0.038 C 
ATOM     19  C   UNL     1      -4.423   4.664   0.173  0.00  0.00    +0.024 C 
ATOM     20 BR   UNL     1      -2.728   2.475  -0.362  0.00  0.00    -0.049 Br
BRANCH  19  21
ATOM     21  C   UNL     1      -4.025   5.121  -1.168  0.00  0.00    -0.024 A 
ATOM     22  C   UNL     1      -3.976   4.216  -2.233  0.00  0.00    +0.008 A 
ATOM     23  C   UNL     1      -3.602   4.652  -3.487  0.00  0.00    +0.001 A 
ATOM     24  C   UNL     1      -3.275   5.981  -3.692  0.00  0.00    +0.000 A 
ATOM     25  C   UNL     1      -3.321   6.883  -2.643  0.00  0.00    +0.001 A 
ATOM     26  C   UNL     1      -3.699   6.463  -1.385  0.00  0.00    +0.008 A 
ENDBRANCH  19  21
ENDBRANCH  17  18
ENDBRANCH   6  16
BRANCH   1  27
ATOM     27  C   UNL     1       0.284   0.688   1.528  0.00  0.00    +0.155 C 
BRANCH  27  29
ATOM     28  C   UNL     1       0.602   2.954   2.783  0.00  0.00    +0.040 C 
ATOM     29  C   UNL     1       1.090   1.568   2.449  0.00  0.00    -0.060 C 
ATOM     30  C   UNL     1       2.214   1.129   2.957  0.00  0.00    +0.009 C 
ENDBRANCH  27  29
ENDBRANCH   1  27
TORSDOF 5
