REMARK  Name = ZINC39676299
REMARK  4 active torsions:
REMARK  status: ('A' for Active; 'I' for Inactive)
REMARK    1  A    between atoms: C_11  and  C_13
REMARK    2  A    between atoms: C_13  and  N_14
REMARK    3  A    between atoms: C_15  and  C_17
REMARK    4  A    between atoms: C_28  and  C_30
REMARK                            x       y       z     vdW  Elec       q    Type
REMARK                         _______ _______ _______ _____ _____    ______ ____
ROOT
ATOM      1  C   UNL     1       8.431  -0.891  -0.090  0.00  0.00    +0.100 C 
ATOM      2  C   UNL     1       8.297   0.028   1.145  0.00  0.00    +0.121 C 
ATOM      3  N   UNL     1       9.215  -0.558   2.150  0.00  0.00    -0.297 N 
ATOM      4  C   UNL     1      10.399  -0.982   1.365  0.00  0.00    +0.115 C 
ATOM      5  C   UNL     1       9.813  -1.549   0.057  0.00  0.00    -0.004 C 
ATOM      6  C   UNL     1       9.669  -3.065   0.159  0.00  0.00    -0.010 C 
ATOM      7  C   UNL     1      11.059  -3.700   0.246  0.00  0.00    -0.082 C 
ATOM      8  N   UNL     1      11.839  -3.342  -0.945  0.00  0.00    +0.379 N 
ATOM      9  C   UNL     1      12.052  -1.891  -0.986  0.00  0.00    -0.082 C 
ATOM     10  C   UNL     1      10.704  -1.178  -1.125  0.00  0.00    -0.010 C 
ATOM     11  C   UNL     1       9.017  -0.678   3.478  0.00  0.00    +0.260 C 
ATOM     12  O   UNL     1       9.871  -1.185   4.174  0.00  0.00    -0.271 OA
ATOM     13  H   UNL     1      12.732  -3.811  -0.914  0.00  0.00    -0.086 HD
ATOM     14  H   UNL     1      11.338  -3.631  -1.772  0.00  0.00    -0.086 HD
ENDROOT
BRANCH  11  15
ATOM     15  C   UNL     1       7.736  -0.184   4.097  0.00  0.00    +0.296 C 
ATOM     16  C   UNL     1       7.650   1.343   3.961  0.00  0.00    +0.283 C 
ATOM     17  O   UNL     1       6.431   1.780   4.570  0.00  0.00    -0.484 OA
ATOM     18  C   UNL     1       6.140   1.263   5.795  0.00  0.00    +0.162 A 
ATOM     19  C   UNL     1       5.195   1.891   6.592  0.00  0.00    +0.049 A 
ATOM     20  C   UNL     1       4.886   1.376   7.837  0.00  0.00    +0.004 A 
ATOM     21  C   UNL     1       5.519   0.234   8.291  0.00  0.00    +0.004 A 
ATOM     22  C   UNL     1       6.462  -0.397   7.502  0.00  0.00    +0.049 A 
ATOM     23  C   UNL     1       6.777   0.116   6.253  0.00  0.00    +0.163 A 
ATOM     24  O   UNL     1       7.715  -0.512   5.490  0.00  0.00    -0.473 OA
ENDBRANCH  11  15
BRANCH   1  26
ATOM     25  N   UNL     1       6.906  -2.457  -1.247  0.00  0.00    -0.308 N 
ATOM     26  C   UNL     1       7.348  -1.939  -0.084  0.00  0.00    +0.219 C 
ATOM     27  O   UNL     1       6.874  -2.315   0.967  0.00  0.00    -0.275 OA
ATOM     28  H   UNL     1       7.285  -2.155  -2.088  0.00  0.00    +0.149 HD
BRANCH  25  29
ATOM     29  C   UNL     1       5.852  -3.475  -1.242  0.00  0.00    +0.178 C 
BRANCH  29  40
ATOM     30  C   UNL     1       5.469  -4.339  -7.562  0.00  0.00    +0.001 A 
ATOM     31  C   UNL     1       6.432  -3.384  -7.263  0.00  0.00    +0.002 A 
ATOM     32  C   UNL     1       6.692  -3.030  -5.958  0.00  0.00    +0.028 A 
ATOM     33  C   UNL     1       5.980  -3.637  -4.922  0.00  0.00    +0.078 A 
ATOM     34  C   UNL     1       5.002  -4.608  -5.230  0.00  0.00    +0.065 A 
ATOM     35  C   UNL     1       4.754  -4.952  -6.557  0.00  0.00    +0.015 A 
ATOM     36  C   UNL     1       4.270  -5.229  -4.116  0.00  0.00    +0.259 A 
ATOM     37  O   UNL     1       3.415  -6.073  -4.313  0.00  0.00    -0.267 OA
ATOM     38  N   UNL     1       4.585  -4.827  -2.862  0.00  0.00    -0.309 N 
ATOM     39  H   UNL     1       4.123  -5.215  -2.103  0.00  0.00    +0.170 HD
ATOM     40  C   UNL     1       5.543  -3.885  -2.659  0.00  0.00    +0.128 A 
ATOM     41  N   UNL     1       6.204  -3.319  -3.622  0.00  0.00    -0.232 NA
ENDBRANCH  29  40
ENDBRANCH  25  29
ENDBRANCH   1  26
TORSDOF 4
