REMARK  Name = ZINC58889921
REMARK  12 active torsions:
REMARK  status: ('A' for Active; 'I' for Inactive)
REMARK    1  A    between atoms: C_1  and  O_2
REMARK    2  A    between atoms: O_2  and  C_3
REMARK    3  A    between atoms: C_5  and  C_22
REMARK    4  A    between atoms: C_8  and  O_9
REMARK    5  A    between atoms: O_9  and  C_10
REMARK    6  A    between atoms: C_10  and  C_11
REMARK    7  A    between atoms: N_23  and  N_24
REMARK    8  A    between atoms: C_25  and  C_27
REMARK    9  A    between atoms: C_27  and  C_28
REMARK   10  A    between atoms: C_28  and  C_29
REMARK   11  A    between atoms: C_29  and  C_31
REMARK   12  A    between atoms: C_29  and  O_37
REMARK                            x       y       z     vdW  Elec       q    Type
REMARK                         _______ _______ _______ _____ _____    ______ ____
ROOT
ATOM      1  C   UNL     1       1.160  -0.551  -0.779  0.00  0.00    +0.164 A 
ATOM      2  C   UNL     1       1.318   0.112  -1.982  0.00  0.00    +0.059 A 
ATOM      3  C   UNL     1       2.248  -0.353  -2.915  0.00  0.00    -0.000 A 
ATOM      4  C   UNL     1       3.014  -1.486  -2.628  0.00  0.00    +0.033 A 
ATOM      5  C   UNL     1       2.851  -2.142  -1.425  0.00  0.00    +0.087 A 
ATOM      6  C   UNL     1       1.930  -1.676  -0.496  0.00  0.00    +0.181 A 
ATOM      7 CL   UNL     1       3.803  -3.549  -1.070  0.00  0.00    -0.080 Cl
ENDROOT
BRANCH   1   9
ATOM      8  C   UNL     1      -0.500   1.059  -0.224  0.00  0.00    +0.277 C 
ATOM      9  O   UNL     1       0.256  -0.100   0.132  0.00  0.00    -0.491 OA
ENDBRANCH   1   9
BRANCH   3  10
ATOM     10  C   UNL     1       2.420   0.349  -4.200  0.00  0.00    +0.138 C 
ATOM     11  N   UNL     1       3.055  -0.227  -5.175  0.00  0.00    -0.188 NA
BRANCH  11  12
ATOM     12  N   UNL     1       3.106  -1.625  -5.248  0.00  0.00    -0.207 N 
ATOM     13  C   UNL     1       3.872  -2.224  -6.181  0.00  0.00    +0.232 C 
ATOM     14  O   UNL     1       4.518  -1.552  -6.957  0.00  0.00    -0.274 OA
ATOM     15  H   UNL     1       2.589  -2.163  -4.627  0.00  0.00    +0.177 HD
BRANCH  13  16
ATOM     16  C   UNL     1       3.927  -3.728  -6.260  0.00  0.00    +0.100 C 
BRANCH  16  17
ATOM     17  C   UNL     1       4.862  -4.145  -7.397  0.00  0.00    +0.045 C 
BRANCH  17  18
ATOM     18  C   UNL     1       4.918  -5.672  -7.477  0.00  0.00    +0.145 C 
BRANCH  18  19
ATOM     19  C   UNL     1       5.740  -6.082  -8.671  0.00  0.00    -0.019 A 
ATOM     20  C   UNL     1       7.115  -6.176  -8.564  0.00  0.00    +0.006 A 
ATOM     21  C   UNL     1       7.870  -6.553  -9.659  0.00  0.00    +0.000 A 
ATOM     22  C   UNL     1       7.250  -6.837 -10.861  0.00  0.00    +0.000 A 
ATOM     23  C   UNL     1       5.875  -6.744 -10.968  0.00  0.00    +0.000 A 
ATOM     24  C   UNL     1       5.120  -6.371  -9.872  0.00  0.00    +0.006 A 
ENDBRANCH  18  19
BRANCH  18  25
ATOM     25  O   UNL     1       5.514  -6.190  -6.286  0.00  0.00    -0.387 OA
ATOM     26  H   UNL     1       6.417  -5.880  -6.131  0.00  0.00    +0.210 HD
ENDBRANCH  18  25
ENDBRANCH  17  18
ENDBRANCH  16  17
ENDBRANCH  13  16
ENDBRANCH  11  12
ENDBRANCH   3  10
BRANCH   6  27
ATOM     27  O   UNL     1       1.776  -2.323   0.690  0.00  0.00    -0.482 OA
BRANCH  27  28
ATOM     28  C   UNL     1       0.809  -3.374   0.735  0.00  0.00    +0.265 C 
BRANCH  28  29
ATOM     29  C   UNL     1       0.779  -3.970   2.119  0.00  0.00    -0.003 A 
ATOM     30  C   UNL     1       1.598  -3.482   3.091  0.00  0.00    +0.007 A 
ATOM     31  C   UNL     1       1.584  -4.020   4.377  0.00  0.00    +0.001 A 
ATOM     32  C   UNL     1       0.752  -5.049   4.697  0.00  0.00    +0.008 A 
ATOM     33  C   UNL     1      -0.107  -5.578   3.720  0.00  0.00    -0.018 A 
ATOM     34  C   UNL     1      -0.098  -5.027   2.414  0.00  0.00    -0.011 A 
ATOM     35  C   UNL     1      -0.962  -5.552   1.438  0.00  0.00    +0.009 A 
ATOM     36  C   UNL     1      -1.798  -6.576   1.760  0.00  0.00    +0.001 A 
ATOM     37  C   UNL     1      -1.812  -7.114   3.046  0.00  0.00    +0.001 A 
ATOM     38  C   UNL     1      -0.980  -6.640   4.013  0.00  0.00    +0.008 A 
ENDBRANCH  28  29
ENDBRANCH  27  28
ENDBRANCH   6  27
TORSDOF 11
