REMARK  Name = ZINC04303468
REMARK  7 active torsions:
REMARK  status: ('A' for Active; 'I' for Inactive)
REMARK    1  A    between atoms: C_1  and  C_2
REMARK    2  A    between atoms: C_3  and  C_27
REMARK    3  A    between atoms: C_4  and  C_21
REMARK    4  A    between atoms: C_10  and  C_11
REMARK    5  A    between atoms: C_14  and  O_17
REMARK    6  A    between atoms: C_27  and  O_29
REMARK    7  A    between atoms: O_29  and  C_30
REMARK                            x       y       z     vdW  Elec       q    Type
REMARK                         _______ _______ _______ _____ _____    ______ ____
ROOT
ATOM      1  C   UNL     1       2.850  11.625  -0.573  0.00  0.00    +0.066 C 
ATOM      2  C   UNL     1       2.310  10.224  -0.444  0.00  0.00    +0.053 C 
ATOM      3  C   UNL     1       0.961  10.022  -0.360  0.00  0.00    +0.085 C 
ATOM      4  C   UNL     1       0.461   8.602  -0.231  0.00  0.00    +0.162 C 
ATOM      5  N   UNL     1       1.485   7.520  -0.207  0.00  0.00    -0.275 N 
ATOM      6  C   UNL     1       1.240   6.207  -0.106  0.00  0.00    +0.268 A 
ATOM      7  O   UNL     1       0.100   5.786  -0.023  0.00  0.00    -0.266 OA
ATOM      8  C   UNL     1       2.388   5.290  -0.095  0.00  0.00    +0.081 A 
ATOM      9  C   UNL     1       2.409   3.935  -0.000  0.00  0.00    +0.028 C 
ATOM     10  S   UNL     1       3.746   6.438  -0.249  0.00  0.00    -0.046 S 
ATOM     11  C   UNL     1       2.791   7.941  -0.306  0.00  0.00    +0.178 A 
ATOM     12  N   UNL     1       3.149   9.196  -0.415  0.00  0.00    -0.228 NA
ENDROOT
BRANCH   9  13
ATOM     13  C   UNL     1       1.155   3.175  -0.061  0.00  0.00    -0.024 A 
ATOM     14  C   UNL     1       0.149   3.548  -0.962  0.00  0.00    +0.011 A 
ATOM     15  C   UNL     1      -1.025   2.832  -1.014  0.00  0.00    +0.046 A 
ATOM     16  C   UNL     1      -1.217   1.743  -0.172  0.00  0.00    +0.117 A 
ATOM     17  C   UNL     1      -0.220   1.364   0.720  0.00  0.00    +0.046 A 
ATOM     18  C   UNL     1       0.959   2.073   0.781  0.00  0.00    +0.011 A 
BRANCH  16  19
ATOM     19  O   UNL     1      -2.379   1.044  -0.223  0.00  0.00    -0.507 OA
ATOM     20  H   UNL     1      -2.368   0.307  -0.850  0.00  0.00    +0.292 HD
ENDBRANCH  16  19
ENDBRANCH   9  13
BRANCH   4  21
ATOM     21  C   UNL     1      -0.344   8.507   1.039  0.00  0.00    -0.020 A 
ATOM     22  C   UNL     1       0.298   8.369   2.256  0.00  0.00    +0.006 A 
ATOM     23  C   UNL     1      -0.441   8.287   3.421  0.00  0.00    +0.000 A 
ATOM     24  C   UNL     1      -1.821   8.332   3.370  0.00  0.00    +0.000 A 
ATOM     25  C   UNL     1      -2.463   8.465   2.153  0.00  0.00    +0.000 A 
ATOM     26  C   UNL     1      -1.725   8.552   0.988  0.00  0.00    +0.006 A 
ENDBRANCH   4  21
BRANCH   3  27
ATOM     27  C   UNL     1       0.066  11.104  -0.391  0.00  0.00    +0.339 C 
ATOM     28  O   UNL     1       0.488  12.241  -0.495  0.00  0.00    -0.245 OA
BRANCH  27  29
ATOM     29  O   UNL     1      -1.264  10.882  -0.306  0.00  0.00    -0.465 OA
ATOM     30  C   UNL     1      -2.117  12.028  -0.344  0.00  0.00    +0.280 C 
ENDBRANCH  27  29
ENDBRANCH   3  27
TORSDOF 5
