REMARK  Name = ZINC64791649
REMARK  5 active torsions:
REMARK  status: ('A' for Active; 'I' for Inactive)
REMARK    1  A    between atoms: C_10  and  C_11
REMARK    2  A    between atoms: N_15  and  C_16
REMARK    3  A    between atoms: C_16  and  C_17
REMARK    4  A    between atoms: N_19  and  C_20
REMARK    5  A    between atoms: C_21  and  C_25
REMARK                            x       y       z     vdW  Elec       q    Type
REMARK                         _______ _______ _______ _____ _____    ______ ____
ROOT
ATOM      1  C   UNL     1       4.960   0.161  -0.046  0.00  0.00    -0.036 C 
ATOM      2  C   UNL     1       5.367   0.548   1.398  0.00  0.00    -0.013 C 
ATOM      3  C   UNL     1       6.901   0.729   1.253  0.00  0.00    -0.020 C 
ATOM      4  C   UNL     1       7.285  -0.360   0.229  0.00  0.00    -0.077 C 
ATOM      5  N   UNL     1       6.067  -0.689  -0.535  0.00  0.00    +0.390 N 
ATOM      6  H   UNL     1       5.834  -1.661  -0.400  0.00  0.00    -0.080 HD
ENDROOT
BRANCH   1  16
ATOM      7  C   UNL     1      -0.001   1.325  -0.526  0.00  0.00    +0.001 A 
ATOM      8  C   UNL     1       1.184   2.059  -0.537  0.00  0.00    +0.001 A 
ATOM      9  C   UNL     1       2.389   1.446  -0.379  0.00  0.00    +0.009 A 
ATOM     10  C   UNL     1       2.443   0.053  -0.203  0.00  0.00    -0.016 A 
ATOM     11  C   UNL     1       1.238  -0.693  -0.192  0.00  0.00    -0.018 A 
ATOM     12  C   UNL     1       0.012  -0.026  -0.358  0.00  0.00    +0.008 A 
ATOM     13  C   UNL     1       1.292  -2.086  -0.015  0.00  0.00    +0.008 A 
ATOM     14  C   UNL     1       2.497  -2.699   0.143  0.00  0.00    +0.001 A 
ATOM     15  C   UNL     1       3.682  -1.965   0.133  0.00  0.00    +0.002 A 
ATOM     16  C   UNL     1       3.668  -0.615  -0.037  0.00  0.00    -0.053 A 
ENDBRANCH   1  16
BRANCH   5  17
ATOM     17  C   UNL     1       6.294  -0.431  -1.963  0.00  0.00    +0.020 C 
BRANCH  17  18
ATOM     18  C   UNL     1       7.338  -1.385  -2.486  0.00  0.00    +0.201 C 
ATOM     19  O   UNL     1       7.842  -2.199  -1.742  0.00  0.00    -0.278 OA
ATOM     20  N   UNL     1       7.710  -1.333  -3.780  0.00  0.00    -0.281 N 
ATOM     21  H   UNL     1       7.306  -0.682  -4.375  0.00  0.00    +0.155 HD
BRANCH  20  22
ATOM     22  C   UNL     1       8.670  -2.210  -4.261  0.00  0.00    +0.084 A 
ATOM     23  C   UNL     1       9.176  -2.298  -5.550  0.00  0.00    +0.065 A 
ATOM     24  C   UNL     1      10.179  -3.312  -5.783  0.00  0.00    +0.022 A 
ATOM     25  C   UNL     1      10.512  -4.063  -4.717  0.00  0.00    +0.048 A 
ATOM     26  S   UNL     1       9.491  -3.405  -3.417  0.00  0.00    -0.081 S 
BRANCH  23  27
ATOM     27  C   UNL     1       8.717  -1.407  -6.620  0.00  0.00    +0.244 C 
ATOM     28  O   UNL     1       7.870  -0.564  -6.389  0.00  0.00    -0.270 OA
ATOM     29  N   UNL     1       9.233  -1.523  -7.860  0.00  0.00    -0.325 N 
ATOM     30  H   UNL     1       9.907  -2.195  -8.044  0.00  0.00    +0.145 HD
ATOM     31  H   UNL     1       8.929  -0.934  -8.569  0.00  0.00    +0.145 HD
ENDBRANCH  23  27
ENDBRANCH  20  22
ENDBRANCH  17  18
ENDBRANCH   5  17
TORSDOF 5
