REMARK  Name = ZINC39691005
REMARK  6 active torsions:
REMARK  status: ('A' for Active; 'I' for Inactive)
REMARK    1  A    between atoms: C_1  and  C_2
REMARK    2  A    between atoms: C_2  and  C_4
REMARK    3  A    between atoms: C_4  and  N_5
REMARK    4  A    between atoms: C_6  and  C_8
REMARK    5  A    between atoms: C_19  and  C_21
REMARK    6  A    between atoms: C_24  and  C_26
REMARK                            x       y       z     vdW  Elec       q    Type
REMARK                         _______ _______ _______ _____ _____    ______ ____
ROOT
ATOM      1  C   UNL     1      -3.044  -1.708  -3.422  0.00  0.00    +0.100 C 
ATOM      2  C   UNL     1      -3.718  -0.327  -3.581  0.00  0.00    +0.121 C 
ATOM      3  N   UNL     1      -3.533   0.018  -5.010  0.00  0.00    -0.294 N 
ATOM      4  C   UNL     1      -3.738  -1.263  -5.728  0.00  0.00    +0.115 C 
ATOM      5  C   UNL     1      -3.062  -2.321  -4.832  0.00  0.00    -0.004 C 
ATOM      6  C   UNL     1      -1.638  -2.585  -5.312  0.00  0.00    -0.010 C 
ATOM      7  C   UNL     1      -1.684  -3.246  -6.692  0.00  0.00    -0.082 C 
ATOM      8  N   UNL     1      -2.435  -4.505  -6.609  0.00  0.00    +0.379 N 
ATOM      9  C   UNL     1      -3.829  -4.233  -6.237  0.00  0.00    -0.082 C 
ATOM     10  C   UNL     1      -3.873  -3.613  -4.837  0.00  0.00    -0.010 C 
ATOM     11  C   UNL     1      -3.244   1.224  -5.538  0.00  0.00    +0.282 C 
ATOM     12  O   UNL     1      -3.123   1.347  -6.743  0.00  0.00    -0.267 OA
ATOM     13  H   UNL     1      -2.412  -4.968  -7.505  0.00  0.00    -0.086 HD
ATOM     14  H   UNL     1      -2.013  -5.101  -5.914  0.00  0.00    -0.086 HD
ENDROOT
BRANCH  11  15
ATOM     15  C   UNL     1      -3.076   2.386  -4.663  0.00  0.00    +0.190 A 
ATOM     16  C   UNL     1      -2.787   3.670  -5.069  0.00  0.00    +0.055 A 
ATOM     17  C   UNL     1      -2.716   4.453  -3.913  0.00  0.00    +0.050 A 
ATOM     18  C   UNL     1      -2.962   3.628  -2.853  0.00  0.00    +0.136 A 
ATOM     19  O   UNL     1      -3.184   2.386  -3.317  0.00  0.00    -0.450 OA
BRANCH  18  20
ATOM     20  C   UNL     1      -2.987   4.034  -1.434  0.00  0.00    +0.017 A 
ATOM     21  C   UNL     1      -2.751   5.364  -1.081  0.00  0.00    +0.014 A 
ATOM     22  C   UNL     1      -2.776   5.737   0.246  0.00  0.00    +0.039 A 
ATOM     23  C   UNL     1      -3.035   4.795   1.229  0.00  0.00    +0.123 A 
ATOM     24  C   UNL     1      -3.269   3.473   0.885  0.00  0.00    +0.039 A 
ATOM     25  C   UNL     1      -3.253   3.090  -0.439  0.00  0.00    +0.014 A 
ATOM     26  F   UNL     1      -3.058   5.167   2.528  0.00  0.00    -0.205 F 
ENDBRANCH  18  20
ENDBRANCH  11  15
BRANCH   1  28
ATOM     27  N   UNL     1      -1.049  -2.523  -2.208  0.00  0.00    -0.311 N 
ATOM     28  C   UNL     1      -1.626  -1.548  -2.937  0.00  0.00    +0.218 C 
ATOM     29  O   UNL     1      -1.005  -0.541  -3.204  0.00  0.00    -0.275 OA
ATOM     30  H   UNL     1      -1.546  -3.328  -1.995  0.00  0.00    +0.149 HD
BRANCH  27  31
ATOM     31  C   UNL     1       0.330  -2.367  -1.737  0.00  0.00    +0.134 C 
BRANCH  31  33
ATOM     32  C   UNL     1       0.397  -3.686   0.514  0.00  0.00    +0.040 C 
ATOM     33  C   UNL     1       0.734  -3.588  -0.952  0.00  0.00    -0.063 C 
ATOM     34  C   UNL     1       1.377  -4.564  -1.543  0.00  0.00    +0.009 C 
ENDBRANCH  31  33
ENDBRANCH  27  31
ENDBRANCH   1  28
TORSDOF 5
