REMARK  Name = ZINC10167078
REMARK  9 active torsions:
REMARK  status: ('A' for Active; 'I' for Inactive)
REMARK    1  A    between atoms: C_1  and  C_2
REMARK    2  A    between atoms: C_2  and  C_3
REMARK    3  A    between atoms: C_8  and  O_32
REMARK    4  A    between atoms: C_9  and  C_11
REMARK    5  A    between atoms: C_11  and  C_13
REMARK    6  A    between atoms: C_11  and  N_22
REMARK    7  A    between atoms: C_16  and  C_19
REMARK    8  A    between atoms: C_19  and  C_20
REMARK    9  A    between atoms: C_19  and  C_21
REMARK                            x       y       z     vdW  Elec       q    Type
REMARK                         _______ _______ _______ _____ _____    ______ ____
ROOT
ATOM      1  C   UNL     1       4.172  -2.393  -5.702  0.00  0.00    +0.005 C 
ENDROOT
BRANCH   1   2
ATOM      2  N   UNL     1       3.760  -3.689  -6.257  0.00  0.00    +0.388 N 
ATOM      3  C   UNL     1       4.754  -4.137  -7.239  0.00  0.00    -0.072 C 
ATOM      4  C   UNL     1       4.287  -5.445  -7.883  0.00  0.00    +0.046 C 
ATOM      5  C   UNL     1       4.117  -6.508  -6.795  0.00  0.00    +0.167 C 
ATOM      6  C   UNL     1       3.140  -6.001  -5.731  0.00  0.00    +0.046 C 
ATOM      7  C   UNL     1       3.652  -4.671  -5.172  0.00  0.00    -0.072 C 
ATOM      8  O   UNL     1       3.603  -7.715  -7.380  0.00  0.00    -0.346 OA
ATOM      9  C   UNL     1       4.773  -8.530  -7.634  0.00  0.00    +0.191 C 
ATOM     10  C   UNL     1       5.668  -8.184  -6.418  0.00  0.00    +0.191 C 
ATOM     11  O   UNL     1       5.385  -6.788  -6.191  0.00  0.00    -0.346 OA
ATOM     12  H   UNL     1       2.863  -3.590  -6.710  0.00  0.00    -0.080 HD
ENDBRANCH   1   2
BRANCH   1  19
ATOM     13  C   UNL     1       0.707  -0.490  -1.238  0.00  0.00    +0.152 A 
ATOM     14  N   UNL     1       0.124  -0.743  -2.408  0.00  0.00    -0.205 NA
ATOM     15  C   UNL     1       1.025  -1.146  -3.261  0.00  0.00    +0.199 A 
ATOM     16  N   UNL     1       2.247  -1.167  -2.660  0.00  0.00    -0.173 N 
ATOM     17  N   UNL     1       1.988  -0.724  -1.336  0.00  0.00    -0.147 NA
ATOM     18  C   UNL     1       3.316  -1.572  -3.422  0.00  0.00    +0.225 A 
ATOM     19  C   UNL     1       3.147  -1.926  -4.701  0.00  0.00    +0.045 A 
ATOM     20  S   UNL     1       1.388  -1.698  -4.910  0.00  0.00    -0.050 S 
BRANCH  13  22
ATOM     21  C   UNL     1      -0.019   1.526   0.010  0.00  0.00    +0.012 C 
ATOM     22  C   UNL     1       0.002  -0.004   0.002  0.00  0.00    +0.075 C 
ENDBRANCH  13  22
BRANCH  18  23
ATOM     23  O   UNL     1       4.559  -1.612  -2.870  0.00  0.00    -0.492 OA
ATOM     24  H   UNL     1       4.587  -1.339  -1.943  0.00  0.00    +0.294 HD
ENDBRANCH  18  23
ENDBRANCH   1  19
BRANCH   1  25
ATOM     25  C   UNL     1       4.283  -1.383  -6.815  0.00  0.00    -0.056 A 
ATOM     26  C   UNL     1       3.343  -1.365  -7.829  0.00  0.00    +0.002 A 
ATOM     27  C   UNL     1       3.445  -0.439  -8.850  0.00  0.00    +0.004 A 
ATOM     28  C   UNL     1       4.486   0.470  -8.857  0.00  0.00    -0.045 A 
ATOM     29  C   UNL     1       5.426   0.454  -7.843  0.00  0.00    +0.004 A 
ATOM     30  C   UNL     1       5.321  -0.470  -6.820  0.00  0.00    +0.002 A 
BRANCH  28  31
ATOM     31  C   UNL     1       4.598   1.480  -9.971  0.00  0.00    +0.013 C 
ATOM     32  C   UNL     1       4.536   2.893  -9.386  0.00  0.00    +0.012 C 
ATOM     33  C   UNL     1       5.928   1.288 -10.701  0.00  0.00    +0.012 C 
ENDBRANCH  28  31
ENDBRANCH   1  25
TORSDOF 6
