REMARK  Name = ZINC40744428
REMARK  8 active torsions:
REMARK  status: ('A' for Active; 'I' for Inactive)
REMARK    1  A    between atoms: C_1  and  O_2
REMARK    2  A    between atoms: O_2  and  C_3
REMARK    3  A    between atoms: C_6  and  C_10
REMARK    4  A    between atoms: C_10  and  N_11
REMARK    5  A    between atoms: N_11  and  C_12
REMARK    6  A    between atoms: C_12  and  C_13
REMARK    7  A    between atoms: C_13  and  N_14
REMARK    8  A    between atoms: C_15  and  C_17
REMARK                            x       y       z     vdW  Elec       q    Type
REMARK                         _______ _______ _______ _____ _____    ______ ____
ROOT
ATOM      1  N   UNL     1      -6.062  -1.634   0.045  0.00  0.00    +0.383 N 
ATOM      2  H   UNL     1      -5.980  -1.057   0.869  0.00  0.00    -0.085 HD
ATOM      3  H   UNL     1      -5.992  -1.055  -0.779  0.00  0.00    -0.085 HD
ENDROOT
BRANCH   1   4
ATOM      4  C   UNL     1      -4.982  -2.631   0.035  0.00  0.00    -0.047 C 
BRANCH   4   8
ATOM      5  C   UNL     1      -1.201  -0.638   0.010  0.00  0.00    +0.157 A 
ATOM      6  C   UNL     1      -1.807  -0.963   1.215  0.00  0.00    +0.084 A 
ATOM      7  C   UNL     1      -3.030  -1.608   1.220  0.00  0.00    +0.025 A 
ATOM      8  C   UNL     1      -3.650  -1.928   0.027  0.00  0.00    -0.061 A 
ATOM      9  C   UNL     1      -3.048  -1.605  -1.176  0.00  0.00    +0.025 A 
ATOM     10  C   UNL     1      -1.827  -0.955  -1.187  0.00  0.00    +0.084 A 
ATOM     11 CL   UNL     1      -1.076  -0.543  -2.697  0.00  0.00    -0.080 Cl
ATOM     12 CL   UNL     1      -1.030  -0.562   2.715  0.00  0.00    -0.080 Cl
BRANCH   5  14
ATOM     13  C   UNL     1      -0.017   1.425   0.010  0.00  0.00    +0.277 C 
ATOM     14  O   UNL     1       0.002  -0.004   0.002  0.00  0.00    -0.492 OA
ENDBRANCH   5  14
ENDBRANCH   4   8
ENDBRANCH   1   4
BRANCH   1  15
ATOM     15  C   UNL     1      -7.361  -2.319   0.054  0.00  0.00    -0.063 C 
BRANCH  15  16
ATOM     16  C   UNL     1      -8.485  -1.281   0.063  0.00  0.00    +0.085 C 
BRANCH  16  17
ATOM     17  N   UNL     1      -9.781  -1.964   0.072  0.00  0.00    -0.312 N 
ATOM     18  C   UNL     1     -10.921  -1.246   0.081  0.00  0.00    +0.269 C 
ATOM     19  O   UNL     1     -10.874  -0.032   0.083  0.00  0.00    -0.268 OA
ATOM     20  H   UNL     1      -9.818  -2.933   0.071  0.00  0.00    +0.149 HD
BRANCH  18  21
ATOM     21  C   UNL     1     -12.231  -1.937   0.090  0.00  0.00    +0.209 A 
ATOM     22  C   UNL     1     -13.546  -1.286   0.095  0.00  0.00    +0.192 A 
ATOM     23  N   UNL     1     -14.464  -2.215   0.102  0.00  0.00    -0.033 NA
ATOM     24  O   UNL     1     -13.811  -3.472   0.103  0.00  0.00    -0.240 OA
ATOM     25  N   UNL     1     -12.415  -3.232   0.089  0.00  0.00    -0.042 NA
ATOM     26  N   UNL     1     -13.776   0.083   0.092  0.00  0.00    -0.339 N 
ATOM     27  H   UNL     1     -13.028   0.700   0.086  0.00  0.00    +0.144 HD
ATOM     28  H   UNL     1     -14.685   0.422   0.095  0.00  0.00    +0.144 HD
ENDBRANCH  18  21
ENDBRANCH  16  17
ENDBRANCH  15  16
ENDBRANCH   1  15
TORSDOF 7
