REMARK  Name = ZINC09092867
REMARK  5 active torsions:
REMARK  status: ('A' for Active; 'I' for Inactive)
REMARK    1  A    between atoms: C_1  and  C_2
REMARK    2  A    between atoms: C_2  and  C_22
REMARK    3  A    between atoms: N_5  and  C_9
REMARK    4  A    between atoms: C_9  and  C_10
REMARK    5  A    between atoms: N_12  and  C_13
REMARK                            x       y       z     vdW  Elec       q    Type
REMARK                         _______ _______ _______ _____ _____    ______ ____
ROOT
ATOM      1  C   UNL     1      -7.566   5.348  -0.605  0.00  0.00    +0.047 C 
ATOM      2  C   UNL     1      -7.763   3.913  -0.114  0.00  0.00    +0.135 C 
ATOM      3  C   UNL     1      -6.704   2.999  -0.698  0.00  0.00    +0.251 C 
ATOM      4  O   UNL     1      -6.512   2.757  -1.870  0.00  0.00    -0.272 OA
ATOM      5  N   UNL     1      -6.021   2.511   0.357  0.00  0.00    -0.215 N 
ATOM      6  C   UNL     1      -6.500   2.981   1.514  0.00  0.00    +0.310 C 
ATOM      7  O   UNL     1      -6.050   2.682   2.603  0.00  0.00    -0.252 OA
ATOM      8  N   UNL     1      -7.532   3.826   1.339  0.00  0.00    -0.281 N 
ATOM      9  H   UNL     1      -8.030   4.286   2.033  0.00  0.00    +0.152 HD
ENDROOT
BRANCH   2  10
ATOM     10  C   UNL     1      -9.143   3.418  -0.465  0.00  0.00    -0.012 A 
ATOM     11  C   UNL     1      -9.348   2.726  -1.644  0.00  0.00    +0.010 A 
ATOM     12  C   UNL     1     -10.612   2.270  -1.970  0.00  0.00    +0.050 A 
ATOM     13  C   UNL     1     -11.676   2.506  -1.115  0.00  0.00    +0.166 A 
ATOM     14  C   UNL     1     -11.469   3.204   0.072  0.00  0.00    +0.167 A 
ATOM     15  C   UNL     1     -10.199   3.653   0.395  0.00  0.00    +0.055 A 
ATOM     16  O   UNL     1     -12.660   3.305   0.732  0.00  0.00    -0.453 OA
ATOM     17  C   UNL     1     -13.671   3.021  -0.254  0.00  0.00    +0.466 C 
ATOM     18  O   UNL     1     -12.996   2.170  -1.200  0.00  0.00    -0.453 OA
ENDBRANCH   2  10
BRANCH   5  19
ATOM     19  C   UNL     1      -4.898   1.577   0.249  0.00  0.00    +0.214 C 
BRANCH  19  20
ATOM     20  C   UNL     1      -3.610   2.351   0.134  0.00  0.00    +0.235 C 
ATOM     21  O   UNL     1      -3.629   3.564   0.141  0.00  0.00    -0.274 OA
ATOM     22  N   UNL     1      -2.438   1.696   0.023  0.00  0.00    -0.283 N 
ATOM     23  H   UNL     1      -2.428   0.730  -0.063  0.00  0.00    +0.155 HD
BRANCH  22  24
ATOM     24  C   UNL     1      -1.233   2.410   0.032  0.00  0.00    +0.053 A 
ATOM     25  C   UNL     1      -1.166   3.653   0.646  0.00  0.00    +0.046 A 
ATOM     26  C   UNL     1       0.022   4.358   0.648  0.00  0.00    +0.061 A 
ATOM     27  C   UNL     1       1.148   3.823   0.044  0.00  0.00    +0.061 A 
ATOM     28  C   UNL     1       1.085   2.582  -0.564  0.00  0.00    +0.043 A 
ATOM     29  C   UNL     1      -0.102   1.873  -0.569  0.00  0.00    +0.064 A 
ATOM     30 CL   UNL     1      -0.180   0.316  -1.333  0.00  0.00    -0.082 Cl
ATOM     31 CL   UNL     1       2.639   4.711   0.049  0.00  0.00    -0.082 Cl
ATOM     32 CL   UNL     1       0.105   5.917   1.410  0.00  0.00    -0.082 Cl
ENDBRANCH  22  24
ENDBRANCH  19  20
ENDBRANCH   5  19
TORSDOF 4
