REMARK  Name = ZINC12296442
REMARK  7 active torsions:
REMARK  status: ('A' for Active; 'I' for Inactive)
REMARK    1  A    between atoms: C_3  and  S_8
REMARK    2  A    between atoms: S_8  and  N_11
REMARK    3  A    between atoms: N_11  and  C_12
REMARK    4  A    between atoms: C_12  and  C_13
REMARK    5  A    between atoms: C_16  and  C_19
REMARK    6  A    between atoms: N_21  and  C_22
REMARK    7  A    between atoms: C_22  and  C_23
REMARK                            x       y       z     vdW  Elec       q    Type
REMARK                         _______ _______ _______ _____ _____    ______ ____
ROOT
ATOM      1  C   UNL     1       2.285  -3.462  -3.741  0.00  0.00    +0.005 C 
ATOM      2  C   UNL     1       2.452  -4.938  -3.373  0.00  0.00    +0.005 C 
ATOM      3  C   UNL     1       2.377  -5.791  -4.641  0.00  0.00    +0.013 C 
ATOM      4  C   UNL     1       3.493  -5.376  -5.601  0.00  0.00    +0.075 C 
ATOM      5  C   UNL     1       3.326  -3.900  -5.969  0.00  0.00    +0.013 C 
ATOM      6  C   UNL     1       3.401  -3.047  -4.702  0.00  0.00    +0.005 C 
ENDROOT
BRANCH   4   7
ATOM      7  C   UNL     1       3.420  -6.216  -6.850  0.00  0.00    +0.216 C 
ATOM      8  O   UNL     1       3.251  -5.687  -7.928  0.00  0.00    -0.276 OA
ATOM      9  N   UNL     1       3.542  -7.556  -6.769  0.00  0.00    -0.315 N 
ATOM     10  H   UNL     1       3.678  -7.979  -5.907  0.00  0.00    +0.149 HD
BRANCH   9  11
ATOM     11  C   UNL     1       3.471  -8.373  -7.983  0.00  0.00    +0.106 C 
BRANCH  11  12
ATOM     12  C   UNL     1       3.638  -9.849  -7.615  0.00  0.00    -0.008 C 
ATOM     13  C   UNL     1       5.041 -10.076  -7.051  0.00  0.00    +0.002 C 
ATOM     14  C   UNL     1       6.069  -9.739  -8.130  0.00  0.00    -0.018 C 
ATOM     15  C   UNL     1       5.814 -10.624  -9.349  0.00  0.00    -0.078 C 
ATOM     16  C   UNL     1       3.435 -10.711  -8.865  0.00  0.00    -0.064 C 
ATOM     17  C   UNL     1       2.038 -10.419  -9.423  0.00  0.00    -0.015 C 
ATOM     18  C   UNL     1       1.811 -11.226 -10.703  0.00  0.00    -0.003 C 
ATOM     19  C   UNL     1       2.903 -10.863 -11.715  0.00  0.00    -0.019 C 
ATOM     20  C   UNL     1       4.268 -11.173 -11.101  0.00  0.00    -0.078 C 
ATOM     21  N   UNL     1       4.463 -10.369  -9.881  0.00  0.00    +0.382 N 
ATOM     22  H   UNL     1       4.376  -9.373 -10.118  0.00  0.00    -0.081 HD
ENDBRANCH  11  12
ENDBRANCH   9  11
ENDBRANCH   4   7
BRANCH   1  23
ATOM     23  C   UNL     1       2.359  -2.609  -2.473  0.00  0.00    +0.109 C 
BRANCH  23  24
ATOM     24  N   UNL     1       1.222  -2.923  -1.605  0.00  0.00    -0.190 NA
ATOM     25  H   UNL     1       0.463  -3.414  -1.959  0.00  0.00    +0.148 HD
BRANCH  24  26
ATOM     26  S   UNL     1       1.230  -2.441  -0.021  0.00  0.00    +0.058 S 
ATOM     27  O   UNL     1       2.486  -2.834   0.516  0.00  0.00    -0.153 OA
ATOM     28  O   UNL     1      -0.004  -2.866   0.539  0.00  0.00    -0.153 OA
BRANCH  26  31
ATOM     29  C   UNL     1      -0.017   1.378   0.010  0.00  0.00    +0.040 A 
ATOM     30  C   UNL     1       0.002  -0.004   0.002  0.00  0.00    +0.031 A 
ATOM     31  C   UNL     1       1.208  -0.679  -0.013  0.00  0.00    +0.105 A 
ATOM     32  C   UNL     1       2.397   0.026  -0.020  0.00  0.00    +0.031 A 
ATOM     33  C   UNL     1       2.381   1.408  -0.013  0.00  0.00    +0.040 A 
ATOM     34  C   UNL     1       1.173   2.086   0.002  0.00  0.00    +0.124 A 
ATOM     35  F   UNL     1       1.156   3.437   0.009  0.00  0.00    -0.205 F 
ENDBRANCH  26  31
ENDBRANCH  24  26
ENDBRANCH  23  24
ENDBRANCH   1  23
TORSDOF 7
