REMARK  Name = ZINC30742903
REMARK  9 active torsions:
REMARK  status: ('A' for Active; 'I' for Inactive)
REMARK    1  A    between atoms: C_1  and  C_2
REMARK    2  A    between atoms: C_2  and  C_3
REMARK    3  A    between atoms: C_2  and  C_4
REMARK    4  A    between atoms: C_2  and  C_5
REMARK    5  A    between atoms: C_12  and  C_16
REMARK    6  A    between atoms: N_18  and  N_19
REMARK    7  A    between atoms: C_20  and  C_21
REMARK    8  A    between atoms: C_24  and  O_28
REMARK    9  A    between atoms: C_26  and  O_27
REMARK                            x       y       z     vdW  Elec       q    Type
REMARK                         _______ _______ _______ _____ _____    ______ ____
ROOT
ATOM      1  C   UNL     1       5.553   3.830   3.447  0.00  0.00    +0.276 C 
ATOM      2  O   UNL     1       6.577   4.481   3.425  0.00  0.00    -0.270 OA
ATOM      3  N   UNL     1       5.062   3.306   2.307  0.00  0.00    -0.204 N 
ATOM      4  H   UNL     1       4.185   2.644   2.338  0.00  0.00    +0.177 HD
ENDROOT
BRANCH   1  12
ATOM      5  C   UNL     1       5.005   4.737   9.374  0.00  0.00    -0.038 A 
ATOM      6  C   UNL     1       3.626   4.667   9.437  0.00  0.00    +0.008 A 
ATOM      7  C   UNL     1       2.890   4.438   8.290  0.00  0.00    +0.050 A 
ATOM      8  C   UNL     1       3.533   4.277   7.072  0.00  0.00    +0.162 A 
ATOM      9  C   UNL     1       4.920   4.350   7.008  0.00  0.00    +0.163 A 
ATOM     10  C   UNL     1       5.652   4.579   8.163  0.00  0.00    +0.053 A 
ATOM     11  O   UNL     1       5.571   4.203   5.822  0.00  0.00    -0.472 OA
ATOM     12  C   UNL     1       4.830   3.607   4.751  0.00  0.00    +0.297 C 
ATOM     13  C   UNL     1       3.447   4.269   4.696  0.00  0.00    +0.283 C 
ATOM     14  O   UNL     1       2.795   4.050   5.951  0.00  0.00    -0.484 OA
BRANCH   5  16
ATOM     15  C   UNL     1       4.854   5.124  11.818  0.00  0.00    +0.015 C 
ATOM     16  C   UNL     1       5.804   4.986  10.627  0.00  0.00    -0.013 C 
ATOM     17  C   UNL     1       6.756   3.812  10.867  0.00  0.00    +0.015 C 
ATOM     18  C   UNL     1       6.613   6.275  10.468  0.00  0.00    +0.015 C 
ENDBRANCH   5  16
ENDBRANCH   1  12
BRANCH   3  19
ATOM     19  N   UNL     1       5.670   3.606   1.080  0.00  0.00    -0.187 NA
ATOM     20  C   UNL     1       5.119   3.217  -0.029  0.00  0.00    +0.142 C 
BRANCH  20  21
ATOM     21  C   UNL     1       3.672   2.945  -0.077  0.00  0.00    +0.036 A 
ATOM     22  C   UNL     1       2.829   3.457   0.912  0.00  0.00    +0.016 A 
ATOM     23  C   UNL     1       1.476   3.199   0.864  0.00  0.00    +0.046 A 
ATOM     24  C   UNL     1       0.947   2.431  -0.166  0.00  0.00    +0.120 A 
ATOM     25  C   UNL     1       1.777   1.913  -1.150  0.00  0.00    +0.091 A 
ATOM     26  C   UNL     1       3.136   2.170  -1.116  0.00  0.00    +0.129 A 
BRANCH  26  27
ATOM     27  O   UNL     1       3.949   1.669  -2.081  0.00  0.00    -0.506 OA
ATOM     28  H   UNL     1       3.526   1.061  -2.895  0.00  0.00    +0.292 HD
ENDBRANCH  26  27
BRANCH  24  29
ATOM     29  O   UNL     1      -0.388   2.181  -0.206  0.00  0.00    -0.507 OA
ATOM     30  H   UNL     1      -0.809   1.573  -1.021  0.00  0.00    +0.292 HD
ENDBRANCH  24  29
ENDBRANCH  20  21
ENDBRANCH   3  19
TORSDOF 6
