REMARK  Name = ZINC64600460
REMARK  8 active torsions:
REMARK  status: ('A' for Active; 'I' for Inactive)
REMARK    1  A    between atoms: C_4  and  C_7
REMARK    2  A    between atoms: C_7  and  C_8
REMARK    3  A    between atoms: C_8  and  C_10
REMARK    4  A    between atoms: C_8  and  N_24
REMARK    5  A    between atoms: N_12  and  C_13
REMARK    6  A    between atoms: C_13  and  C_14
REMARK    7  A    between atoms: C_14  and  C_15
REMARK    8  A    between atoms: C_29  and  O_37
REMARK                            x       y       z     vdW  Elec       q    Type
REMARK                         _______ _______ _______ _____ _____    ______ ____
ROOT
ATOM      1  C   UNL     1       4.171  -0.963   1.399  0.00  0.00    +0.165 C 
ENDROOT
BRANCH   1   2
ATOM      2  N   UNL     1       3.229  -1.870   2.059  0.00  0.00    -0.287 N 
ATOM      3  C   UNL     1       2.116  -1.379   2.640  0.00  0.00    +0.308 C 
ATOM      4  O   UNL     1       1.895  -0.184   2.616  0.00  0.00    -0.252 OA
ATOM      5  N   UNL     1       1.249  -2.213   3.248  0.00  0.00    -0.245 N 
ATOM      6  C   UNL     1       1.489  -3.665   3.301  0.00  0.00    +0.210 C 
ATOM      7  C   UNL     1       0.185  -4.385   3.075  0.00  0.00    +0.206 C 
ATOM      8  N   UNL     1      -0.951  -3.846   3.384  0.00  0.00    -0.214 NA
ATOM      9  C   UNL     1      -1.033  -2.589   3.921  0.00  0.00    +0.089 A 
ATOM     10  C   UNL     1       0.082  -1.735   3.862  0.00  0.00    +0.064 A 
ATOM     11  C   UNL     1       0.017  -0.463   4.396  0.00  0.00    +0.026 A 
ATOM     12  C   UNL     1      -1.151  -0.030   4.999  0.00  0.00    +0.002 A 
ATOM     13  C   UNL     1      -2.251  -0.866   5.070  0.00  0.00    +0.002 A 
ATOM     14  C   UNL     1      -2.204  -2.144   4.528  0.00  0.00    +0.030 A 
ATOM     15  H   UNL     1       3.406  -2.823   2.078  0.00  0.00    +0.151 HD
BRANCH   7  16
ATOM     16  O   UNL     1       0.202  -5.622   2.538  0.00  0.00    -0.494 OA
ATOM     17  H   UNL     1      -0.675  -6.014   2.426  0.00  0.00    +0.293 HD
ENDBRANCH   7  16
ENDBRANCH   1   2
BRANCH   1  18
ATOM     18  C   UNL     1       5.543  -1.588   1.383  0.00  0.00    +0.234 C 
ATOM     19  O   UNL     1       5.715  -2.683   1.875  0.00  0.00    -0.274 OA
ATOM     20  N   UNL     1       6.577  -0.931   0.823  0.00  0.00    -0.313 N 
ATOM     21  H   UNL     1       6.438  -0.055   0.429  0.00  0.00    +0.149 HD
BRANCH  20  22
ATOM     22  C   UNL     1       7.910  -1.538   0.807  0.00  0.00    +0.108 C 
BRANCH  22  23
ATOM     23  C   UNL     1       8.894  -0.592   0.117  0.00  0.00    +0.052 C 
BRANCH  23  24
ATOM     24  C   UNL     1      10.265  -1.217   0.102  0.00  0.00    -0.040 C 
ATOM     25  C   UNL     1      10.820  -1.934  -0.901  0.00  0.00    -0.001 A 
ATOM     26  C   UNL     1      10.332  -2.334  -2.227  0.00  0.00    +0.010 A 
ATOM     27  C   UNL     1      11.135  -3.070  -3.027  0.00  0.00    +0.001 A 
ATOM     28  C   UNL     1      12.419  -3.460  -2.624  0.00  0.00    +0.002 A 
ATOM     29  C   UNL     1      12.938  -3.132  -1.422  0.00  0.00    +0.026 A 
ATOM     30  C   UNL     1      12.180  -2.359  -0.499  0.00  0.00    +0.043 A 
ATOM     31  N   UNL     1      12.455  -1.921   0.705  0.00  0.00    -0.380 N 
ATOM     32  C   UNL     1      11.302  -1.163   1.202  0.00  0.00    +0.144 C 
ATOM     33  H   UNL     1      13.284  -2.070   1.186  0.00  0.00    +0.160 HD
ENDBRANCH  23  24
ENDBRANCH  22  23
ENDBRANCH  20  22
ENDBRANCH   1  18
BRANCH   1  34
ATOM     34  C   UNL     1       3.711  -0.707  -0.038  0.00  0.00    +0.067 C 
BRANCH  34  38
ATOM     35  C   UNL     1      -0.017   1.378   0.010  0.00  0.00    +0.000 A 
ATOM     36  C   UNL     1       1.171   2.086   0.002  0.00  0.00    +0.000 A 
ATOM     37  C   UNL     1       2.377   1.411  -0.013  0.00  0.00    +0.004 A 
ATOM     38  C   UNL     1       2.396   0.029  -0.020  0.00  0.00    -0.045 A 
ATOM     39  C   UNL     1       1.208  -0.679  -0.012  0.00  0.00    +0.004 A 
ATOM     40  C   UNL     1       0.002  -0.004   0.002  0.00  0.00    +0.000 A 
ENDBRANCH  34  38
ENDBRANCH   1  34
TORSDOF 8
