REMARK  Name = ZINC02761936
REMARK  7 active torsions:
REMARK  status: ('A' for Active; 'I' for Inactive)
REMARK    1  A    between atoms: C_1  and  N_2
REMARK    2  A    between atoms: C_13  and  C_15
REMARK    3  A    between atoms: C_17  and  C_38
REMARK    4  A    between atoms: C_18  and  N_37
REMARK    5  A    between atoms: N_19  and  C_27
REMARK    6  A    between atoms: C_30  and  S_33
REMARK    7  A    between atoms: S_33  and  N_36
REMARK                            x       y       z     vdW  Elec       q    Type
REMARK                         _______ _______ _______ _____ _____    ______ ____
ROOT
ATOM      1  C   UNL     1      -1.005   2.102   0.041  0.00  0.00    +0.097 C 
ATOM      2  C   UNL     1      -2.308   1.358   0.037  0.00  0.00    +0.077 C 
ATOM      3  C   UNL     1      -2.340   0.000   0.014  0.00  0.00    +0.107 C 
ATOM      4  N   UNL     1      -1.166  -0.718   0.004  0.00  0.00    -0.260 N 
ATOM      5  C   UNL     1       0.008  -0.140   0.409  0.00  0.00    +0.024 C 
ATOM      6  C   UNL     1       0.133   1.204   0.456  0.00  0.00    +0.025 C 
ATOM      7  C   UNL     1       1.328   1.806   0.886  0.00  0.00    +0.162 C 
ATOM      8  O   UNL     1       1.412   3.018   0.905  0.00  0.00    -0.292 OA
ATOM      9  C   UNL     1       2.505   0.978   1.324  0.00  0.00    +0.080 C 
ATOM     10  C   UNL     1       1.998  -0.356   1.881  0.00  0.00    +0.014 C 
ATOM     11  C   UNL     1       1.153  -1.040   0.804  0.00  0.00    +0.052 C 
ENDROOT
BRANCH   1  24
ATOM     12  C   UNL     1       0.224   3.787  -6.375  0.00  0.00    +0.149 C 
ATOM     13  N   UNL     1       0.013   4.351  -5.039  0.00  0.00    -0.343 N 
ATOM     14  C   UNL     1       0.023   5.702  -4.740  0.00  0.00    +0.050 A 
ATOM     15  C   UNL     1       0.218   6.834  -5.526  0.00  0.00    +0.026 A 
ATOM     16  C   UNL     1       0.175   8.086  -4.953  0.00  0.00    +0.002 A 
ATOM     17  C   UNL     1      -0.062   8.233  -3.595  0.00  0.00    +0.001 A 
ATOM     18  C   UNL     1      -0.257   7.125  -2.800  0.00  0.00    +0.010 A 
ATOM     19  C   UNL     1      -0.216   5.852  -3.366  0.00  0.00    +0.008 A 
ATOM     20  C   UNL     1      -0.379   4.493  -2.818  0.00  0.00    +0.008 A 
ATOM     21  C   UNL     1      -0.228   3.608  -3.897  0.00  0.00    +0.050 A 
ATOM     22  C   UNL     1      -0.333   2.239  -3.674  0.00  0.00    +0.027 A 
ATOM     23  C   UNL     1      -0.578   1.763  -2.403  0.00  0.00    +0.006 A 
ATOM     24  C   UNL     1      -0.732   2.639  -1.340  0.00  0.00    -0.034 A 
ATOM     25  C   UNL     1      -0.631   3.999  -1.541  0.00  0.00    +0.015 A 
ENDBRANCH   1  24
BRANCH   4  26
ATOM     26  C   UNL     1      -1.172  -2.051  -0.422  0.00  0.00    +0.040 A 
ATOM     27  C   UNL     1      -0.902  -2.358  -1.750  0.00  0.00    +0.026 A 
ATOM     28  C   UNL     1      -0.902  -3.675  -2.166  0.00  0.00    +0.030 A 
ATOM     29  C   UNL     1      -1.183  -4.687  -1.266  0.00  0.00    +0.105 A 
ATOM     30  C   UNL     1      -1.458  -4.384   0.055  0.00  0.00    +0.030 A 
ATOM     31  C   UNL     1      -1.453  -3.070   0.479  0.00  0.00    +0.026 A 
BRANCH  29  32
ATOM     32  S   UNL     1      -1.189  -6.365  -1.803  0.00  0.00    +0.056 S 
ATOM     33  O   UNL     1      -0.366  -6.424  -2.960  0.00  0.00    -0.153 OA
ATOM     34  O   UNL     1      -0.942  -7.160  -0.651  0.00  0.00    -0.153 OA
BRANCH  32  35
ATOM     35  N   UNL     1      -2.729  -6.715  -2.299  0.00  0.00    -0.204 NA
ATOM     36  H   UNL     1      -2.876  -7.371  -2.998  0.00  0.00    +0.144 HD
ATOM     37  H   UNL     1      -3.485  -6.263  -1.891  0.00  0.00    +0.144 HD
ENDBRANCH  32  35
ENDBRANCH  29  32
ENDBRANCH   4  26
BRANCH   3  38
ATOM     38  N   UNL     1      -3.547  -0.657   0.000  0.00  0.00    -0.345 N 
ATOM     39  H   UNL     1      -3.573  -1.624   0.072  0.00  0.00    +0.144 HD
ATOM     40  H   UNL     1      -4.372  -0.154  -0.082  0.00  0.00    +0.144 HD
ENDBRANCH   3  38
BRANCH   2  41
ATOM     41  C   UNL     1      -3.538   2.091   0.054  0.00  0.00    +0.099 C 
ATOM     42  N   UNL     1      -4.514   2.672   0.068  0.00  0.00    -0.191 NA
ENDBRANCH   2  41
TORSDOF 6
