REMARK  Name = ZINC54432111
REMARK  10 active torsions:
REMARK  status: ('A' for Active; 'I' for Inactive)
REMARK    1  A    between atoms: C_1  and  C_2
REMARK    2  A    between atoms: C_2  and  C_4
REMARK    3  A    between atoms: C_2  and  N_15
REMARK    4  A    between atoms: C_7  and  S_10
REMARK    5  A    between atoms: S_10  and  N_13
REMARK    6  A    between atoms: N_13  and  C_14
REMARK    7  A    between atoms: N_18  and  C_19
REMARK    8  A    between atoms: C_23  and  O_25
REMARK    9  A    between atoms: O_25  and  C_26
REMARK   10  A    between atoms: C_26  and  C_27
REMARK                            x       y       z     vdW  Elec       q    Type
REMARK                         _______ _______ _______ _____ _____    ______ ____
ROOT
ATOM      1  N   UNL     1       0.737  -0.334   1.233  0.00  0.00    -0.293 N 
ATOM      2  C   UNL     1       2.080  -0.444   1.235  0.00  0.00    +0.304 C 
ATOM      3  O   UNL     1       2.727  -0.001   0.306  0.00  0.00    -0.252 OA
ATOM      4  N   UNL     1       2.706  -1.046   2.266  0.00  0.00    -0.269 N 
ATOM      5  H   UNL     1       0.220  -0.688   1.974  0.00  0.00    +0.151 HD
ATOM      6  H   UNL     1       2.198  -1.331   3.042  0.00  0.00    +0.156 HD
ENDROOT
BRANCH   4   7
ATOM      7  C   UNL     1       4.088  -1.260   2.217  0.00  0.00    +0.038 A 
ATOM      8  C   UNL     1       4.840  -1.214   3.383  0.00  0.00    +0.023 A 
ATOM      9  C   UNL     1       6.205  -1.425   3.335  0.00  0.00    +0.005 A 
ATOM     10  C   UNL     1       6.824  -1.683   2.127  0.00  0.00    +0.046 A 
ATOM     11  C   UNL     1       6.077  -1.731   0.958  0.00  0.00    +0.124 A 
ATOM     12  C   UNL     1       4.707  -1.526   1.004  0.00  0.00    +0.069 A 
BRANCH  11  13
ATOM     13  O   UNL     1       6.688  -1.984  -0.229  0.00  0.00    -0.477 OA
BRANCH  13  14
ATOM     14  C   UNL     1       8.101  -2.192  -0.201  0.00  0.00    +0.346 C 
BRANCH  14  15
ATOM     15  C   UNL     1       8.587  -2.451  -1.566  0.00  0.00    +0.104 C 
ATOM     16  N   UNL     1       8.962  -2.651  -2.620  0.00  0.00    -0.193 NA
ENDBRANCH  14  15
ENDBRANCH  13  14
ENDBRANCH  11  13
ENDBRANCH   4   7
BRANCH   1  18
ATOM     17  C   UNL     1       0.034   1.833   0.343  0.00  0.00    +0.033 C 
ATOM     18  C   UNL     1       0.057   0.320   0.113  0.00  0.00    +0.102 C 
BRANCH  18  19
ATOM     19  C   UNL     1      -1.356  -0.194   0.013  0.00  0.00    -0.027 A 
ATOM     20  C   UNL     1      -2.096  -0.409   1.161  0.00  0.00    +0.007 A 
ATOM     21  C   UNL     1      -3.392  -0.880   1.070  0.00  0.00    +0.029 A 
ATOM     22  C   UNL     1      -3.949  -1.137  -0.169  0.00  0.00    +0.105 A 
ATOM     23  C   UNL     1      -3.210  -0.921  -1.317  0.00  0.00    +0.029 A 
ATOM     24  C   UNL     1      -1.915  -0.445  -1.226  0.00  0.00    +0.007 A 
BRANCH  22  25
ATOM     25  S   UNL     1      -5.601  -1.739  -0.285  0.00  0.00    +0.058 S 
ATOM     26  O   UNL     1      -5.699  -2.416  -1.531  0.00  0.00    -0.153 OA
ATOM     27  O   UNL     1      -5.889  -2.375   0.953  0.00  0.00    -0.153 OA
BRANCH  25  28
ATOM     28  N   UNL     1      -6.597  -0.420  -0.383  0.00  0.00    -0.193 NA
ATOM     29  C   UNL     1      -6.524   0.469  -1.546  0.00  0.00    +0.127 C 
ATOM     30  H   UNL     1      -7.229  -0.235   0.329  0.00  0.00    +0.148 HD
ENDBRANCH  25  28
ENDBRANCH  22  25
ENDBRANCH  18  19
ENDBRANCH   1  18
TORSDOF 8
