REMARK  Name = ZINC33127557
REMARK  6 active torsions:
REMARK  status: ('A' for Active; 'I' for Inactive)
REMARK    1  A    between atoms: C_1  and  C_2
REMARK    2  A    between atoms: C_2  and  C_3
REMARK    3  A    between atoms: C_2  and  C_4
REMARK    4  A    between atoms: C_4  and  C_6
REMARK    5  A    between atoms: C_4  and  N_17
REMARK    6  A    between atoms: N_20  and  C_21
REMARK                            x       y       z     vdW  Elec       q    Type
REMARK                         _______ _______ _______ _____ _____    ______ ____
ROOT
ATOM      1  C   UNL     1       3.541   6.262   0.295  0.00  0.00    +0.163 C 
ENDROOT
BRANCH   1   2
ATOM      2  C   UNL     1       3.327   7.650   0.841  0.00  0.00    +0.240 C 
ATOM      3  O   UNL     1       2.242   7.969   1.279  0.00  0.00    -0.273 OA
ATOM      4  N   UNL     1       4.341   8.537   0.842  0.00  0.00    -0.269 N 
ATOM      5  C   UNL     1       5.667   8.299   0.265  0.00  0.00    +0.118 C 
ATOM      6  C   UNL     1       6.455   9.595   0.515  0.00  0.00    +0.056 C 
ATOM      7  C   UNL     1       5.483  10.498   1.240  0.00  0.00    -0.024 A 
ATOM      8  C   UNL     1       4.281   9.823   1.389  0.00  0.00    +0.040 A 
ATOM      9  C   UNL     1       3.223  10.459   2.040  0.00  0.00    +0.024 A 
ATOM     10  C   UNL     1       3.371  11.744   2.517  0.00  0.00    +0.002 A 
ATOM     11  C   UNL     1       4.572  12.411   2.358  0.00  0.00    +0.000 A 
ATOM     12  C   UNL     1       5.627  11.785   1.720  0.00  0.00    +0.005 A 
ENDBRANCH   1   2
BRANCH   1  13
ATOM     13  N   UNL     1       2.451   5.389   0.739  0.00  0.00    -0.288 N 
ATOM     14  C   UNL     1       2.646   4.059   0.827  0.00  0.00    +0.304 C 
ATOM     15  O   UNL     1       3.726   3.582   0.537  0.00  0.00    -0.252 OA
ATOM     16  N   UNL     1       1.643   3.256   1.234  0.00  0.00    -0.269 N 
ATOM     17  H   UNL     1       1.473   5.820   1.001  0.00  0.00    +0.151 HD
ATOM     18  H   UNL     1       0.645   3.677   1.428  0.00  0.00    +0.156 HD
BRANCH  16  19
ATOM     19  C   UNL     1       1.870   1.886   1.412  0.00  0.00    +0.035 A 
ATOM     20  C   UNL     1       3.102   1.440   1.872  0.00  0.00    +0.024 A 
ATOM     21  C   UNL     1       3.324   0.088   2.047  0.00  0.00    +0.017 A 
ATOM     22  C   UNL     1       2.320  -0.822   1.763  0.00  0.00    +0.018 A 
ATOM     23  C   UNL     1       1.092  -0.379   1.304  0.00  0.00    +0.017 A 
ATOM     24  C   UNL     1       0.865   0.971   1.127  0.00  0.00    +0.024 A 
ATOM     25 BR   UNL     1       2.628  -2.672   2.002  0.00  0.00    -0.050 Br
ENDBRANCH  16  19
ENDBRANCH   1  13
BRANCH   1  27
ATOM     26  C   UNL     1       3.925   4.931  -1.784  0.00  0.00    +0.009 C 
ATOM     27  C   UNL     1       3.563   6.312  -1.234  0.00  0.00    +0.012 C 
ATOM     28  C   UNL     1       2.183   6.723  -1.751  0.00  0.00    +0.009 C 
ENDBRANCH   1  27
TORSDOF 4
