REMARK  Name = ZINC53629594
REMARK  8 active torsions:
REMARK  status: ('A' for Active; 'I' for Inactive)
REMARK    1  A    between atoms: C_1  and  C_2
REMARK    2  A    between atoms: C_5  and  C_9
REMARK    3  A    between atoms: C_7  and  C_8
REMARK    4  A    between atoms: C_13  and  C_23
REMARK    5  A    between atoms: C_17  and  C_19
REMARK    6  A    between atoms: N_25  and  C_26
REMARK    7  A    between atoms: C_26  and  C_27
REMARK    8  A    between atoms: C_27  and  C_28
REMARK                            x       y       z     vdW  Elec       q    Type
REMARK                         _______ _______ _______ _____ _____    ______ ____
ROOT
ATOM      1  C   UNL     1       0.060  -4.254  -0.021  0.00  0.00    +0.050 C 
ATOM      2  N   UNL     1       0.068  -4.903  -1.166  0.00  0.00    -0.342 N 
ATOM      3  C   UNL     1       0.086  -6.259  -1.199  0.00  0.00    +0.116 C 
ATOM      4  C   UNL     1       0.096  -7.085  -2.265  0.00  0.00    +0.045 C 
ATOM      5  C   UNL     1       0.116  -8.496  -1.723  0.00  0.00    +0.185 C 
ATOM      6  N   UNL     1       0.114  -8.328  -0.259  0.00  0.00    -0.218 NA
ATOM      7  N   UNL     1       0.096  -6.981  -0.014  0.00  0.00    -0.215 N 
ATOM      8  C   UNL     1       0.088  -6.314   1.188  0.00  0.00    +0.133 C 
ATOM      9  C   UNL     1       0.076  -4.966   1.203  0.00  0.00    +0.055 C 
ATOM     10  H   UNL     1      -0.685  -8.782   0.156  0.00  0.00    +0.146 HD
ATOM     11  H   UNL     1       0.060  -4.405  -1.998  0.00  0.00    +0.167 HD
ENDROOT
BRANCH   1  16
ATOM     12  C   UNL     1      -0.018   1.503   0.010  0.00  0.00    +0.044 C 
ATOM     13  C   UNL     1       0.002  -0.004   0.002  0.00  0.00    -0.047 A 
ATOM     14  C   UNL     1       0.006  -0.686  -1.202  0.00  0.00    +0.004 A 
ATOM     15  C   UNL     1       0.024  -2.066  -1.216  0.00  0.00    +0.010 A 
ATOM     16  C   UNL     1       0.040  -2.773  -0.013  0.00  0.00    -0.001 A 
ATOM     17  C   UNL     1       0.037  -2.079   1.197  0.00  0.00    +0.013 A 
ATOM     18  C   UNL     1       0.023  -0.699   1.198  0.00  0.00    -0.047 A 
ATOM     19  C   UNL     1       0.025   0.052   2.504  0.00  0.00    +0.044 C 
ENDBRANCH   1  16
BRANCH   8  20
ATOM     20  C   UNL     1       0.099  -7.086   2.483  0.00  0.00    +0.432 C 
ATOM     21  F   UNL     1       0.087  -6.191   3.559  0.00  0.00    -0.165 F 
ATOM     22  F   UNL     1      -1.032  -7.907   2.546  0.00  0.00    -0.165 F 
ATOM     23  F   UNL     1       1.252  -7.875   2.545  0.00  0.00    -0.165 F 
ENDBRANCH   8  20
BRANCH   5  24
ATOM     24  C   UNL     1      -1.111  -9.249  -2.170  0.00  0.00    +0.236 C 
ATOM     25  O   UNL     1      -1.895  -9.674  -1.348  0.00  0.00    -0.274 OA
ATOM     26  N   UNL     1      -1.338  -9.448  -3.484  0.00  0.00    -0.313 N 
ATOM     27  H   UNL     1      -0.711  -9.108  -4.141  0.00  0.00    +0.149 HD
BRANCH  26  28
ATOM     28  C   UNL     1      -2.530 -10.180  -3.918  0.00  0.00    +0.110 C 
BRANCH  28  29
ATOM     29  C   UNL     1      -2.548 -10.266  -5.446  0.00  0.00    +0.073 C 
BRANCH  29  30
ATOM     30  C   UNL     1      -3.775 -11.018  -5.893  0.00  0.00    +0.035 A 
ATOM     31  H   UNL     1      -6.756 -11.453  -6.701  0.00  0.00    +0.166 HD
ATOM     32  C   UNL     1      -5.000 -10.492  -6.083  0.00  0.00    +0.105 A 
ATOM     33  N   UNL     1      -5.812 -11.518  -6.486  0.00  0.00    -0.352 N 
ATOM     34  C   UNL     1      -5.055 -12.635  -6.527  0.00  0.00    +0.171 A 
ATOM     35  N   UNL     1      -3.836 -12.328  -6.176  0.00  0.00    -0.350 N 
ATOM     36  H   UNL     1      -3.093 -12.948  -6.127  0.00  0.00    +0.166 HD
ENDBRANCH  29  30
ENDBRANCH  28  29
ENDBRANCH  26  28
ENDBRANCH   5  24
TORSDOF 6
