REMARK  Name = ZINC05981741
REMARK  5 active torsions:
REMARK  status: ('A' for Active; 'I' for Inactive)
REMARK    1  A    between atoms: C_1  and  C_2
REMARK    2  A    between atoms: C_6  and  C_8
REMARK    3  A    between atoms: N_14  and  N_15
REMARK    4  A    between atoms: C_16  and  C_17
REMARK    5  A    between atoms: C_21  and  N_23
REMARK                            x       y       z     vdW  Elec       q    Type
REMARK                         _______ _______ _______ _____ _____    ______ ____
ROOT
ATOM      1  C   UNL     1      -2.503   1.014   0.020  0.00  0.00    +0.184 A 
ATOM      2  N   UNL     1      -2.650  -0.284   0.294  0.00  0.00    -0.152 NA
ATOM      3  N   UNL     1      -3.895  -0.599   0.202  0.00  0.00    -0.253 N 
ATOM      4  H   UNL     1      -4.266  -1.482   0.352  0.00  0.00    +0.191 HD
ATOM      5  C   UNL     1      -4.600   0.498  -0.139  0.00  0.00    +0.197 A 
ATOM      6  S   UNL     1      -6.293   0.582  -0.379  0.00  0.00    -0.010 S 
ATOM      7  N   UNL     1      -3.725   1.521  -0.248  0.00  0.00    -0.188 N 
ENDROOT
BRANCH   1  13
ATOM      8  C   UNL     1       2.485   1.047  -0.015  0.00  0.00    +0.044 C 
ATOM      9  C   UNL     1       1.170   1.783   0.001  0.00  0.00    -0.050 A 
ATOM     10  C   UNL     1       1.153   3.168   0.007  0.00  0.00    +0.003 A 
ATOM     11  C   UNL     1      -0.050   3.854   0.022  0.00  0.00    +0.001 A 
ATOM     12  C   UNL     1      -1.242   3.162   0.029  0.00  0.00    +0.011 A 
ATOM     13  C   UNL     1      -1.234   1.762   0.017  0.00  0.00    +0.021 A 
ATOM     14  C   UNL     1      -0.013   1.076   0.008  0.00  0.00    +0.015 A 
ENDBRANCH   1  13
BRANCH   7  15
ATOM     15  N   UNL     1      -4.026   2.848  -0.580  0.00  0.00    -0.171 NA
ATOM     16  C   UNL     1      -4.026   3.227  -1.835  0.00  0.00    +0.141 C 
BRANCH  16  17
ATOM     17  C   UNL     1      -4.341   4.617  -2.181  0.00  0.00    -0.003 A 
ATOM     18  C   UNL     1      -4.644   5.544  -1.173  0.00  0.00    +0.009 A 
ATOM     19  C   UNL     1      -4.938   6.847  -1.508  0.00  0.00    +0.003 A 
ATOM     20  C   UNL     1      -4.936   7.243  -2.836  0.00  0.00    +0.033 A 
ATOM     21  C   UNL     1      -4.638   6.335  -3.839  0.00  0.00    +0.127 A 
ATOM     22  C   UNL     1      -4.336   5.028  -3.522  0.00  0.00    +0.042 A 
BRANCH  21  23
ATOM     23  N   UNL     1      -4.637   6.770  -5.253  0.00  0.00    +0.056 N 
ATOM     24  O   UNL     1      -4.920   8.020  -5.557  0.00  0.00    -0.126 OA
ATOM     25  O   UNL     1      -4.354   5.908  -6.208  0.00  0.00    -0.126 OA
ENDBRANCH  21  23
ENDBRANCH  16  17
ENDBRANCH   7  15
TORSDOF 4
