REMARK  Name = ZINC39653892
REMARK  9 active torsions:
REMARK  status: ('A' for Active; 'I' for Inactive)
REMARK    1  A    between atoms: C_1  and  C_2
REMARK    2  A    between atoms: C_2  and  O_3
REMARK    3  A    between atoms: O_3  and  C_4
REMARK    4  A    between atoms: C_7  and  C_10
REMARK    5  A    between atoms: C_10  and  C_11
REMARK    6  A    between atoms: C_11  and  N_12
REMARK    7  A    between atoms: C_13  and  C_15
REMARK    8  A    between atoms: C_26  and  C_28
REMARK    9  A    between atoms: C_34  and  C_36
REMARK                            x       y       z     vdW  Elec       q    Type
REMARK                         _______ _______ _______ _____ _____    ______ ____
ROOT
ATOM      1  C   UNL     1       3.731 -10.138   0.895  0.00  0.00    +0.100 C 
ATOM      2  C   UNL     1       3.973 -10.501   2.377  0.00  0.00    +0.121 C 
ATOM      3  N   UNL     1       4.922 -11.638   2.334  0.00  0.00    -0.300 N 
ATOM      4  C   UNL     1       5.862 -11.292   1.241  0.00  0.00    +0.115 C 
ATOM      5  C   UNL     1       4.973 -10.659   0.153  0.00  0.00    -0.004 C 
ATOM      6  C   UNL     1       5.708  -9.504  -0.521  0.00  0.00    -0.010 C 
ATOM      7  C   UNL     1       6.906 -10.053  -1.301  0.00  0.00    -0.082 C 
ATOM      8  N   UNL     1       6.439 -11.016  -2.306  0.00  0.00    +0.379 N 
ATOM      9  C   UNL     1       5.816 -12.168  -1.643  0.00  0.00    -0.082 C 
ATOM     10  C   UNL     1       4.571 -11.708  -0.878  0.00  0.00    -0.010 C 
ATOM     11  C   UNL     1       4.928 -12.738   3.113  0.00  0.00    +0.219 C 
ATOM     12  O   UNL     1       5.779 -13.588   2.954  0.00  0.00    -0.275 OA
ATOM     13  H   UNL     1       5.763 -10.570  -2.908  0.00  0.00    -0.086 HD
ATOM     14  H   UNL     1       7.222 -11.331  -2.858  0.00  0.00    -0.086 HD
ENDROOT
BRANCH  11  15
ATOM     15  C   UNL     1       3.879 -12.913   4.180  0.00  0.00    +0.078 C 
ATOM     16  C   UNL     1       3.967 -11.754   5.175  0.00  0.00    +0.032 C 
ATOM     17  C   UNL     1       2.876 -11.915   6.239  0.00  0.00    +0.108 C 
ATOM     18  N   UNL     1       3.005 -13.246   6.849  0.00  0.00    -0.302 N 
ATOM     19  C   UNL     1       3.024 -14.426   5.974  0.00  0.00    +0.108 C 
ATOM     20  C   UNL     1       4.112 -14.236   4.913  0.00  0.00    +0.032 C 
ATOM     21  C   UNL     1       3.104 -13.381   8.187  0.00  0.00    +0.212 C 
ATOM     22  O   UNL     1       3.088 -12.399   8.898  0.00  0.00    -0.276 OA
ATOM     23  C   UNL     1       3.236 -14.753   8.797  0.00  0.00    +0.109 C 
ENDBRANCH  11  15
BRANCH   1  25
ATOM     24  N   UNL     1       2.865  -8.133  -0.267  0.00  0.00    -0.315 N 
ATOM     25  C   UNL     1       3.610  -8.645   0.733  0.00  0.00    +0.218 C 
ATOM     26  O   UNL     1       4.183  -7.903   1.503  0.00  0.00    -0.275 OA
ATOM     27  H   UNL     1       2.406  -8.726  -0.882  0.00  0.00    +0.149 HD
BRANCH  24  28
ATOM     28  C   UNL     1       2.748  -6.681  -0.424  0.00  0.00    +0.109 C 
BRANCH  28  29
ATOM     29  C   UNL     1       1.853  -6.369  -1.625  0.00  0.00    +0.054 C 
BRANCH  29  33
ATOM     30  C   UNL     1       1.511  -2.134  -2.084  0.00  0.00    +0.121 A 
ATOM     31  C   UNL     1       2.529  -2.823  -2.727  0.00  0.00    +0.046 A 
ATOM     32  C   UNL     1       2.638  -4.192  -2.577  0.00  0.00    +0.007 A 
ATOM     33  C   UNL     1       1.732  -4.876  -1.787  0.00  0.00    -0.046 A 
ATOM     34  C   UNL     1       0.716  -4.192  -1.145  0.00  0.00    +0.007 A 
ATOM     35  C   UNL     1       0.607  -2.822  -1.288  0.00  0.00    +0.046 A 
BRANCH  30  36
ATOM     36  O   UNL     1       1.402  -0.787  -2.230  0.00  0.00    -0.492 OA
BRANCH  36  38
ATOM     37  C   UNL     1       2.086   1.358  -3.108  0.00  0.00    +0.048 C 
ATOM     38  C   UNL     1       2.367  -0.145  -3.065  0.00  0.00    +0.225 C 
ENDBRANCH  36  38
ENDBRANCH  30  36
ENDBRANCH  29  33
ENDBRANCH  28  29
ENDBRANCH  24  28
ENDBRANCH   1  25
TORSDOF 7
