REMARK  Name = ZINC12642593
REMARK  14 active torsions:
REMARK  status: ('A' for Active; 'I' for Inactive)
REMARK    1  A    between atoms: C_1  and  C_2
REMARK    2  A    between atoms: C_2  and  C_3
REMARK    3  A    between atoms: C_3  and  C_4
REMARK    4  A    between atoms: C_3  and  C_5
REMARK    5  A    between atoms: C_3  and  N_6
REMARK    6  A    between atoms: C_7  and  C_11
REMARK    7  A    between atoms: C_11  and  C_13
REMARK    8  A    between atoms: C_11  and  N_64
REMARK    9  A    between atoms: C_18  and  C_19
REMARK   10  A    between atoms: C_18  and  N_64
REMARK   11  A    between atoms: C_22  and  O_25
REMARK   12  A    between atoms: O_25  and  C_26
REMARK   13  A    between atoms: C_27  and  C_28
REMARK   14  A    between atoms: C_27  and  N_64
REMARK                            x       y       z     vdW  Elec       q    Type
REMARK                         _______ _______ _______ _____ _____    ______ ____
ROOT
ATOM      1  N   UNL     1      -2.806  -2.824  -0.922  0.00  0.00    +0.395 N 
ATOM      2  H   UNL     1      -2.872  -2.498  -1.894  0.00  0.00    -0.079 HD
ENDROOT
BRANCH   1   3
ATOM      3  C   UNL     1      -1.971  -1.876  -0.154  0.00  0.00    +0.041 C 
BRANCH   3   5
ATOM      4  N   UNL     1       0.510  -2.238   0.311  0.00  0.00    -0.225 N 
ATOM      5  C   UNL     1      -0.525  -2.072  -0.532  0.00  0.00    +0.143 A 
ATOM      6  N   UNL     1      -0.032  -2.110  -1.746  0.00  0.00    -0.115 NA
ATOM      7  N   UNL     1       1.239  -2.298  -1.653  0.00  0.00    -0.023 NA
ATOM      8  N   UNL     1       1.570  -2.376  -0.411  0.00  0.00    -0.043 NA
BRANCH   4   9
ATOM      9  C   UNL     1       0.445  -2.264   1.775  0.00  0.00    +0.061 C 
ATOM     10  C   UNL     1      -0.437  -3.431   2.225  0.00  0.00    +0.036 C 
ATOM     11  C   UNL     1      -0.150  -0.950   2.282  0.00  0.00    +0.036 C 
BRANCH   9  13
ATOM     12  C   UNL     1       1.786  -2.467   3.873  0.00  0.00    +0.006 C 
ATOM     13  C   UNL     1       1.854  -2.440   2.345  0.00  0.00    +0.026 C 
ENDBRANCH   9  13
ENDBRANCH   4   9
ENDBRANCH   3   5
BRANCH   3  14
ATOM     14  C   UNL     1      -2.394  -0.471  -0.497  0.00  0.00    -0.016 A 
ATOM     15  C   UNL     1      -2.581   0.589   0.327  0.00  0.00    +0.010 A 
ATOM     16  C   UNL     1      -2.971   1.799  -0.215  0.00  0.00    +0.008 A 
ATOM     17  C   UNL     1      -3.166   1.887  -1.553  0.00  0.00    +0.045 A 
ATOM     18  S   UNL     1      -2.787   0.228  -2.092  0.00  0.00    -0.103 S 
ENDBRANCH   3  14
ENDBRANCH   1   3
BRANCH   1  19
ATOM     19  C   UNL     1      -2.191  -4.167  -0.906  0.00  0.00    -0.041 C 
BRANCH  19  20
ATOM     20  C   UNL     1      -2.936  -5.055  -1.870  0.00  0.00    -0.064 A 
ATOM     21  C   UNL     1      -4.007  -5.809  -1.427  0.00  0.00    +0.005 A 
ATOM     22  C   UNL     1      -4.695  -6.619  -2.309  0.00  0.00    +0.046 A 
ATOM     23  C   UNL     1      -4.303  -6.684  -3.639  0.00  0.00    +0.120 A 
ATOM     24  C   UNL     1      -3.225  -5.930  -4.080  0.00  0.00    +0.046 A 
ATOM     25  C   UNL     1      -2.544  -5.117  -3.194  0.00  0.00    +0.005 A 
BRANCH  23  26
ATOM     26  O   UNL     1      -4.976  -7.484  -4.508  0.00  0.00    -0.495 OA
ATOM     27  C   UNL     1      -6.075  -8.231  -3.984  0.00  0.00    +0.277 C 
ENDBRANCH  23  26
ENDBRANCH  19  20
ENDBRANCH   1  19
BRANCH   1  28
ATOM     28  C   UNL     1      -4.165  -2.883  -0.344  0.00  0.00    -0.040 C 
BRANCH  28  29
ATOM     29  C   UNL     1      -4.942  -1.680  -0.813  0.00  0.00    -0.046 A 
ATOM     30  C   UNL     1      -5.259  -0.671   0.077  0.00  0.00    +0.003 A 
ATOM     31  C   UNL     1      -5.968   0.434  -0.354  0.00  0.00    +0.000 A 
ATOM     32  C   UNL     1      -6.369   0.527  -1.674  0.00  0.00    +0.001 A 
ATOM     33  C   UNL     1      -6.058  -0.483  -2.564  0.00  0.00    +0.020 A 
ATOM     34  C   UNL     1      -5.344  -1.588  -2.134  0.00  0.00    +0.042 A 
ATOM     35 CL   UNL     1      -4.952  -2.858  -3.251  0.00  0.00    -0.083 Cl
ENDBRANCH  28  29
ENDBRANCH   1  28
TORSDOF 10
