REMARK  Name = ZINC41568894
REMARK  5 active torsions:
REMARK  status: ('A' for Active; 'I' for Inactive)
REMARK    1  A    between atoms: C_1  and  C_2
REMARK    2  A    between atoms: C_2  and  C_3
REMARK    3  A    between atoms: C_2  and  C_4
REMARK    4  A    between atoms: C_4  and  C_5
REMARK    5  A    between atoms: C_11  and  N_14
REMARK                            x       y       z     vdW  Elec       q    Type
REMARK                         _______ _______ _______ _____ _____    ______ ____
ROOT
ATOM      1  C   UNL     1      -1.416  -2.035  -0.119  0.00  0.00    +0.197 A 
ATOM      2  N   UNL     1      -1.371  -2.868   0.877  0.00  0.00    -0.213 NA
ATOM      3  C   UNL     1      -1.369  -4.137   0.388  0.00  0.00    +0.113 A 
ATOM      4  C   UNL     1      -1.330  -5.402   0.982  0.00  0.00    +0.051 A 
ATOM      5  C   UNL     1      -1.339  -6.531   0.192  0.00  0.00    +0.045 A 
ATOM      6  C   UNL     1      -1.387  -6.423  -1.190  0.00  0.00    +0.046 A 
ATOM      7  C   UNL     1      -1.425  -5.176  -1.794  0.00  0.00    +0.071 A 
ATOM      8  C   UNL     1      -1.417  -4.027  -1.008  0.00  0.00    +0.176 A 
ATOM      9  O   UNL     1      -1.451  -2.703  -1.282  0.00  0.00    -0.438 OA
ATOM     10 CL   UNL     1      -1.291  -8.100   0.933  0.00  0.00    -0.083 Cl
ENDROOT
BRANCH   7  11
ATOM     11  N   UNL     1      -1.473  -5.074  -3.188  0.00  0.00    -0.355 N 
ATOM     12  H   UNL     1      -1.480  -5.875  -3.733  0.00  0.00    +0.142 HD
ATOM     13  H   UNL     1      -1.500  -4.200  -3.609  0.00  0.00    +0.142 HD
ENDBRANCH   7  11
BRANCH   1  14
ATOM     14  C   UNL     1      -1.433  -0.534   0.013  0.00  0.00    +0.099 C 
BRANCH  14  16
ATOM     15  C   UNL     1      -0.019   1.526   0.010  0.00  0.00    +0.008 C 
ATOM     16  C   UNL     1       0.002  -0.004   0.002  0.00  0.00    -0.008 C 
ATOM     17  C   UNL     1       0.742  -0.511   1.242  0.00  0.00    +0.008 C 
ENDBRANCH  14  16
ENDBRANCH   1  14
TORSDOF 3
