REMARK  Name = ZINC35785404
REMARK  13 active torsions:
REMARK  status: ('A' for Active; 'I' for Inactive)
REMARK    1  A    between atoms: C_1  and  C_2
REMARK    2  A    between atoms: C_2  and  O_3
REMARK    3  A    between atoms: O_3  and  C_4
REMARK    4  A    between atoms: C_7  and  C_10
REMARK    5  A    between atoms: C_13  and  C_31
REMARK    6  A    between atoms: C_16  and  C_18
REMARK    7  A    between atoms: C_18  and  N_19
REMARK    8  A    between atoms: C_24  and  C_26
REMARK    9  A    between atoms: C_26  and  O_28
REMARK   10  A    between atoms: O_28  and  C_29
REMARK   11  A    between atoms: C_29  and  C_30
REMARK   12  A    between atoms: C_34  and  O_37
REMARK   13  A    between atoms: O_37  and  C_38
REMARK                            x       y       z     vdW  Elec       q    Type
REMARK                         _______ _______ _______ _____ _____    ______ ____
ROOT
ATOM      1  C   UNL     1       1.079  -6.083  -2.197  0.00  0.00    +0.137 C 
ATOM      2  C   UNL     1       0.103  -6.679  -3.231  0.00  0.00    +0.087 C 
ATOM      3  C   UNL     1       1.005  -7.380  -4.221  0.00  0.00    +0.069 C 
ATOM      4  N   UNL     1       2.234  -7.236  -3.861  0.00  0.00    -0.181 NA
ATOM      5  N   UNL     1       2.403  -6.495  -2.689  0.00  0.00    -0.187 N 
ATOM      6  C   UNL     1       3.582  -6.205  -2.104  0.00  0.00    +0.219 C 
ATOM      7  O   UNL     1       3.607  -5.550  -1.083  0.00  0.00    -0.276 OA
ENDROOT
BRANCH   1  11
ATOM      8  C   UNL     1       0.765  -1.821  -2.117  0.00  0.00    +0.121 A 
ATOM      9  C   UNL     1       0.165  -2.581  -1.124  0.00  0.00    +0.046 A 
ATOM     10  C   UNL     1       0.267  -3.958  -1.152  0.00  0.00    +0.009 A 
ATOM     11  C   UNL     1       0.968  -4.580  -2.169  0.00  0.00    -0.024 A 
ATOM     12  C   UNL     1       1.568  -3.825  -3.160  0.00  0.00    +0.009 A 
ATOM     13  C   UNL     1       1.463  -2.448  -3.139  0.00  0.00    +0.046 A 
BRANCH   8  14
ATOM     14  O   UNL     1       0.665  -0.466  -2.092  0.00  0.00    -0.492 OA
BRANCH  14  16
ATOM     15  C   UNL     1      -0.071   1.634  -1.149  0.00  0.00    +0.048 C 
ATOM     16  C   UNL     1      -0.068   0.110  -1.009  0.00  0.00    +0.225 C 
ENDBRANCH  14  16
ENDBRANCH   8  14
ENDBRANCH   1  11
BRANCH   3  17
ATOM     17  C   UNL     1       0.549  -8.117  -5.413  0.00  0.00    -0.002 A 
ATOM     18  C   UNL     1      -0.815  -8.203  -5.705  0.00  0.00    +0.013 A 
ATOM     19  C   UNL     1      -1.236  -8.892  -6.821  0.00  0.00    +0.046 A 
ATOM     20  C   UNL     1      -0.308  -9.502  -7.656  0.00  0.00    +0.120 A 
ATOM     21  C   UNL     1       1.048  -9.420  -7.369  0.00  0.00    +0.046 A 
ATOM     22  C   UNL     1       1.480  -8.727  -6.259  0.00  0.00    +0.013 A 
BRANCH  20  23
ATOM     23  O   UNL     1      -0.728 -10.181  -8.755  0.00  0.00    -0.495 OA
ATOM     24  C   UNL     1       0.279 -10.784  -9.569  0.00  0.00    +0.277 C 
ENDBRANCH  20  23
ENDBRANCH   3  17
BRANCH   6  25
ATOM     25  C   UNL     1       4.868  -6.693  -2.719  0.00  0.00    +0.022 C 
BRANCH  25  26
ATOM     26  N   UNL     1       6.003  -6.248  -1.898  0.00  0.00    +0.394 N 
ATOM     27  C   UNL     1       5.955  -6.919  -0.594  0.00  0.00    -0.077 C 
ATOM     28  C   UNL     1       7.087  -6.399   0.294  0.00  0.00    -0.019 C 
ATOM     29  C   UNL     1       8.431  -6.687  -0.382  0.00  0.00    -0.003 C 
ATOM     30  C   UNL     1       8.441  -6.044  -1.772  0.00  0.00    -0.004 C 
ATOM     31  C   UNL     1       7.259  -6.578  -2.583  0.00  0.00    +0.043 C 
ATOM     32  H   UNL     1       5.947  -5.250  -1.763  0.00  0.00    -0.080 HD
BRANCH  31  33
ATOM     33  C   UNL     1       7.264  -5.948  -3.952  0.00  0.00    +0.293 C 
ATOM     34  O   UNL     1       6.647  -4.928  -4.151  0.00  0.00    -0.253 OA
BRANCH  33  35
ATOM     35  O   UNL     1       7.955  -6.520  -4.951  0.00  0.00    -0.466 OA
BRANCH  35  36
ATOM     36  C   UNL     1       7.916  -5.869  -6.222  0.00  0.00    +0.228 C 
ATOM     37  C   UNL     1       8.755  -6.662  -7.227  0.00  0.00    +0.048 C 
ENDBRANCH  35  36
ENDBRANCH  33  35
ENDBRANCH  31  33
ENDBRANCH  25  26
ENDBRANCH   6  25
TORSDOF 10
