REMARK  Name = ZINC23547543
REMARK  11 active torsions:
REMARK  status: ('A' for Active; 'I' for Inactive)
REMARK    1  A    between atoms: C_1  and  C_2
REMARK    2  A    between atoms: C_5  and  C_8
REMARK    3  A    between atoms: C_11  and  S_14
REMARK    4  A    between atoms: N_12  and  N_13
REMARK    5  A    between atoms: S_14  and  C_15
REMARK    6  A    between atoms: C_15  and  C_16
REMARK    7  A    between atoms: N_21  and  C_22
REMARK    8  A    between atoms: C_23  and  C_30
REMARK    9  A    between atoms: C_25  and  C_29
REMARK   10  A    between atoms: C_27  and  C_28
REMARK   11  A    between atoms: C_31  and  C_33
REMARK                            x       y       z     vdW  Elec       q    Type
REMARK                         _______ _______ _______ _____ _____    ______ ____
ROOT
ATOM      1  C   UNL     1       5.709   3.414  -2.662  0.00  0.00    +0.061 A 
ATOM      2  C   UNL     1       4.962   2.982  -3.708  0.00  0.00    +0.072 A 
ATOM      3  S   UNL     1       3.624   2.169  -2.846  0.00  0.00    -0.060 S 
ATOM      4  C   UNL     1       4.172   2.486  -1.229  0.00  0.00    +0.172 A 
ATOM      5  N   UNL     1       5.290   3.152  -1.440  0.00  0.00    -0.228 NA
ATOM      6  N   UNL     1       3.585   2.124  -0.020  0.00  0.00    -0.218 N 
ATOM      7  C   UNL     1       4.175   2.462   1.143  0.00  0.00    +0.223 C 
ATOM      8  O   UNL     1       5.218   3.082   1.137  0.00  0.00    -0.275 OA
ATOM      9  C   UNL     1       3.539   2.070   2.452  0.00  0.00    +0.110 C 
ENDROOT
BRANCH   6  10
ATOM     10  C   UNL     1       2.381   1.409  -0.013  0.00  0.00    +0.049 A 
ATOM     11  C   UNL     1       1.169   2.087   0.002  0.00  0.00    -0.028 A 
ATOM     12  C   UNL     1      -0.017   1.379   0.010  0.00  0.00    +0.008 A 
ATOM     13  C   UNL     1       0.002  -0.004   0.002  0.00  0.00    -0.050 A 
ATOM     14  C   UNL     1       1.207  -0.682  -0.013  0.00  0.00    +0.008 A 
ATOM     15  C   UNL     1       2.396   0.020  -0.021  0.00  0.00    -0.028 A 
ATOM     16  C   UNL     1       3.709  -0.719  -0.038  0.00  0.00    +0.046 C 
ATOM     17  C   UNL     1      -1.294  -0.774   0.011  0.00  0.00    +0.044 C 
ATOM     18  C   UNL     1       1.148   3.594   0.010  0.00  0.00    +0.046 C 
ENDBRANCH   6  10
BRANCH   1  19
ATOM     19  C   UNL     1       6.989   4.176  -2.892  0.00  0.00    +0.133 C 
BRANCH  19  20
ATOM     20  S   UNL     1       8.372   3.014  -2.999  0.00  0.00    -0.078 S 
BRANCH  20  24
ATOM     21  C   UNL     1      11.674   5.016  -3.595  0.00  0.00    +0.182 A 
ATOM     22  N   UNL     1      10.769   5.965  -3.538  0.00  0.00    -0.127 NA
ATOM     23  N   UNL     1       9.607   5.451  -3.341  0.00  0.00    -0.121 NA
ATOM     24  C   UNL     1       9.700   4.142  -3.262  0.00  0.00    +0.209 A 
ATOM     25  N   UNL     1      11.018   3.820  -3.414  0.00  0.00    -0.224 N 
BRANCH  21  30
ATOM     26  C   UNL     1      17.325   5.727  -4.421  0.00  0.00    +0.044 C 
ATOM     27  C   UNL     1      15.845   5.541  -4.205  0.00  0.00    -0.050 A 
ATOM     28  C   UNL     1      15.057   6.625  -3.860  0.00  0.00    +0.004 A 
ATOM     29  C   UNL     1      13.702   6.461  -3.661  0.00  0.00    +0.012 A 
ATOM     30  C   UNL     1      13.126   5.199  -3.808  0.00  0.00    +0.021 A 
ATOM     31  C   UNL     1      13.927   4.108  -4.151  0.00  0.00    +0.012 A 
ATOM     32  C   UNL     1      15.280   4.287  -4.353  0.00  0.00    +0.004 A 
ENDBRANCH  21  30
BRANCH  25  33
ATOM     33  N   UNL     1      11.570   2.571  -3.394  0.00  0.00    -0.295 N 
ATOM     34  H   UNL     1      10.931   1.689  -3.240  0.00  0.00    +0.163 HD
ATOM     35  H   UNL     1      12.655   2.446  -3.533  0.00  0.00    +0.163 HD
ENDBRANCH  25  33
ENDBRANCH  20  24
ENDBRANCH  19  20
ENDBRANCH   1  19
TORSDOF 6
