REMARK  Name = ZINC34925932
REMARK  3 active torsions:
REMARK  status: ('A' for Active; 'I' for Inactive)
REMARK    1  A    between atoms: C_4  and  N_20
REMARK    2  A    between atoms: C_5  and  C_7
REMARK    3  A    between atoms: C_9  and  C_13
REMARK                            x       y       z     vdW  Elec       q    Type
REMARK                         _______ _______ _______ _____ _____    ______ ____
ROOT
ATOM      1  C   UNL     1       0.847  -2.128  -0.320  0.00  0.00    +0.184 A 
ATOM      2  N   UNL     1      -0.328  -2.765  -0.374  0.00  0.00    -0.207 NA
ATOM      3  C   UNL     1      -0.125  -4.057  -0.523  0.00  0.00    +0.158 A 
ATOM      4  N   UNL     1       1.211  -4.269  -0.568  0.00  0.00    -0.258 N 
ATOM      5  H   UNL     1       1.660  -5.122  -0.671  0.00  0.00    +0.191 HD
ATOM      6  N   UNL     1       1.817  -3.008  -0.441  0.00  0.00    -0.152 NA
ENDROOT
BRANCH   3   7
ATOM      7  C   UNL     1      -1.175  -5.096  -0.624  0.00  0.00    +0.038 A 
ATOM      8  C   UNL     1      -2.528  -4.747  -0.570  0.00  0.00    +0.030 A 
ATOM      9  C   UNL     1      -3.471  -5.757  -0.669  0.00  0.00    +0.037 A 
ATOM     10  C   UNL     1      -3.047  -7.066  -0.817  0.00  0.00    +0.126 A 
ATOM     11  N   UNL     1      -1.763  -7.364  -0.864  0.00  0.00    -0.261 NA
ATOM     12  C   UNL     1      -0.830  -6.438  -0.780  0.00  0.00    +0.122 A 
ATOM     13 BR   UNL     1      -5.316  -5.351  -0.602  0.00  0.00    -0.049 Br
ENDBRANCH   3   7
BRANCH   1  18
ATOM     14  C   UNL     1       1.901   1.425  -0.955  0.00  0.00    +0.001 A 
ATOM     15  C   UNL     1       1.362   2.068   0.145  0.00  0.00    +0.002 A 
ATOM     16  C   UNL     1       0.657   1.351   1.095  0.00  0.00    +0.033 A 
ATOM     17  C   UNL     1       0.487  -0.011   0.949  0.00  0.00    +0.137 A 
ATOM     18  C   UNL     1       1.026  -0.663  -0.158  0.00  0.00    +0.051 A 
ATOM     19  C   UNL     1       1.736   0.064  -1.111  0.00  0.00    +0.014 A 
BRANCH  17  20
ATOM     20  N   UNL     1      -0.268  -0.778   1.966  0.00  0.00    +0.057 N 
ATOM     21  O   UNL     1      -0.834  -0.197   2.862  0.00  0.00    -0.126 OA
ATOM     22  O   UNL     1      -0.318  -1.984   1.900  0.00  0.00    -0.126 OA
ENDBRANCH  17  20
ENDBRANCH   1  18
TORSDOF 3
