REMARK  Name = ZINC41585965
REMARK  5 active torsions:
REMARK  status: ('A' for Active; 'I' for Inactive)
REMARK    1  A    between atoms: N_10  and  C_13
REMARK    2  A    between atoms: C_13  and  C_14
REMARK    3  A    between atoms: C_15  and  O_36
REMARK    4  A    between atoms: C_21  and  C_32
REMARK    5  A    between atoms: C_22  and  C_25
REMARK                            x       y       z     vdW  Elec       q    Type
REMARK                         _______ _______ _______ _____ _____    ______ ____
ROOT
ATOM      1  C   UNL     1       0.386  -6.687   1.589  0.00  0.00    +0.051 A 
ATOM      2  C   UNL     1      -0.777  -6.576   2.333  0.00  0.00    +0.125 A 
ATOM      3  C   UNL     1      -1.775  -7.543   2.240  0.00  0.00    +0.046 A 
ATOM      4  C   UNL     1      -1.619  -8.616   1.408  0.00  0.00    +0.019 A 
ATOM      5  C   UNL     1      -0.455  -8.740   0.651  0.00  0.00    +0.065 A 
ATOM      6  C   UNL     1       0.560  -7.769   0.738  0.00  0.00    +0.147 A 
ATOM      7  O   UNL     1       1.687  -7.898   0.012  0.00  0.00    -0.449 OA
ATOM      8  C   UNL     1       1.769  -8.743  -1.017  0.00  0.00    +0.219 A 
ATOM      9  C   UNL     1       0.867  -9.739  -1.224  0.00  0.00    +0.076 A 
ATOM     10  C   UNL     1      -0.249  -9.877  -0.265  0.00  0.00    +0.201 A 
ATOM     11  O   UNL     1      -0.965 -10.864  -0.242  0.00  0.00    -0.286 OA
ENDROOT
BRANCH   9  12
ATOM     12  C   UNL     1       1.007 -10.667  -2.372  0.00  0.00    -0.011 A 
ATOM     13  C   UNL     1       1.990 -11.655  -2.357  0.00  0.00    +0.010 A 
ATOM     14  C   UNL     1       2.115 -12.516  -3.428  0.00  0.00    +0.020 A 
ATOM     15  C   UNL     1       1.266 -12.400  -4.516  0.00  0.00    +0.041 A 
ATOM     16  C   UNL     1       0.288 -11.421  -4.535  0.00  0.00    +0.020 A 
ATOM     17  C   UNL     1       0.151 -10.558  -3.467  0.00  0.00    +0.010 A 
ATOM     18 CL   UNL     1       1.429 -13.487  -5.860  0.00  0.00    -0.084 Cl
ENDBRANCH   9  12
BRANCH   8  19
ATOM     19  C   UNL     1       2.908  -8.588  -1.991  0.00  0.00    +0.451 C 
ATOM     20  F   UNL     1       2.716  -9.450  -3.075  0.00  0.00    -0.163 F 
ATOM     21  F   UNL     1       2.953  -7.266  -2.449  0.00  0.00    -0.163 F 
ATOM     22  F   UNL     1       4.113  -8.901  -1.353  0.00  0.00    -0.163 F 
ENDBRANCH   8  19
BRANCH   2  23
ATOM     23  O   UNL     1      -0.947  -5.513   3.161  0.00  0.00    -0.506 OA
ATOM     24  H   UNL     1      -1.373  -4.753   2.742  0.00  0.00    +0.292 HD
ENDBRANCH   2  23
BRANCH   1  25
ATOM     25  C   UNL     1       1.457  -5.632   1.700  0.00  0.00    +0.127 C 
BRANCH  25  35
ATOM     26  C   UNL     1       1.707   1.513  -0.564  0.00  0.00    +0.005 A 
ATOM     27  C   UNL     1       0.428   2.054  -0.525  0.00  0.00    +0.018 A 
ATOM     28  C   UNL     1      -0.660   1.210  -0.438  0.00  0.00    +0.084 A 
ATOM     29  N   UNL     1      -0.500  -0.099  -0.390  0.00  0.00    -0.350 N 
ATOM     30  C   UNL     1       0.702  -0.653  -0.423  0.00  0.00    +0.099 A 
ATOM     31  C   UNL     1       1.844   0.138  -0.512  0.00  0.00    +0.042 A 
ATOM     32  N   UNL     1       0.825  -2.037  -0.370  0.00  0.00    -0.314 N 
ATOM     33  C   UNL     1       2.134  -2.686  -0.542  0.00  0.00    +0.122 C 
ATOM     34  C   UNL     1       2.352  -3.658   0.622  0.00  0.00    +0.103 C 
ATOM     35  N   UNL     1       1.209  -4.577   0.709  0.00  0.00    -0.295 NA
ATOM     36  C   UNL     1      -0.034  -3.855   1.008  0.00  0.00    +0.103 C 
ATOM     37  C   UNL     1      -0.349  -2.890  -0.135  0.00  0.00    +0.122 C 
ATOM     38  H   UNL     1      -1.282  -0.670  -0.328  0.00  0.00    +0.166 HD
ENDBRANCH  25  35
ENDBRANCH   1  25
TORSDOF 5
