REMARK  Name = ZINC04210172
REMARK  6 active torsions:
REMARK  status: ('A' for Active; 'I' for Inactive)
REMARK    1  A    between atoms: C_8  and  C_10
REMARK    2  A    between atoms: N_12  and  C_13
REMARK    3  A    between atoms: C_13  and  C_14
REMARK    4  A    between atoms: N_16  and  N_17
REMARK    5  A    between atoms: C_18  and  C_19
REMARK    6  A    between atoms: C_22  and  N_25
REMARK                            x       y       z     vdW  Elec       q    Type
REMARK                         _______ _______ _______ _____ _____    ______ ____
ROOT
ATOM      1  C   UNL     1       3.782   8.786   0.015  0.00  0.00    +0.202 C 
ENDROOT
BRANCH   1   4
ATOM      2  C   UNL     1       3.140   6.435   0.008  0.00  0.00    +0.253 C 
ATOM      3  O   UNL     1       4.322   6.143  -0.005  0.00  0.00    -0.270 OA
ATOM      4  N   UNL     1       2.767   7.730   0.019  0.00  0.00    -0.302 N 
ATOM      5  H   UNL     1       1.825   7.963   0.029  0.00  0.00    +0.150 HD
BRANCH   2  13
ATOM      6  C   UNL     1      -0.013   1.076   0.008  0.00  0.00    +0.001 A 
ATOM      7  C   UNL     1      -1.235   1.737   0.017  0.00  0.00    +0.001 A 
ATOM      8  C   UNL     1      -1.261   3.117   0.030  0.00  0.00    +0.016 A 
ATOM      9  C   UNL     1      -0.075   3.819   0.023  0.00  0.00    +0.021 A 
ATOM     10  C   UNL     1       1.184   3.173   0.008  0.00  0.00    +0.008 A 
ATOM     11  C   UNL     1       1.164   1.754   0.000  0.00  0.00    +0.010 A 
ATOM     12  C   UNL     1       2.301   4.028   0.002  0.00  0.00    +0.068 A 
ATOM     13  C   UNL     1       2.122   5.377   0.011  0.00  0.00    +0.093 A 
ATOM     14  S   UNL     1       0.346   5.544   0.029  0.00  0.00    -0.082 S 
ATOM     15 CL   UNL     1       3.905   3.364  -0.017  0.00  0.00    -0.082 Cl
ENDBRANCH   2  13
ENDBRANCH   1   4
BRANCH   1  16
ATOM     16  C   UNL     1       3.107  10.133   0.029  0.00  0.00    +0.249 C 
ATOM     17  O   UNL     1       1.896  10.204   0.041  0.00  0.00    -0.272 OA
ATOM     18  N   UNL     1       3.848  11.258   0.029  0.00  0.00    -0.206 N 
ATOM     19  H   UNL     1       4.816  11.201   0.019  0.00  0.00    +0.177 HD
BRANCH  18  20
ATOM     20  N   UNL     1       3.220  12.511   0.042  0.00  0.00    -0.188 NA
ATOM     21  C   UNL     1       3.934  13.594   0.041  0.00  0.00    +0.138 C 
BRANCH  21  22
ATOM     22  C   UNL     1       3.273  14.913   0.055  0.00  0.00    -0.005 A 
ATOM     23  C   UNL     1       1.879  14.999   0.063  0.00  0.00    +0.012 A 
ATOM     24  C   UNL     1       1.267  16.235   0.082  0.00  0.00    +0.033 A 
ATOM     25  C   UNL     1       2.031  17.388   0.081  0.00  0.00    +0.126 A 
ATOM     26  C   UNL     1       3.413  17.311   0.068  0.00  0.00    +0.033 A 
ATOM     27  C   UNL     1       4.038  16.081   0.055  0.00  0.00    +0.012 A 
BRANCH  25  28
ATOM     28  N   UNL     1       1.368  18.712   0.094  0.00  0.00    +0.056 N 
ATOM     29  O   UNL     1       2.038  19.729   0.093  0.00  0.00    -0.126 OA
ATOM     30  O   UNL     1       0.152  18.783   0.106  0.00  0.00    -0.126 OA
ENDBRANCH  25  28
ENDBRANCH  21  22
ENDBRANCH  18  20
ENDBRANCH   1  16
TORSDOF 6
