REMARK  Name = ZINC21755396
REMARK  9 active torsions:
REMARK  status: ('A' for Active; 'I' for Inactive)
REMARK    1  A    between atoms: C_1  and  N_2
REMARK    2  A    between atoms: N_2  and  C_3
REMARK    3  A    between atoms: N_2  and  C_4
REMARK    4  A    between atoms: C_7  and  C_10
REMARK    5  A    between atoms: C_10  and  C_12
REMARK    6  A    between atoms: C_10  and  N_25
REMARK    7  A    between atoms: C_12  and  N_13
REMARK    8  A    between atoms: N_13  and  S_14
REMARK    9  A    between atoms: S_14  and  C_17
REMARK                            x       y       z     vdW  Elec       q    Type
REMARK                         _______ _______ _______ _____ _____    ______ ____
ROOT
ATOM      1  C   UNL     1      -0.013   1.086   0.008  0.00  0.00    -0.021 C 
ENDROOT
BRANCH   1   2
ATOM      2  N   UNL     1      -0.836   1.762  -1.003  0.00  0.00    +0.388 N 
ATOM      3  C   UNL     1      -0.362   1.455  -2.361  0.00  0.00    -0.073 C 
ATOM      4  C   UNL     1      -1.446   1.867  -3.359  0.00  0.00    +0.017 C 
ATOM      5  C   UNL     1      -1.888   3.281  -3.082  0.00  0.00    -0.048 A 
ATOM      6  C   UNL     1      -2.589   3.959  -4.068  0.00  0.00    +0.004 A 
ATOM      7  C   UNL     1      -3.016   5.254  -3.855  0.00  0.00    +0.000 A 
ATOM      8  C   UNL     1      -2.744   5.878  -2.651  0.00  0.00    +0.000 A 
ATOM      9  C   UNL     1      -2.046   5.205  -1.670  0.00  0.00    +0.002 A 
ATOM     10  C   UNL     1      -1.614   3.904  -1.884  0.00  0.00    -0.061 A 
ATOM     11  C   UNL     1      -0.849   3.212  -0.786  0.00  0.00    -0.042 C 
ATOM     12  H   UNL     1      -1.866   1.389  -0.898  0.00  0.00    -0.080 HD
ENDBRANCH   1   2
BRANCH   1  16
ATOM     13  C   UNL     1       4.096   2.098  -0.593  0.00  0.00    +0.029 A 
ATOM     14  C   UNL     1       3.632   0.835  -0.940  0.00  0.00    +0.023 A 
ATOM     15  C   UNL     1       2.304   0.511  -0.744  0.00  0.00    +0.004 A 
ATOM     16  C   UNL     1       1.436   1.442  -0.204  0.00  0.00    -0.060 A 
ATOM     17  C   UNL     1       1.893   2.702   0.138  0.00  0.00    +0.004 A 
ATOM     18  C   UNL     1       3.222   3.030  -0.050  0.00  0.00    +0.023 A 
BRANCH  13  20
ATOM     19  C   UNL     1       6.359   1.443  -1.362  0.00  0.00    +0.129 C 
ATOM     20  N   UNL     1       5.439   2.428  -0.789  0.00  0.00    -0.336 N 
ATOM     21  C   UNL     1       5.926   3.760  -0.423  0.00  0.00    +0.129 C 
ENDBRANCH  13  20
ENDBRANCH   1  16
BRANCH   1  22
ATOM     22  C   UNL     1      -0.449   1.533   1.405  0.00  0.00    +0.095 C 
BRANCH  22  23
ATOM     23  N   UNL     1      -1.886   1.295   1.567  0.00  0.00    -0.191 NA
ATOM     24  H   UNL     1      -2.540   1.257   0.683  0.00  0.00    +0.148 HD
BRANCH  23  25
ATOM     25  S   UNL     1      -2.565   1.330   3.076  0.00  0.00    +0.060 S 
ATOM     26  O   UNL     1      -3.955   1.093   2.901  0.00  0.00    -0.153 OA
ATOM     27  O   UNL     1      -1.752   0.513   3.907  0.00  0.00    -0.153 OA
BRANCH  25  28
ATOM     28  C   UNL     1      -2.407   2.978   3.681  0.00  0.00    +0.125 A 
ATOM     29  C   UNL     1      -3.536   3.744   3.904  0.00  0.00    +0.050 A 
ATOM     30  C   UNL     1      -3.413   5.035   4.383  0.00  0.00    +0.043 A 
ATOM     31  C   UNL     1      -2.158   5.564   4.630  0.00  0.00    +0.021 A 
ATOM     32  C   UNL     1      -1.029   4.801   4.402  0.00  0.00    +0.023 A 
ATOM     33  C   UNL     1      -1.153   3.507   3.927  0.00  0.00    +0.067 A 
ATOM     34 CL   UNL     1       0.265   2.548   3.641  0.00  0.00    -0.082 Cl
ATOM     35 CL   UNL     1      -4.831   5.995   4.669  0.00  0.00    -0.083 Cl
ENDBRANCH  25  28
ENDBRANCH  23  25
ENDBRANCH  22  23
ENDBRANCH   1  22
TORSDOF 7
