REMARK  Name = ZINC59819650
REMARK  8 active torsions:
REMARK  status: ('A' for Active; 'I' for Inactive)
REMARK    1  A    between atoms: C_1  and  C_2
REMARK    2  A    between atoms: C_2  and  C_24
REMARK    3  A    between atoms: N_3  and  N_4
REMARK    4  A    between atoms: C_7  and  S_10
REMARK    5  A    between atoms: S_10  and  C_11
REMARK    6  A    between atoms: C_11  and  C_12
REMARK    7  A    between atoms: N_14  and  N_15
REMARK    8  A    between atoms: C_16  and  C_18
REMARK                            x       y       z     vdW  Elec       q    Type
REMARK                         _______ _______ _______ _____ _____    ______ ____
ROOT
ATOM      1  N   UNL     1       0.024   0.035   2.340  0.00  0.00    -0.205 N 
ATOM      2  C   UNL     1       0.044  -0.663   3.533  0.00  0.00    +0.232 A 
ATOM      3  N   UNL     1       0.069  -1.973   3.664  0.00  0.00    -0.186 NA
ATOM      4  C   UNL     1       0.085  -2.295   4.962  0.00  0.00    +0.211 A 
ATOM      5  N   UNL     1       0.070  -1.194   5.675  0.00  0.00    -0.144 NA
ATOM      6  N   UNL     1       0.049  -0.121   4.770  0.00  0.00    -0.245 N 
ATOM      7  H   UNL     1       0.011   1.005   2.345  0.00  0.00    +0.177 HD
ATOM      8  H   UNL     1       0.038   0.824   4.990  0.00  0.00    +0.192 HD
ENDROOT
BRANCH   1  11
ATOM      9  C   UNL     1      -0.018   1.503   0.010  0.00  0.00    +0.068 C 
ATOM     10  C   UNL     1       0.002  -0.004   0.002  0.00  0.00    +0.063 C 
ATOM     11  N   UNL     1       0.022  -0.659   1.123  0.00  0.00    -0.184 NA
BRANCH  10  12
ATOM     12  C   UNL     1      -0.000  -0.734  -1.279  0.00  0.00    -0.002 A 
ATOM     13  C   UNL     1      -0.015  -0.032  -2.487  0.00  0.00    +0.011 A 
ATOM     14  C   UNL     1      -0.017  -0.722  -3.681  0.00  0.00    +0.016 A 
ATOM     15  C   UNL     1      -0.003  -2.106  -3.685  0.00  0.00    +0.018 A 
ATOM     16  C   UNL     1       0.012  -2.808  -2.492  0.00  0.00    +0.016 A 
ATOM     17  C   UNL     1       0.019  -2.131  -1.290  0.00  0.00    +0.011 A 
ATOM     18 BR   UNL     1      -0.006  -3.043  -5.328  0.00  0.00    -0.050 Br
ENDBRANCH  10  12
ENDBRANCH   1  11
BRANCH   4  19
ATOM     19  S   UNL     1       0.118  -3.934   5.609  0.00  0.00    -0.075 S 
BRANCH  19  20
ATOM     20  C   UNL     1       0.127  -3.695   7.407  0.00  0.00    +0.174 C 
BRANCH  20  21
ATOM     21  C   UNL     1       0.156  -5.037   8.092  0.00  0.00    +0.239 C 
ATOM     22  O   UNL     1       0.170  -6.054   7.432  0.00  0.00    -0.273 OA
ATOM     23  N   UNL     1       0.167  -5.107   9.438  0.00  0.00    -0.233 N 
ATOM     24  H   UNL     1       0.156  -4.293   9.966  0.00  0.00    +0.173 HD
BRANCH  23  25
ATOM     25  N   UNL     1       0.194  -6.355  10.075  0.00  0.00    -0.230 N 
ATOM     26  C   UNL     1       0.205  -6.424  11.420  0.00  0.00    +0.260 C 
ATOM     27  O   UNL     1       0.192  -5.405  12.082  0.00  0.00    -0.269 OA
ATOM     28  H   UNL     1       0.205  -7.168   9.547  0.00  0.00    +0.173 HD
BRANCH  26  29
ATOM     29  C   UNL     1       0.233  -7.741  12.092  0.00  0.00    +0.038 A 
ATOM     30  C   UNL     1       0.255  -8.914  11.335  0.00  0.00    +0.013 A 
ATOM     31  C   UNL     1       0.282 -10.139  11.969  0.00  0.00    +0.001 A 
ATOM     32  C   UNL     1       0.287 -10.207  13.351  0.00  0.00    +0.000 A 
ATOM     33  C   UNL     1       0.266  -9.049  14.107  0.00  0.00    +0.001 A 
ATOM     34  C   UNL     1       0.245  -7.817  13.486  0.00  0.00    +0.013 A 
ENDBRANCH  26  29
ENDBRANCH  23  25
ENDBRANCH  20  21
ENDBRANCH  19  20
ENDBRANCH   4  19
TORSDOF 7
