REMARK  Name = ZINC10404419
REMARK  8 active torsions:
REMARK  status: ('A' for Active; 'I' for Inactive)
REMARK    1  A    between atoms: C_1  and  C_2
REMARK    2  A    between atoms: C_2  and  C_3
REMARK    3  A    between atoms: C_2  and  N_4
REMARK    4  A    between atoms: C_9  and  C_23
REMARK    5  A    between atoms: C_11  and  C_13
REMARK    6  A    between atoms: N_25  and  N_26
REMARK    7  A    between atoms: C_27  and  C_29
REMARK    8  A    between atoms: C_29  and  C_30
REMARK                            x       y       z     vdW  Elec       q    Type
REMARK                         _______ _______ _______ _____ _____    ______ ____
ROOT
ATOM      1  N   UNL     1      -4.997  -4.182   0.004  0.00  0.00    -0.244 N 
ATOM      2  C   UNL     1      -4.757  -2.832   0.011  0.00  0.00    +0.160 A 
ATOM      3  C   UNL     1      -6.019  -2.204   0.022  0.00  0.00    +0.051 A 
ATOM      4  C   UNL     1      -6.991  -3.226   0.021  0.00  0.00    +0.145 A 
ATOM      5  N   UNL     1      -6.383  -4.378   0.011  0.00  0.00    -0.177 NA
ATOM      6  C   UNL     1      -6.085  -0.791   0.032  0.00  0.00    +0.052 A 
ATOM      7  C   UNL     1      -4.889  -0.083   0.029  0.00  0.00    +0.042 A 
ATOM      8  C   UNL     1      -3.679  -0.784   0.018  0.00  0.00    +0.074 A 
ATOM      9  N   UNL     1      -3.649  -2.107   0.004  0.00  0.00    -0.228 NA
ENDROOT
BRANCH   8  10
ATOM     10  C   UNL     1      -2.403  -0.029   0.015  0.00  0.00    +0.004 A 
ATOM     11  C   UNL     1      -2.416   1.365   0.025  0.00  0.00    +0.014 A 
ATOM     12  C   UNL     1      -1.229   2.066   0.019  0.00  0.00    +0.050 A 
ATOM     13  C   UNL     1      -0.017   1.387   0.010  0.00  0.00    +0.162 A 
ATOM     14  C   UNL     1       0.002  -0.004   0.002  0.00  0.00    +0.163 A 
ATOM     15  C   UNL     1      -1.188  -0.711   0.004  0.00  0.00    +0.059 A 
ATOM     16  O   UNL     1       1.181  -0.685  -0.006  0.00  0.00    -0.485 OA
ATOM     17  C   UNL     1       2.347   0.054  -0.386  0.00  0.00    +0.270 C 
ATOM     18  C   UNL     1       2.334   1.392   0.365  0.00  0.00    +0.270 C 
ATOM     19  O   UNL     1       1.143   2.098   0.002  0.00  0.00    -0.485 OA
ENDBRANCH   8  10
BRANCH   6  20
ATOM     20  C   UNL     1      -7.386  -0.089   0.044  0.00  0.00    +0.261 C 
ATOM     21  O   UNL     1      -8.421  -0.727   0.046  0.00  0.00    -0.269 OA
ATOM     22  N   UNL     1      -7.425   1.258   0.053  0.00  0.00    -0.230 N 
ATOM     23  H   UNL     1      -6.600   1.767   0.052  0.00  0.00    +0.173 HD
BRANCH  22  24
ATOM     24  N   UNL     1      -8.659   1.923   0.065  0.00  0.00    -0.234 N 
ATOM     25  C   UNL     1      -8.697   3.270   0.074  0.00  0.00    +0.233 C 
ATOM     26  O   UNL     1      -7.665   3.907   0.073  0.00  0.00    -0.274 OA
ATOM     27  H   UNL     1      -9.484   1.414   0.067  0.00  0.00    +0.173 HD
BRANCH  25  28
ATOM     28  C   UNL     1     -10.024   3.986   0.087  0.00  0.00    +0.132 C 
BRANCH  28  29
ATOM     29  C   UNL     1      -9.791   5.475   0.096  0.00  0.00    -0.038 A 
ATOM     30  C   UNL     1      -9.683   6.150   1.297  0.00  0.00    +0.007 A 
ATOM     31  C   UNL     1      -9.465   7.514   1.307  0.00  0.00    +0.038 A 
ATOM     32  C   UNL     1      -9.366   8.207   0.112  0.00  0.00    +0.123 A 
ATOM     33  C   UNL     1      -9.479   7.531  -1.091  0.00  0.00    +0.038 A 
ATOM     34  C   UNL     1      -9.692   6.165  -1.098  0.00  0.00    +0.007 A 
ATOM     35  F   UNL     1      -9.157   9.542   0.120  0.00  0.00    -0.205 F 
ENDBRANCH  28  29
ENDBRANCH  25  28
ENDBRANCH  22  24
ENDBRANCH   6  20
BRANCH   1  37
ATOM     36  C   UNL     1      -4.137  -6.112   1.235  0.00  0.00    +0.032 C 
ATOM     37  C   UNL     1      -3.980  -5.236  -0.009  0.00  0.00    +0.103 C 
ATOM     38  C   UNL     1      -4.153  -6.096  -1.263  0.00  0.00    +0.032 C 
ENDBRANCH   1  37
TORSDOF 6
