REMARK  Name = ZINC24224389
REMARK  6 active torsions:
REMARK  status: ('A' for Active; 'I' for Inactive)
REMARK    1  A    between atoms: C_1  and  C_2
REMARK    2  A    between atoms: C_7  and  C_27
REMARK    3  A    between atoms: N_12  and  C_16
REMARK    4  A    between atoms: C_16  and  N_17
REMARK    5  A    between atoms: C_19  and  C_26
REMARK    6  A    between atoms: C_22  and  C_25
REMARK                            x       y       z     vdW  Elec       q    Type
REMARK                         _______ _______ _______ _____ _____    ______ ____
ROOT
ATOM      1  C   UNL     1      -3.494   0.162   6.820  0.00  0.00    +0.010 C 
ATOM      2  C   UNL     1      -3.392  -1.251   6.243  0.00  0.00    +0.019 C 
ATOM      3  C   UNL     1      -4.772  -1.912   6.265  0.00  0.00    +0.006 C 
ATOM      4  C   UNL     1      -4.673  -3.318   5.669  0.00  0.00    +0.001 C 
ATOM      5  C   UNL     1      -4.185  -3.226   4.222  0.00  0.00    +0.006 C 
ATOM      6  C   UNL     1      -2.803  -2.570   4.191  0.00  0.00    +0.019 C 
ATOM      7  C   UNL     1      -2.883  -1.178   4.807  0.00  0.00    +0.118 C 
ATOM      8  C   UNL     1      -1.532  -0.502   4.761  0.00  0.00    +0.248 C 
ATOM      9  O   UNL     1      -0.508  -0.873   5.294  0.00  0.00    -0.273 OA
ATOM     10  N   UNL     1      -1.706   0.600   4.003  0.00  0.00    -0.211 N 
ATOM     11  C   UNL     1      -2.970   0.710   3.576  0.00  0.00    +0.310 C 
ATOM     12  O   UNL     1      -3.372   1.623   2.881  0.00  0.00    -0.252 OA
ATOM     13  N   UNL     1      -3.746  -0.306   4.000  0.00  0.00    -0.284 N 
ATOM     14  C   UNL     1      -1.816  -3.424   4.990  0.00  0.00    +0.010 C 
ATOM     15  H   UNL     1      -4.806  -0.562   3.855  0.00  0.00    +0.151 HD
ENDROOT
BRANCH  10  16
ATOM     16  C   UNL     1      -0.645   1.561   3.691  0.00  0.00    +0.205 C 
BRANCH  16  17
ATOM     17  N   UNL     1       0.036   1.154   2.454  0.00  0.00    -0.282 NA
ATOM     18  C   UNL     1      -0.724   1.581   1.270  0.00  0.00    +0.117 C 
ATOM     19  C   UNL     1      -0.013   1.086   0.008  0.00  0.00    +0.130 C 
ATOM     20  O   UNL     1       1.329   1.582  -0.002  0.00  0.00    -0.371 OA
ATOM     21  C   UNL     1       2.098   1.185   1.136  0.00  0.00    +0.130 C 
ATOM     22  C   UNL     1       1.407   1.681   2.410  0.00  0.00    +0.117 C 
ATOM     23  C   UNL     1       2.206  -0.341   1.173  0.00  0.00    +0.039 C 
ATOM     24  C   UNL     1      -0.754   1.593  -1.230  0.00  0.00    +0.039 C 
ENDBRANCH  16  17
ENDBRANCH  10  16
TORSDOF 2
