REMARK  Name = ZINC09127142
REMARK  8 active torsions:
REMARK  status: ('A' for Active; 'I' for Inactive)
REMARK    1  A    between atoms: C_1  and  C_2
REMARK    2  A    between atoms: C_2  and  C_3
REMARK    3  A    between atoms: C_2  and  C_4
REMARK    4  A    between atoms: C_9  and  N_10
REMARK    5  A    between atoms: C_23  and  S_24
REMARK    6  A    between atoms: S_24  and  C_25
REMARK    7  A    between atoms: C_25  and  C_26
REMARK    8  A    between atoms: C_26  and  C_28
REMARK                            x       y       z     vdW  Elec       q    Type
REMARK                         _______ _______ _______ _____ _____    ______ ____
ROOT
ATOM      1  N   UNL     1      -1.175  -0.029   2.111  0.00  0.00    -0.245 N 
ATOM      2  C   UNL     1      -2.484   0.290   2.042  0.00  0.00    +0.268 A 
ATOM      3  O   UNL     1      -3.143  -0.011   1.065  0.00  0.00    -0.267 OA
ATOM      4  C   UNL     1      -3.105   1.005   3.171  0.00  0.00    +0.064 A 
ATOM      5  C   UNL     1      -4.455   1.354   3.153  0.00  0.00    +0.015 A 
ATOM      6  C   UNL     1      -5.000   2.027   4.226  0.00  0.00    +0.001 A 
ATOM      7  C   UNL     1      -4.213   2.357   5.319  0.00  0.00    +0.002 A 
ATOM      8  C   UNL     1      -2.875   2.017   5.349  0.00  0.00    +0.027 A 
ATOM      9  C   UNL     1      -2.310   1.341   4.279  0.00  0.00    +0.064 A 
ATOM     10  N   UNL     1      -0.967   0.985   4.280  0.00  0.00    -0.255 N 
ATOM     11  C   UNL     1      -0.415   0.315   3.219  0.00  0.00    +0.245 A 
ATOM     12  N   UNL     1       0.850   0.122   3.507  0.00  0.00    -0.109 NA
ATOM     13  N   UNL     1       1.121   0.618   4.661  0.00  0.00    -0.120 NA
ATOM     14  C   UNL     1       0.047   1.161   5.182  0.00  0.00    +0.198 A 
ENDROOT
BRANCH   1  20
ATOM     15  C   UNL     1       0.002  -0.004   0.002  0.00  0.00    -0.021 A 
ATOM     16  C   UNL     1       0.599  -0.682  -1.043  0.00  0.00    +0.006 A 
ATOM     17  C   UNL     1       0.619  -2.064  -1.051  0.00  0.00    +0.000 A 
ATOM     18  C   UNL     1       0.040  -2.773  -0.014  0.00  0.00    +0.002 A 
ATOM     19  C   UNL     1      -0.559  -2.102   1.034  0.00  0.00    +0.026 A 
ATOM     20  C   UNL     1      -0.575  -0.713   1.048  0.00  0.00    +0.056 A 
BRANCH  15  22
ATOM     21  C   UNL     1       1.417   2.032  -0.001  0.00  0.00    +0.012 C 
ATOM     22  C   UNL     1      -0.018   1.503   0.010  0.00  0.00    +0.015 C 
ATOM     23  C   UNL     1      -0.758   2.010  -1.229  0.00  0.00    +0.012 C 
ENDBRANCH  15  22
ENDBRANCH   1  20
BRANCH  14  24
ATOM     24  S   UNL     1      -0.069   1.963   6.747  0.00  0.00    -0.078 S 
BRANCH  24  25
ATOM     25  C   UNL     1       1.611   1.851   7.423  0.00  0.00    +0.157 C 
BRANCH  25  26
ATOM     26  C   UNL     1       1.651   2.508   8.778  0.00  0.00    +0.175 C 
ATOM     27  O   UNL     1       0.645   3.005   9.243  0.00  0.00    -0.291 OA
BRANCH  26  28
ATOM     28  C   UNL     1       2.864   2.547   9.511  0.00  0.00    +0.043 A 
ATOM     29  C   UNL     1       4.081   2.027   9.126  0.00  0.00    +0.095 A 
ATOM     30  N   UNL     1       4.997   2.262  10.084  0.00  0.00    -0.360 N 
ATOM     31  H   UNL     1       5.928   1.991  10.036  0.00  0.00    +0.165 HD
ATOM     32  C   UNL     1       4.431   2.937  11.146  0.00  0.00    +0.047 A 
ATOM     33  C   UNL     1       3.076   3.148  10.842  0.00  0.00    +0.010 A 
ATOM     34  C   UNL     1       2.253   3.813  11.745  0.00  0.00    +0.011 A 
ATOM     35  C   UNL     1       2.773   4.265  12.939  0.00  0.00    +0.001 A 
ATOM     36  C   UNL     1       4.111   4.057  13.242  0.00  0.00    +0.002 A 
ATOM     37  C   UNL     1       4.937   3.400  12.356  0.00  0.00    +0.026 A 
ENDBRANCH  26  28
ENDBRANCH  25  26
ENDBRANCH  24  25
ENDBRANCH  14  24
TORSDOF 6
