REMARK  Name = ZINC20233579
REMARK  13 active torsions:
REMARK  status: ('A' for Active; 'I' for Inactive)
REMARK    1  A    between atoms: C_1  and  C_2
REMARK    2  A    between atoms: C_2  and  C_3
REMARK    3  A    between atoms: C_2  and  C_4
REMARK    4  A    between atoms: C_7  and  N_10
REMARK    5  A    between atoms: N_10  and  C_11
REMARK    6  A    between atoms: N_10  and  S_26
REMARK    7  A    between atoms: C_11  and  C_12
REMARK    8  A    between atoms: N_14  and  C_15
REMARK    9  A    between atoms: C_15  and  C_16
REMARK   10  A    between atoms: C_16  and  S_17
REMARK   11  A    between atoms: S_17  and  C_18
REMARK   12  A    between atoms: C_18  and  C_19
REMARK   13  A    between atoms: S_26  and  C_29
REMARK                            x       y       z     vdW  Elec       q    Type
REMARK                         _______ _______ _______ _____ _____    ______ ____
ROOT
ATOM      1  N   UNL     1       0.040   1.051  -8.962  0.00  0.00    -0.194 N 
ENDROOT
BRANCH   1   5
ATOM      2  C   UNL     1      -3.068  -1.206 -10.569  0.00  0.00    -0.045 A 
ATOM      3  C   UNL     1      -2.887  -1.158  -9.199  0.00  0.00    +0.006 A 
ATOM      4  C   UNL     1      -1.857  -0.411  -8.662  0.00  0.00    +0.025 A 
ATOM      5  C   UNL     1      -1.003   0.293  -9.501  0.00  0.00    +0.052 A 
ATOM      6  C   UNL     1      -1.191   0.247 -10.877  0.00  0.00    +0.025 A 
ATOM      7  C   UNL     1      -2.220  -0.506 -11.407  0.00  0.00    +0.006 A 
BRANCH   2   9
ATOM      8  C   UNL     1      -5.128  -1.111 -11.946  0.00  0.00    +0.012 C 
ATOM      9  C   UNL     1      -4.193  -2.023 -11.150  0.00  0.00    +0.013 C 
ATOM     10  C   UNL     1      -3.618  -3.097 -12.077  0.00  0.00    +0.012 C 
ENDBRANCH   2   9
ENDBRANCH   1   5
BRANCH   1  11
ATOM     11  S   UNL     1       0.136   2.673  -9.282  0.00  0.00    +0.075 S 
ATOM     12  O   UNL     1      -1.147   3.073  -9.742  0.00  0.00    -0.150 OA
ATOM     13  O   UNL     1       0.763   3.272  -8.157  0.00  0.00    -0.150 OA
BRANCH  11  14
ATOM     14  C   UNL     1       1.242   2.871 -10.640  0.00  0.00    +0.109 A 
ATOM     15  C   UNL     1       2.605   2.930 -10.418  0.00  0.00    +0.029 A 
ATOM     16  C   UNL     1       3.473   3.080 -11.484  0.00  0.00    +0.002 A 
ATOM     17  C   UNL     1       2.976   3.183 -12.770  0.00  0.00    +0.000 A 
ATOM     18  C   UNL     1       1.613   3.130 -12.991  0.00  0.00    +0.002 A 
ATOM     19  C   UNL     1       0.746   2.974 -11.926  0.00  0.00    +0.029 A 
ENDBRANCH  11  14
ENDBRANCH   1  11
BRANCH   1  20
ATOM     20  C   UNL     1       1.048   0.410  -8.114  0.00  0.00    +0.227 C 
BRANCH  20  21
ATOM     21  C   UNL     1       0.547   0.355  -6.694  0.00  0.00    +0.232 C 
ATOM     22  O   UNL     1      -0.544   0.805  -6.417  0.00  0.00    -0.274 OA
ATOM     23  N   UNL     1       1.312  -0.196  -5.730  0.00  0.00    -0.313 N 
ATOM     24  H   UNL     1       2.302  -0.605  -5.981  0.00  0.00    +0.149 HD
BRANCH  23  25
ATOM     25  C   UNL     1       0.825  -0.251  -4.350  0.00  0.00    +0.115 C 
BRANCH  25  26
ATOM     26  C   UNL     1       1.878  -0.919  -3.464  0.00  0.00    +0.088 C 
BRANCH  26  27
ATOM     27  S   UNL     1       1.275  -0.987  -1.754  0.00  0.00    -0.155 S 
BRANCH  27  28
ATOM     28  C   UNL     1       2.621  -1.796  -0.846  0.00  0.00    +0.104 C 
BRANCH  28  29
ATOM     29  C   UNL     1       2.244  -1.916   0.608  0.00  0.00    -0.037 A 
ATOM     30  C   UNL     1       2.572  -0.906   1.493  0.00  0.00    +0.006 A 
ATOM     31  C   UNL     1       2.222  -1.013   2.826  0.00  0.00    +0.020 A 
ATOM     32  C   UNL     1       1.553  -2.137   3.276  0.00  0.00    +0.041 A 
ATOM     33  C   UNL     1       1.230  -3.151   2.392  0.00  0.00    +0.020 A 
ATOM     34  C   UNL     1       1.575  -3.040   1.058  0.00  0.00    +0.006 A 
ATOM     35 CL   UNL     1       1.118  -2.276   4.952  0.00  0.00    -0.084 Cl
ENDBRANCH  28  29
ENDBRANCH  27  28
ENDBRANCH  26  27
ENDBRANCH  25  26
ENDBRANCH  23  25
ENDBRANCH  20  21
ENDBRANCH   1  20
TORSDOF 11
