REMARK  Name = ZINC40780716
REMARK  7 active torsions:
REMARK  status: ('A' for Active; 'I' for Inactive)
REMARK    1  A    between atoms: C_1  and  N_2
REMARK    2  A    between atoms: N_2  and  C_3
REMARK    3  A    between atoms: C_8  and  C_9
REMARK    4  A    between atoms: C_9  and  O_11
REMARK    5  A    between atoms: O_11  and  C_12
REMARK    6  A    between atoms: C_14  and  N_29
REMARK    7  A    between atoms: C_15  and  N_19
REMARK                            x       y       z     vdW  Elec       q    Type
REMARK                         _______ _______ _______ _____ _____    ______ ____
ROOT
ATOM      1  C   UNL     1       1.260   0.180   0.561  0.00  0.00    +0.137 C 
ATOM      2  N   UNL     1      -0.008  -0.281  -0.011  0.00  0.00    -0.287 N 
ATOM      3  C   UNL     1      -0.011  -1.027  -1.185  0.00  0.00    +0.128 A 
ATOM      4  C   UNL     1       0.062  -0.394  -2.427  0.00  0.00    +0.104 A 
ATOM      5  C   UNL     1       0.056  -1.190  -3.574  0.00  0.00    +0.147 A 
ATOM      6  N   UNL     1      -0.020  -2.512  -3.441  0.00  0.00    -0.221 NA
ATOM      7  C   UNL     1      -0.088  -3.070  -2.249  0.00  0.00    +0.200 A 
ATOM      8  N   UNL     1      -0.079  -2.355  -1.142  0.00  0.00    -0.333 N 
ATOM      9  H   UNL     1      -0.126  -2.804  -0.283  0.00  0.00    +0.168 HD
ENDROOT
BRANCH   5  10
ATOM     10  N   UNL     1       0.126  -0.611  -4.835  0.00  0.00    -0.309 N 
ATOM     11  C   UNL     1       1.412  -0.458  -5.537  0.00  0.00    +0.111 C 
ATOM     12  C   UNL     1       1.363  -1.319  -6.799  0.00  0.00    +0.054 C 
ATOM     13  C   UNL     1       0.078  -1.093  -7.551  0.00  0.00    -0.041 A 
ATOM     14  C   UNL     1       0.047  -1.448  -8.895  0.00  0.00    +0.004 A 
ATOM     15  C   UNL     1      -1.101  -1.277  -9.640  0.00  0.00    +0.000 A 
ATOM     16  C   UNL     1      -2.233  -0.750  -9.047  0.00  0.00    +0.000 A 
ATOM     17  C   UNL     1      -2.205  -0.394  -7.714  0.00  0.00    +0.005 A 
ATOM     18  C   UNL     1      -1.048  -0.560  -6.965  0.00  0.00    -0.027 A 
ATOM     19  C   UNL     1      -1.077  -0.132  -5.524  0.00  0.00    +0.142 C 
ENDBRANCH   5  10
BRANCH   2  20
ATOM     20  C   UNL     1      -1.207   0.026   0.620  0.00  0.00    +0.049 A 
ATOM     21  C   UNL     1      -1.977   1.094   0.174  0.00  0.00    +0.024 A 
ATOM     22  C   UNL     1      -3.167   1.398   0.802  0.00  0.00    +0.002 A 
ATOM     23  C   UNL     1      -3.605   0.644   1.880  0.00  0.00    +0.001 A 
ATOM     24  C   UNL     1      -2.856  -0.418   2.337  0.00  0.00    +0.017 A 
ATOM     25  C   UNL     1      -1.650  -0.743   1.707  0.00  0.00    +0.080 A 
BRANCH  25  26
ATOM     26  C   UNL     1      -0.847  -1.881   2.186  0.00  0.00    +0.341 C 
ATOM     27  O   UNL     1       0.190  -2.172   1.624  0.00  0.00    -0.245 OA
BRANCH  26  28
ATOM     28  O   UNL     1      -1.263  -2.600   3.248  0.00  0.00    -0.464 OA
ATOM     29  C   UNL     1      -0.435  -3.690   3.658  0.00  0.00    +0.280 C 
ENDBRANCH  26  28
ENDBRANCH  25  26
ENDBRANCH   2  20
BRANCH   4  30
ATOM     30  N   UNL     1       0.141   1.005  -2.520  0.00  0.00    -0.353 N 
ATOM     31  H   UNL     1       0.221   1.541  -1.716  0.00  0.00    +0.143 HD
ATOM     32  H   UNL     1       0.114   1.435  -3.389  0.00  0.00    +0.143 HD
ENDBRANCH   4  30
TORSDOF 5
