REMARK  Name = ZINC38815588
REMARK  8 active torsions:
REMARK  status: ('A' for Active; 'I' for Inactive)
REMARK    1  A    between atoms: C_4  and  C_10
REMARK    2  A    between atoms: C_11  and  C_12
REMARK    3  A    between atoms: C_11  and  C_37
REMARK    4  A    between atoms: N_14  and  C_15
REMARK    5  A    between atoms: C_18  and  N_21
REMARK    6  A    between atoms: C_22  and  C_24
REMARK    7  A    between atoms: C_24  and  C_35
REMARK    8  A    between atoms: C_25  and  C_26
REMARK                            x       y       z     vdW  Elec       q    Type
REMARK                         _______ _______ _______ _____ _____    ______ ____
ROOT
ATOM      1  C   UNL     1       7.493   6.741   0.037  0.00  0.00    +0.034 A 
ATOM      2  C   UNL     1       6.503   7.710   0.149  0.00  0.00    +0.025 A 
ATOM      3  C   UNL     1       6.850   9.042   0.248  0.00  0.00    +0.025 A 
ATOM      4  C   UNL     1       8.189   9.414   0.235  0.00  0.00    +0.034 A 
ATOM      5  C   UNL     1       9.178   8.445   0.124  0.00  0.00    +0.025 A 
ATOM      6  C   UNL     1       8.832   7.112   0.029  0.00  0.00    +0.025 A 
ENDROOT
BRANCH   1   9
ATOM      7  C   UNL     1       7.915   4.448   0.512  0.00  0.00    +0.259 C 
ATOM      8  O   UNL     1       8.961   4.763   1.045  0.00  0.00    -0.269 OA
ATOM      9  N   UNL     1       7.141   5.390  -0.064  0.00  0.00    -0.281 N 
ATOM     10  H   UNL     1       6.341   5.132  -0.547  0.00  0.00    +0.155 HD
BRANCH   7  12
ATOM     11  C   UNL     1       8.288   2.068   1.085  0.00  0.00    +0.030 C 
ATOM     12  C   UNL     1       7.492   3.037   0.494  0.00  0.00    +0.114 C 
BRANCH  11  16
ATOM     13  C   UNL     1      10.211  -1.692   2.734  0.00  0.00    +0.001 A 
ATOM     14  C   UNL     1       9.784  -0.479   2.309  0.00  0.00    +0.010 A 
ATOM     15  C   UNL     1       8.562  -0.360   1.612  0.00  0.00    +0.003 A 
ATOM     16  C   UNL     1       7.886   0.728   1.069  0.00  0.00    -0.018 C 
ATOM     17  C   UNL     1       6.626   0.157   0.456  0.00  0.00    +0.149 C 
ATOM     18  N   UNL     1       6.672  -1.288   0.705  0.00  0.00    -0.380 N 
ATOM     19  C   UNL     1       7.766  -1.581   1.357  0.00  0.00    +0.043 A 
ATOM     20  C   UNL     1       8.300  -2.858   1.851  0.00  0.00    +0.026 A 
ATOM     21  C   UNL     1       9.481  -2.866   2.509  0.00  0.00    +0.002 A 
ATOM     22  H   UNL     1       5.996  -1.926   0.428  0.00  0.00    +0.160 HD
ENDBRANCH  11  16
BRANCH  12  23
ATOM     23  C   UNL     1       6.260   2.666  -0.134  0.00  0.00    +0.104 C 
ATOM     24  N   UNL     1       5.282   2.372  -0.633  0.00  0.00    -0.191 NA
ENDBRANCH  12  23
ENDBRANCH   7  12
ENDBRANCH   1   9
BRANCH   4  25
ATOM     25  N   UNL     1       8.540  10.764   0.335  0.00  0.00    -0.281 N 
ATOM     26  C   UNL     1       7.808  11.597   1.101  0.00  0.00    +0.259 C 
ATOM     27  O   UNL     1       6.793  11.194   1.638  0.00  0.00    -0.269 OA
ATOM     28  H   UNL     1       9.311  11.101  -0.147  0.00  0.00    +0.155 HD
BRANCH  26  29
ATOM     29  C   UNL     1       8.235  12.994   1.287  0.00  0.00    +0.114 C 
ATOM     30  C   UNL     1       7.481  13.851   2.074  0.00  0.00    +0.030 C 
BRANCH  30  31
ATOM     31  C   UNL     1       7.887  15.178   2.251  0.00  0.00    -0.018 C 
ATOM     32  C   UNL     1       7.254  16.158   3.007  0.00  0.00    +0.003 A 
ATOM     33  C   UNL     1       8.038  17.409   2.905  0.00  0.00    +0.043 A 
ATOM     34  N   UNL     1       9.085  17.233   2.143  0.00  0.00    -0.380 N 
ATOM     35  C   UNL     1       9.111  15.847   1.665  0.00  0.00    +0.149 C 
ATOM     36  C   UNL     1       7.544  18.585   3.635  0.00  0.00    +0.026 A 
ATOM     37  C   UNL     1       6.408  18.478   4.361  0.00  0.00    +0.002 A 
ATOM     38  C   UNL     1       5.688  17.279   4.438  0.00  0.00    +0.001 A 
ATOM     39  C   UNL     1       6.081  16.155   3.794  0.00  0.00    +0.010 A 
ATOM     40  H   UNL     1       9.744  17.912   1.930  0.00  0.00    +0.160 HD
ENDBRANCH  30  31
BRANCH  29  41
ATOM     41  C   UNL     1       9.429  13.468   0.654  0.00  0.00    +0.104 C 
ATOM     42  N   UNL     1      10.376  13.844   0.152  0.00  0.00    -0.191 NA
ENDBRANCH  29  41
ENDBRANCH  26  29
ENDBRANCH   4  25
TORSDOF 8
