REMARK  Name = ZINC04017200
REMARK  6 active torsions:
REMARK  status: ('A' for Active; 'I' for Inactive)
REMARK    1  A    between atoms: C_1  and  C_2
REMARK    2  A    between atoms: C_3  and  C_23
REMARK    3  A    between atoms: C_7  and  N_11
REMARK    4  A    between atoms: N_11  and  N_12
REMARK    5  A    between atoms: C_13  and  C_14
REMARK    6  A    between atoms: C_17  and  N_20
REMARK                            x       y       z     vdW  Elec       q    Type
REMARK                         _______ _______ _______ _____ _____    ______ ____
ROOT
ATOM      1  N   UNL     1      -4.835   0.942  -0.045  0.00  0.00    -0.220 N 
ATOM      2  H   UNL     1      -4.787   0.050  -0.424  0.00  0.00    +0.176 HD
ENDROOT
BRANCH   1   9
ATOM      3  C   UNL     1      -6.358  -1.487  -0.229  0.00  0.00    +0.045 C 
ATOM      4  C   UNL     1      -7.512  -0.518  -0.194  0.00  0.00    -0.028 A 
ATOM      5  C   UNL     1      -8.775  -0.966  -0.250  0.00  0.00    -0.008 A 
ATOM      6  S   UNL     1      -9.749   0.525  -0.179  0.00  0.00    -0.074 S 
ATOM      7  C   UNL     1      -8.434   1.710  -0.076  0.00  0.00    +0.114 A 
ATOM      8  C   UNL     1      -7.269   0.910  -0.106  0.00  0.00    +0.052 A 
ATOM      9  C   UNL     1      -6.040   1.622  -0.029  0.00  0.00    +0.150 A 
ATOM     10  N   UNL     1      -6.063   2.943   0.052  0.00  0.00    -0.219 NA
ATOM     11  C   UNL     1      -7.192   3.627   0.070  0.00  0.00    +0.224 A 
ATOM     12  N   UNL     1      -8.364   3.023   0.006  0.00  0.00    -0.228 NA
ATOM     13  C   UNL     1      -9.257  -2.391  -0.348  0.00  0.00    +0.052 C 
ENDBRANCH   1   9
BRANCH   1  14
ATOM     14  N   UNL     1      -3.686   1.541   0.485  0.00  0.00    -0.189 NA
ATOM     15  C   UNL     1      -2.555   0.903   0.470  0.00  0.00    +0.138 C 
BRANCH  15  16
ATOM     16  C   UNL     1      -1.345   1.534   1.029  0.00  0.00    -0.005 A 
ATOM     17  C   UNL     1      -0.127   0.851   1.014  0.00  0.00    +0.012 A 
ATOM     18  C   UNL     1       1.002   1.450   1.533  0.00  0.00    +0.033 A 
ATOM     19  C   UNL     1       0.929   2.722   2.071  0.00  0.00    +0.126 A 
ATOM     20  C   UNL     1      -0.275   3.403   2.094  0.00  0.00    +0.033 A 
ATOM     21  C   UNL     1      -1.412   2.817   1.579  0.00  0.00    +0.012 A 
BRANCH  19  22
ATOM     22  N   UNL     1       2.146   3.358   2.626  0.00  0.00    +0.056 N 
ATOM     23  O   UNL     1       3.207   2.762   2.607  0.00  0.00    -0.126 OA
ATOM     24  O   UNL     1       2.085   4.478   3.101  0.00  0.00    -0.126 OA
ENDBRANCH  19  22
ENDBRANCH  15  16
ENDBRANCH   1  14
TORSDOF 4
