REMARK  Name = ZINC16904335
REMARK  5 active torsions:
REMARK  status: ('A' for Active; 'I' for Inactive)
REMARK    1  A    between atoms: C_1  and  C_2
REMARK    2  A    between atoms: C_2  and  N_3
REMARK    3  A    between atoms: C_7  and  C_8
REMARK    4  A    between atoms: N_16  and  C_17
REMARK    5  A    between atoms: C_21  and  O_23
REMARK                            x       y       z     vdW  Elec       q    Type
REMARK                         _______ _______ _______ _____ _____    ______ ____
ROOT
ATOM      1  N   UNL     1       0.002  -0.004   0.002  0.00  0.00    -0.246 N 
ATOM      2  C   UNL     1      -0.016   1.318   0.009  0.00  0.00    +0.259 C 
ATOM      3  O   UNL     1      -1.063   1.939   0.018  0.00  0.00    -0.269 OA
ATOM      4  C   UNL     1       1.285   2.006   0.001  0.00  0.00    +0.079 C 
ATOM      5  C   UNL     1       1.557   3.341   0.005  0.00  0.00    +0.046 C 
ATOM      6  S   UNL     1       2.412   0.619  -0.018  0.00  0.00    -0.049 S 
ATOM      7  C   UNL     1       1.197  -0.689  -0.013  0.00  0.00    +0.168 C 
ATOM      8  N   UNL     1       1.395  -1.989  -0.021  0.00  0.00    -0.225 NA
ENDROOT
BRANCH   5   9
ATOM      9  C   UNL     1       2.899   3.790  -0.006  0.00  0.00    +0.040 A 
ATOM     10  C   UNL     1       3.321   5.107  -0.003  0.00  0.00    +0.027 A 
ATOM     11  C   UNL     1       4.720   5.091  -0.016  0.00  0.00    +0.019 A 
ATOM     12  C   UNL     1       5.121   3.797  -0.026  0.00  0.00    +0.083 A 
ATOM     13  N   UNL     1       4.023   2.995  -0.014  0.00  0.00    -0.361 N 
ATOM     14  H   UNL     1       4.031   2.025  -0.014  0.00  0.00    +0.165 HD
ENDBRANCH   5   9
BRANCH   8  15
ATOM     15  C   UNL     1       2.669  -2.487  -0.036  0.00  0.00    +0.070 A 
ATOM     16  C   UNL     1       3.625  -1.943  -0.898  0.00  0.00    +0.028 A 
ATOM     17  C   UNL     1       4.908  -2.448  -0.910  0.00  0.00    +0.006 A 
ATOM     18  C   UNL     1       5.253  -3.493  -0.072  0.00  0.00    +0.045 A 
ATOM     19  C   UNL     1       4.310  -4.040   0.788  0.00  0.00    +0.119 A 
ATOM     20  C   UNL     1       3.020  -3.538   0.813  0.00  0.00    +0.073 A 
BRANCH  19  21
ATOM     21  O   UNL     1       4.655  -5.066   1.610  0.00  0.00    -0.507 OA
ATOM     22  H   UNL     1       4.989  -4.784   2.473  0.00  0.00    +0.292 HD
ENDBRANCH  19  21
ENDBRANCH   8  15
BRANCH   1  24
ATOM     23  C   UNL     1      -1.714  -0.998  -1.429  0.00  0.00    +0.025 C 
ATOM     24  C   UNL     1      -1.260  -0.747   0.011  0.00  0.00    +0.112 C 
ENDBRANCH   1  24
TORSDOF 4
