REMARK  Name = ZINC15081199
REMARK  15 active torsions:
REMARK  status: ('A' for Active; 'I' for Inactive)
REMARK    1  A    between atoms: C_1  and  C_2
REMARK    2  A    between atoms: C_5  and  S_8
REMARK    3  A    between atoms: S_8  and  N_11
REMARK    4  A    between atoms: N_11  and  N_12
REMARK    5  A    between atoms: C_15  and  C_38
REMARK    6  A    between atoms: C_15  and  O_39
REMARK    7  A    between atoms: C_16  and  C_34
REMARK    8  A    between atoms: C_18  and  C_26
REMARK    9  A    between atoms: C_20  and  C_22
REMARK   10  A    between atoms: C_22  and  O_24
REMARK   11  A    between atoms: O_24  and  C_25
REMARK   12  A    between atoms: C_29  and  O_32
REMARK   13  A    between atoms: O_32  and  C_33
REMARK   14  A    between atoms: C_34  and  O_36
REMARK   15  A    between atoms: O_36  and  C_37
REMARK                            x       y       z     vdW  Elec       q    Type
REMARK                         _______ _______ _______ _____ _____    ______ ____
ROOT
ATOM      1  N   UNL     1      -2.299   4.424   2.613  0.00  0.00    -0.174 NA
ATOM      2  C   UNL     1      -1.341   3.575   2.588  0.00  0.00    +0.055 C 
ATOM      3  C   UNL     1      -0.767   3.091   1.275  0.00  0.00    +0.088 C 
ATOM      4  C   UNL     1      -0.750   1.559   1.285  0.00  0.00    +0.082 C 
ATOM      5  C   UNL     1       0.003   1.067   2.522  0.00  0.00    +0.138 C 
ATOM      6  C   UNL     1      -0.740   1.499   3.788  0.00  0.00    +0.055 C 
ATOM      7  C   UNL     1      -0.756   3.029   3.872  0.00  0.00    +0.152 C 
ATOM      8  C   UNL     1      -0.050   1.048   0.025  0.00  0.00    +0.042 C 
ENDROOT
BRANCH   6   9
ATOM      9  C   UNL     1      -0.040   0.936   4.998  0.00  0.00    -0.042 A 
ATOM     10  C   UNL     1       1.278   1.268   5.249  0.00  0.00    +0.007 A 
ATOM     11  C   UNL     1       1.920   0.758   6.361  0.00  0.00    +0.046 A 
ATOM     12  C   UNL     1       1.245  -0.097   7.220  0.00  0.00    +0.120 A 
ATOM     13  C   UNL     1      -0.077  -0.433   6.963  0.00  0.00    +0.046 A 
ATOM     14  C   UNL     1      -0.716   0.085   5.853  0.00  0.00    +0.007 A 
BRANCH  12  15
ATOM     15  O   UNL     1       1.876  -0.605   8.311  0.00  0.00    -0.495 OA
ATOM     16  C   UNL     1       3.236  -0.216   8.513  0.00  0.00    +0.277 C 
ENDBRANCH  12  15
ENDBRANCH   6   9
BRANCH   1  17
ATOM     17  N   UNL     1      -2.745   5.011   1.421  0.00  0.00    -0.137 N 
ATOM     18  H   UNL     1      -2.377   4.724   0.571  0.00  0.00    +0.197 HD
BRANCH  17  19
ATOM     19  S   UNL     1      -3.900   6.197   1.465  0.00  0.00    +0.086 S 
ATOM     20  O   UNL     1      -4.031   6.685   0.137  0.00  0.00    -0.149 OA
ATOM     21  O   UNL     1      -4.999   5.667   2.194  0.00  0.00    -0.149 OA
BRANCH  19  26
ATOM     22  C   UNL     1      -1.674  10.736   4.758  0.00  0.00    +0.044 C 
ATOM     23  C   UNL     1      -2.231   9.603   3.936  0.00  0.00    -0.050 A 
ATOM     24  C   UNL     1      -2.020   9.572   2.570  0.00  0.00    +0.005 A 
ATOM     25  C   UNL     1      -2.530   8.532   1.815  0.00  0.00    +0.029 A 
ATOM     26  C   UNL     1      -3.250   7.523   2.426  0.00  0.00    +0.110 A 
ATOM     27  C   UNL     1      -3.465   7.556   3.792  0.00  0.00    +0.029 A 
ATOM     28  C   UNL     1      -2.952   8.594   4.547  0.00  0.00    +0.005 A 
ENDBRANCH  19  26
ENDBRANCH  17  19
ENDBRANCH   1  17
BRANCH   7  29
ATOM     29  C   UNL     1      -1.604   3.462   5.040  0.00  0.00    +0.316 C 
ATOM     30  O   UNL     1      -2.142   2.635   5.736  0.00  0.00    -0.250 OA
BRANCH  29  31
ATOM     31  O   UNL     1      -1.761   4.769   5.306  0.00  0.00    -0.467 OA
ATOM     32  C   UNL     1      -2.591   5.113   6.447  0.00  0.00    +0.280 C 
ENDBRANCH  29  31
ENDBRANCH   7  29
BRANCH   5  33
ATOM     33  C   UNL     1       0.097  -0.437   2.487  0.00  0.00    +0.313 C 
ATOM     34  O   UNL     1      -0.386  -1.093   3.378  0.00  0.00    -0.250 OA
BRANCH  33  35
ATOM     35  O   UNL     1       0.717  -1.046   1.464  0.00  0.00    -0.468 OA
ATOM     36  C   UNL     1       0.770  -2.497   1.496  0.00  0.00    +0.280 C 
ENDBRANCH  33  35
ENDBRANCH   5  33
BRANCH   4  37
ATOM     37  O   UNL     1      -2.092   1.068   1.318  0.00  0.00    -0.388 OA
ATOM     38  H   UNL     1      -2.629   1.342   0.562  0.00  0.00    +0.210 HD
ENDBRANCH   4  37
TORSDOF 10
