REMARK  Name = ZINC11617483
REMARK  6 active torsions:
REMARK  status: ('A' for Active; 'I' for Inactive)
REMARK    1  A    between atoms: C_1  and  O_2
REMARK    2  A    between atoms: O_2  and  C_3
REMARK    3  A    between atoms: C_6  and  C_11
REMARK    4  A    between atoms: C_8  and  O_9
REMARK    5  A    between atoms: O_9  and  C_10
REMARK    6  A    between atoms: C_16  and  C_27
REMARK                            x       y       z     vdW  Elec       q    Type
REMARK                         _______ _______ _______ _____ _____    ______ ____
ROOT
ATOM      1  C   UNL     1       2.753  -3.018  -4.434  0.00  0.00    +0.108 C 
ATOM      2  C   UNL     1       1.786  -2.959  -5.641  0.00  0.00    +0.077 C 
ATOM      3  C   UNL     1       2.691  -2.460  -6.753  0.00  0.00    +0.033 C 
ATOM      4  C   UNL     1       2.408  -2.497  -8.120  0.00  0.00    +0.063 C 
ATOM      5  C   UNL     1       1.133  -2.894  -8.586  0.00  0.00    +0.005 C 
ATOM      6  C   UNL     1       0.911  -2.909  -9.983  0.00  0.00    +0.006 A 
ATOM      7  C   UNL     1      -0.336  -3.295 -10.502  0.00  0.00    +0.030 A 
ATOM      8  C   UNL     1      -0.534  -3.304 -11.850  0.00  0.00    +0.042 A 
ATOM      9  C   UNL     1       0.488  -2.934 -12.723  0.00  0.00    +0.022 A 
ATOM     10  C   UNL     1       1.708  -2.556 -12.254  0.00  0.00    +0.025 A 
ATOM     11  C   UNL     1       1.952  -2.533 -10.868  0.00  0.00    +0.042 A 
ATOM     12  N   UNL     1       3.152  -2.160 -10.407  0.00  0.00    -0.281 N 
ATOM     13  C   UNL     1       3.429  -2.117  -9.112  0.00  0.00    +0.250 C 
ATOM     14  O   UNL     1       4.538  -1.764  -8.739  0.00  0.00    -0.270 OA
ATOM     15 CL   UNL     1      -2.076  -3.781 -12.488  0.00  0.00    -0.084 Cl
ATOM     16  N   UNL     1       3.808  -1.978  -6.193  0.00  0.00    -0.283 N 
ATOM     17  N   UNL     1       3.794  -2.042  -4.831  0.00  0.00    -0.235 NA
ATOM     18  H   UNL     1       4.551  -1.621  -6.704  0.00  0.00    +0.166 HD
ATOM     19  H   UNL     1       3.610  -1.134  -4.429  0.00  0.00    +0.145 HD
ATOM     20  H   UNL     1       3.841  -1.909 -11.042  0.00  0.00    +0.155 HD
ENDROOT
BRANCH   1  24
ATOM     21  C   UNL     1       0.790  -1.782  -0.841  0.00  0.00    +0.162 A 
ATOM     22  C   UNL     1       1.202  -0.839  -1.769  0.00  0.00    +0.050 A 
ATOM     23  C   UNL     1       1.836  -1.242  -2.929  0.00  0.00    +0.009 A 
ATOM     24  C   UNL     1       2.061  -2.585  -3.167  0.00  0.00    -0.025 A 
ATOM     25  C   UNL     1       1.653  -3.531  -2.246  0.00  0.00    +0.054 A 
ATOM     26  C   UNL     1       1.022  -3.134  -1.078  0.00  0.00    +0.162 A 
BRANCH  21  28
ATOM     27  C   UNL     1      -0.037   0.016   0.477  0.00  0.00    +0.277 C 
ATOM     28  O   UNL     1       0.167  -1.388   0.301  0.00  0.00    -0.491 OA
ENDBRANCH  21  28
BRANCH  26  29
ATOM     29  O   UNL     1       0.625  -4.063  -0.168  0.00  0.00    -0.491 OA
ATOM     30  C   UNL     1       0.895  -5.431  -0.478  0.00  0.00    +0.277 C 
ENDBRANCH  26  29
ENDBRANCH   1  24
BRANCH   5  31
ATOM     31  C   UNL     1       0.066  -3.282  -7.643  0.00  0.00    -0.016 A 
ATOM     32  C   UNL     1      -0.631  -2.303  -6.930  0.00  0.00    +0.008 A 
ATOM     33  C   UNL     1      -1.626  -2.672  -6.050  0.00  0.00    +0.001 A 
ATOM     34  C   UNL     1      -1.936  -4.010  -5.873  0.00  0.00    +0.000 A 
ATOM     35  C   UNL     1      -1.250  -4.985  -6.576  0.00  0.00    +0.001 A 
ATOM     36  C   UNL     1      -0.256  -4.630  -7.463  0.00  0.00    +0.008 A 
ENDBRANCH   5  31
TORSDOF 4
