REMARK  Name = ZINC56461056
REMARK  8 active torsions:
REMARK  status: ('A' for Active; 'I' for Inactive)
REMARK    1  A    between atoms: C_1  and  C_2
REMARK    2  A    between atoms: C_2  and  C_3
REMARK    3  A    between atoms: C_2  and  C_4
REMARK    4  A    between atoms: C_2  and  N_23
REMARK    5  A    between atoms: N_6  and  C_7
REMARK    6  A    between atoms: C_7  and  C_8
REMARK    7  A    between atoms: C_8  and  C_14
REMARK    8  A    between atoms: N_26  and  C_27
REMARK                            x       y       z     vdW  Elec       q    Type
REMARK                         _______ _______ _______ _____ _____    ______ ____
ROOT
ATOM      1  C   UNL     1      -3.439  -1.171  -1.145  0.00  0.00    +0.115 C 
ENDROOT
BRANCH   1   2
ATOM      2  C   UNL     1      -4.070  -1.314  -2.531  0.00  0.00    +0.011 C 
ATOM      3  C   UNL     1      -3.285  -2.344  -3.345  0.00  0.00    +0.013 C 
ATOM      4  C   UNL     1      -3.319  -3.695  -2.627  0.00  0.00    +0.001 C 
ATOM      5  C   UNL     1      -4.770  -4.158  -2.482  0.00  0.00    +0.000 C 
ATOM      6  C   UNL     1      -5.556  -3.128  -1.668  0.00  0.00    +0.001 C 
ATOM      7  C   UNL     1      -5.521  -1.777  -2.386  0.00  0.00    +0.013 C 
BRANCH   2   8
ATOM      8  C   UNL     1      -4.037   0.017  -3.238  0.00  0.00    -0.036 A 
ATOM      9  C   UNL     1      -5.219   0.656  -3.563  0.00  0.00    +0.008 A 
ATOM     10  C   UNL     1      -5.193   1.876  -4.211  0.00  0.00    +0.050 A 
ATOM     11  C   UNL     1      -3.981   2.463  -4.537  0.00  0.00    +0.166 A 
ATOM     12  C   UNL     1      -2.790   1.819  -4.210  0.00  0.00    +0.167 A 
ATOM     13  C   UNL     1      -2.823   0.599  -3.555  0.00  0.00    +0.053 A 
ATOM     14  O   UNL     1      -1.747   2.591  -4.633  0.00  0.00    -0.453 OA
ATOM     15  C   UNL     1      -2.312   3.514  -5.582  0.00  0.00    +0.466 C 
ATOM     16  O   UNL     1      -3.684   3.638  -5.165  0.00  0.00    -0.453 OA
ENDBRANCH   2   8
ENDBRANCH   1   2
BRANCH   1  19
ATOM     17  C   UNL     1      -3.848   0.075   0.910  0.00  0.00    +0.236 C 
ATOM     18  O   UNL     1      -2.959  -0.561   1.437  0.00  0.00    -0.273 OA
ATOM     19  N   UNL     1      -4.166  -0.154  -0.380  0.00  0.00    -0.313 N 
ATOM     20  H   UNL     1      -4.877   0.354  -0.801  0.00  0.00    +0.149 HD
BRANCH  17  22
ATOM     21  C   UNL     1      -5.873   0.508   2.274  0.00  0.00    +0.041 C 
ATOM     22  C   UNL     1      -4.595   1.121   1.696  0.00  0.00    +0.106 C 
ATOM     23  C   UNL     1      -3.712   1.628   2.838  0.00  0.00    +0.041 C 
BRANCH  22  24
ATOM     24  N   UNL     1      -4.944   2.238   0.815  0.00  0.00    -0.286 N 
ATOM     25  C   UNL     1      -5.620   3.296   1.304  0.00  0.00    +0.300 C 
ATOM     26  O   UNL     1      -5.941   3.323   2.477  0.00  0.00    -0.253 OA
ATOM     27  N   UNL     1      -5.942   4.324   0.494  0.00  0.00    -0.302 N 
ATOM     28  C   UNL     1      -6.677   5.474   1.025  0.00  0.00    +0.129 C 
ATOM     29  H   UNL     1      -4.688   2.216  -0.120  0.00  0.00    +0.151 HD
ATOM     30  H   UNL     1      -5.686   4.302  -0.442  0.00  0.00    +0.150 HD
ENDBRANCH  22  24
ENDBRANCH  17  22
ENDBRANCH   1  19
TORSDOF 5
