REMARK  Name = ZINC00192589
REMARK  3 active torsions:
REMARK  status: ('A' for Active; 'I' for Inactive)
REMARK    1  A    between atoms: C_4  and  O_23
REMARK    2  A    between atoms: C_5  and  C_7
REMARK    3  A    between atoms: N_8  and  N_9
REMARK                            x       y       z     vdW  Elec       q    Type
REMARK                         _______ _______ _______ _____ _____    ______ ____
ROOT
ATOM      1  N   UNL     1       0.927  -5.040   0.019  0.00  0.00    -0.185 N 
ATOM      2  C   UNL     1      -0.264  -5.652   0.234  0.00  0.00    +0.227 A 
ATOM      3  N   UNL     1      -1.333  -5.012   0.656  0.00  0.00    -0.228 NA
ATOM      4  C   UNL     1      -1.215  -3.706   0.875  0.00  0.00    +0.116 A 
ATOM      5  C   UNL     1      -0.019  -2.980   0.681  0.00  0.00    +0.077 A 
ATOM      6  C   UNL     1       1.123  -3.715   0.220  0.00  0.00    +0.283 A 
ATOM      7  O   UNL     1       2.201  -3.182   0.021  0.00  0.00    -0.265 OA
ATOM      8  C   UNL     1      -0.079  -1.558   0.972  0.00  0.00    -0.023 A 
ATOM      9  C   UNL     1      -1.270  -1.075   1.398  0.00  0.00    -0.004 A 
ATOM     10  S   UNL     1      -2.356  -2.479   1.430  0.00  0.00    -0.073 S 
ATOM     11  C   UNL     1      -1.597   0.340   1.762  0.00  0.00    +0.043 C 
ATOM     12  C   UNL     1      -0.282   1.113   1.939  0.00  0.00    +0.005 C 
ATOM     13  C   UNL     1       0.627   0.814   0.745  0.00  0.00    +0.005 C 
ATOM     14  C   UNL     1       1.123  -0.630   0.816  0.00  0.00    +0.037 C 
ENDROOT
BRANCH   1  16
ATOM     15  C   UNL     1       1.911  -6.466  -1.552  0.00  0.00    +0.145 C 
ATOM     16  N   UNL     1       2.004  -5.814  -0.432  0.00  0.00    -0.170 NA
BRANCH  15  21
ATOM     17  C   UNL     1      -1.101  -4.905  -3.153  0.00  0.00    +0.001 A 
ATOM     18  C   UNL     1      -1.447  -5.872  -4.082  0.00  0.00    +0.004 A 
ATOM     19  C   UNL     1      -0.705  -7.033  -4.192  0.00  0.00    +0.046 A 
ATOM     20  C   UNL     1       0.392  -7.237  -3.372  0.00  0.00    +0.125 A 
ATOM     21  C   UNL     1       0.747  -6.260  -2.430  0.00  0.00    +0.036 A 
ATOM     22  C   UNL     1      -0.015  -5.093  -2.325  0.00  0.00    +0.013 A 
BRANCH  20  23
ATOM     23  O   UNL     1       1.122  -8.377  -3.479  0.00  0.00    -0.506 OA
ATOM     24  H   UNL     1       0.861  -9.070  -2.857  0.00  0.00    +0.292 HD
ENDBRANCH  20  23
ENDBRANCH  15  21
ENDBRANCH   1  16
TORSDOF 3
