REMARK  Name = ZINC24283744
REMARK  8 active torsions:
REMARK  status: ('A' for Active; 'I' for Inactive)
REMARK    1  A    between atoms: C_1  and  C_2
REMARK    2  A    between atoms: C_3  and  C_30
REMARK    3  A    between atoms: N_4  and  C_24
REMARK    4  A    between atoms: C_5  and  N_9
REMARK    5  A    between atoms: C_6  and  C_7
REMARK    6  A    between atoms: C_10  and  C_12
REMARK    7  A    between atoms: C_12  and  N_13
REMARK    8  A    between atoms: C_21  and  C_23
REMARK                            x       y       z     vdW  Elec       q    Type
REMARK                         _______ _______ _______ _____ _____    ______ ____
ROOT
ATOM      1  N   UNL     1       1.059   5.948  -0.208  0.00  0.00    -0.272 N 
ATOM      2  C   UNL     1       1.897   6.391   0.751  0.00  0.00    +0.202 C 
ATOM      3  O   UNL     1       1.553   7.290   1.489  0.00  0.00    -0.278 OA
ATOM      4  H   UNL     1       1.334   5.075  -0.818  0.00  0.00    +0.156 HD
ENDROOT
BRANCH   1   9
ATOM      5  C   UNL     1      -2.584   9.439  -0.496  0.00  0.00    +0.047 C 
ATOM      6  C   UNL     1      -1.816   8.144  -0.567  0.00  0.00    -0.011 A 
ATOM      7  C   UNL     1      -2.281   6.959  -0.994  0.00  0.00    +0.022 A 
ATOM      8  N   UNL     1      -1.285   6.023  -0.904  0.00  0.00    -0.329 N 
ATOM      9  C   UNL     1      -0.149   6.593  -0.424  0.00  0.00    +0.123 A 
ATOM     10  C   UNL     1      -0.413   7.935  -0.189  0.00  0.00    +0.095 A 
ATOM     11  C   UNL     1      -3.680   6.698  -1.490  0.00  0.00    +0.064 C 
BRANCH   8  12
ATOM     12  C   UNL     1      -1.423   4.613  -1.277  0.00  0.00    +0.089 C 
ATOM     13  C   UNL     1      -0.544   4.320  -2.495  0.00  0.00    +0.025 C 
ATOM     14  C   UNL     1      -0.688   2.847  -2.885  0.00  0.00    +0.002 C 
ATOM     15  C   UNL     1      -0.249   1.965  -1.715  0.00  0.00    +0.000 C 
ATOM     16  C   UNL     1      -1.128   2.258  -0.497  0.00  0.00    +0.002 C 
ATOM     17  C   UNL     1      -0.984   3.731  -0.107  0.00  0.00    +0.025 C 
ENDBRANCH   8  12
BRANCH  10  18
ATOM     18  C   UNL     1       0.498   8.916   0.319  0.00  0.00    +0.103 C 
ATOM     19  N   UNL     1       1.221   9.695   0.722  0.00  0.00    -0.191 NA
ENDBRANCH  10  18
ENDBRANCH   1   9
BRANCH   2  20
ATOM     20  C   UNL     1       3.261   5.769   0.905  0.00  0.00    +0.020 C 
BRANCH  20  21
ATOM     21  N   UNL     1       3.918   6.319   2.098  0.00  0.00    +0.392 N 
ATOM     22  C   UNL     1       3.151   6.007   3.313  0.00  0.00    -0.055 C 
ATOM     23  C   UNL     1       3.629   6.894   4.470  0.00  0.00    +0.103 C 
ATOM     24  N   UNL     1       5.092   6.805   4.542  0.00  0.00    -0.354 N 
ATOM     25  C   UNL     1       5.901   7.160   5.573  0.00  0.00    +0.086 A 
ATOM     26  C   UNL     1       7.178   6.904   5.213  0.00  0.00    +0.019 A 
ATOM     27  C   UNL     1       7.151   6.372   3.906  0.00  0.00    +0.021 A 
ATOM     28  C   UNL     1       5.868   6.324   3.520  0.00  0.00    +0.005 A 
ATOM     29  C   UNL     1       5.306   5.837   2.207  0.00  0.00    -0.023 C 
ATOM     30  C   UNL     1       6.138   6.393   1.049  0.00  0.00    -0.007 C 
ATOM     31  H   UNL     1       3.946   7.414   1.992  0.00  0.00    -0.080 HD
ENDBRANCH  20  21
ENDBRANCH   2  20
TORSDOF 5
