REMARK  Name = ZINC39912638
REMARK  11 active torsions:
REMARK  status: ('A' for Active; 'I' for Inactive)
REMARK    1  A    between atoms: C_1  and  C_2
REMARK    2  A    between atoms: C_2  and  C_3
REMARK    3  A    between atoms: C_3  and  O_4
REMARK    4  A    between atoms: O_4  and  C_5
REMARK    5  A    between atoms: C_9  and  C_11
REMARK    6  A    between atoms: C_14  and  C_29
REMARK    7  A    between atoms: N_21  and  C_22
REMARK    8  A    between atoms: C_22  and  C_23
REMARK    9  A    between atoms: C_31  and  C_37
REMARK   10  A    between atoms: C_33  and  C_36
REMARK   11  A    between atoms: C_34  and  O_35
REMARK                            x       y       z     vdW  Elec       q    Type
REMARK                         _______ _______ _______ _____ _____    ______ ____
ROOT
ATOM      1  C   UNL     1       2.076  -5.994  -3.570  0.00  0.00    +0.142 C 
ATOM      2  C   UNL     1       3.458  -6.498  -3.255  0.00  0.00    +0.035 A 
ATOM      3  C   UNL     1       4.498  -6.587  -2.323  0.00  0.00    +0.102 A 
ATOM      4  N   UNL     1       5.474  -7.271  -2.886  0.00  0.00    -0.173 NA
ATOM      5  N   UNL     1       5.155  -7.623  -4.080  0.00  0.00    -0.272 N 
ATOM      6  H   UNL     1       5.720  -8.134  -4.680  0.00  0.00    +0.189 HD
ATOM      7  C   UNL     1       3.901  -7.170  -4.378  0.00  0.00    +0.126 A 
ATOM      8  C   UNL     1       2.850  -7.114  -5.401  0.00  0.00    +0.266 C 
ATOM      9  O   UNL     1       2.930  -7.612  -6.507  0.00  0.00    -0.268 OA
ATOM     10  N   UNL     1       1.784  -6.432  -4.941  0.00  0.00    -0.281 N 
ENDROOT
BRANCH   3  11
ATOM     11  C   UNL     1       4.500  -6.016  -0.953  0.00  0.00    +0.044 A 
ATOM     12  C   UNL     1       3.349  -5.424  -0.440  0.00  0.00    +0.017 A 
ATOM     13  C   UNL     1       3.357  -4.894   0.834  0.00  0.00    -0.049 A 
ATOM     14  C   UNL     1       4.505  -4.949   1.605  0.00  0.00    +0.010 A 
ATOM     15  C   UNL     1       5.652  -5.534   1.105  0.00  0.00    -0.008 A 
ATOM     16  C   UNL     1       5.657  -6.075  -0.171  0.00  0.00    +0.129 A 
ATOM     17  C   UNL     1       6.899  -5.590   1.951  0.00  0.00    +0.047 C 
ATOM     18  C   UNL     1       2.110  -4.253   1.388  0.00  0.00    +0.044 C 
BRANCH  16  19
ATOM     19  O   UNL     1       6.782  -6.657  -0.661  0.00  0.00    -0.506 OA
ATOM     20  H   UNL     1       7.369  -6.046  -1.128  0.00  0.00    +0.292 HD
ENDBRANCH  16  19
ENDBRANCH   3  11
BRANCH   1  25
ATOM     21  C   UNL     1       1.243  -2.483  -2.448  0.00  0.00    +0.121 A 
ATOM     22  C   UNL     1       1.984  -1.725  -3.344  0.00  0.00    +0.045 A 
ATOM     23  C   UNL     1       2.751  -2.352  -4.307  0.00  0.00    +0.004 A 
ATOM     24  C   UNL     1       2.780  -3.732  -4.379  0.00  0.00    +0.006 A 
ATOM     25  C   UNL     1       2.042  -4.489  -3.488  0.00  0.00    -0.019 A 
ATOM     26  C   UNL     1       1.278  -3.868  -2.519  0.00  0.00    +0.051 A 
BRANCH  21  27
ATOM     27  O   UNL     1       0.488  -1.869  -1.499  0.00  0.00    -0.492 OA
BRANCH  27  28
ATOM     28  C   UNL     1       0.499  -0.440  -1.486  0.00  0.00    +0.229 C 
BRANCH  28  30
ATOM     29  C   UNL     1      -0.389   1.596  -0.343  0.00  0.00    +0.007 C 
ATOM     30  C   UNL     1      -0.402   0.066  -0.357  0.00  0.00    +0.038 C 
ENDBRANCH  28  30
ENDBRANCH  27  28
ENDBRANCH  21  27
ENDBRANCH   1  25
BRANCH  10  31
ATOM     31  C   UNL     1       0.546  -6.172  -5.679  0.00  0.00    +0.145 C 
BRANCH  31  32
ATOM     32  C   UNL     1       0.675  -4.876  -6.437  0.00  0.00    -0.012 A 
ATOM     33  C   UNL     1       0.305  -3.677  -5.846  0.00  0.00    +0.008 A 
ATOM     34  C   UNL     1       0.442  -2.510  -6.581  0.00  0.00    +0.020 A 
ATOM     35  C   UNL     1       0.939  -2.579  -7.869  0.00  0.00    +0.111 A 
ATOM     36  N   UNL     1       1.282  -3.736  -8.398  0.00  0.00    -0.263 NA
ATOM     37  C   UNL     1       1.171  -4.866  -7.727  0.00  0.00    +0.115 A 
ENDBRANCH  31  32
ENDBRANCH  10  31
TORSDOF 8
