REMARK  Name = ZINC12660542
REMARK  11 active torsions:
REMARK  status: ('A' for Active; 'I' for Inactive)
REMARK    1  A    between atoms: C_1  and  C_2
REMARK    2  A    between atoms: C_8  and  N_16
REMARK    3  A    between atoms: C_9  and  C_12
REMARK    4  A    between atoms: C_12  and  O_14
REMARK    5  A    between atoms: O_14  and  C_15
REMARK    6  A    between atoms: C_17  and  C_19
REMARK    7  A    between atoms: C_19  and  N_59
REMARK    8  A    between atoms: C_24  and  O_33
REMARK    9  A    between atoms: C_25  and  O_31
REMARK   10  A    between atoms: C_28  and  C_30
REMARK   11  A    between atoms: O_31  and  C_32
REMARK                            x       y       z     vdW  Elec       q    Type
REMARK                         _______ _______ _______ _____ _____    ______ ____
ROOT
ATOM      1  N   UNL     1      -6.288  -0.006  -1.414  0.00  0.00    -0.285 N 
ATOM      2  C   UNL     1      -5.045   0.260  -0.966  0.00  0.00    +0.201 C 
ATOM      3  O   UNL     1      -4.101   0.201  -1.725  0.00  0.00    -0.278 OA
ATOM      4  H   UNL     1      -7.051   0.120  -0.830  0.00  0.00    +0.155 HD
ENDROOT
BRANCH   1  12
ATOM      5  C   UNL     1      -3.149   2.111  -5.623  0.00  0.00    +0.044 C 
ATOM      6  C   UNL     1      -4.248   1.107  -5.390  0.00  0.00    -0.050 A 
ATOM      7  C   UNL     1      -4.763   0.388  -6.461  0.00  0.00    +0.005 A 
ATOM      8  C   UNL     1      -5.768  -0.533  -6.271  0.00  0.00    +0.026 A 
ATOM      9  C   UNL     1      -6.276  -0.750  -4.991  0.00  0.00    +0.049 A 
ATOM     10  C   UNL     1      -5.751  -0.019  -3.910  0.00  0.00    +0.022 A 
ATOM     11  C   UNL     1      -4.731   0.912  -4.128  0.00  0.00    +0.015 A 
ATOM     12  C   UNL     1      -6.475  -0.460  -2.716  0.00  0.00    +0.073 A 
ATOM     13  C   UNL     1      -7.375  -1.419  -3.132  0.00  0.00    +0.147 A 
ATOM     14  N   UNL     1      -7.255  -1.585  -4.504  0.00  0.00    -0.348 N 
ATOM     15  H   UNL     1      -7.779  -2.200  -5.039  0.00  0.00    +0.166 HD
BRANCH  13  16
ATOM     16  C   UNL     1      -8.280  -2.120  -2.294  0.00  0.00    +0.357 C 
ATOM     17  O   UNL     1      -8.368  -1.829  -1.116  0.00  0.00    -0.243 OA
BRANCH  16  18
ATOM     18  O   UNL     1      -9.043  -3.110  -2.803  0.00  0.00    -0.463 OA
ATOM     19  C   UNL     1      -9.932  -3.773  -1.901  0.00  0.00    +0.280 C 
ENDBRANCH  16  18
ENDBRANCH  13  16
ENDBRANCH   1  12
BRANCH   2  20
ATOM     20  C   UNL     1      -4.828   0.631   0.478  0.00  0.00    +0.020 C 
BRANCH  20  31
ATOM     21  C   UNL     1      -2.568  -0.243   0.519  0.00  0.00    -0.073 C 
ATOM     22  C   UNL     1      -1.112   0.205   0.389  0.00  0.00    +0.017 C 
ATOM     23  C   UNL     1      -0.759   1.142   1.516  0.00  0.00    -0.044 A 
ATOM     24  C   UNL     1       0.581   1.376   1.784  0.00  0.00    +0.053 A 
ATOM     25  C   UNL     1       0.952   2.232   2.806  0.00  0.00    +0.159 A 
ATOM     26  C   UNL     1      -0.029   2.862   3.567  0.00  0.00    +0.161 A 
ATOM     27  C   UNL     1      -1.365   2.624   3.296  0.00  0.00    +0.051 A 
ATOM     28  C   UNL     1      -1.731   1.758   2.276  0.00  0.00    -0.054 A 
ATOM     29  C   UNL     1      -3.199   1.530   2.025  0.00  0.00    -0.040 C 
ATOM     30  C   UNL     1      -3.944   2.863   2.119  0.00  0.00    -0.008 C 
ATOM     31  N   UNL     1      -3.400   0.967   0.679  0.00  0.00    +0.390 N 
ATOM     32  H   UNL     1      -3.118   1.662  -0.021  0.00  0.00    -0.080 HD
BRANCH  26  33
ATOM     33  O   UNL     1       0.324   3.707   4.572  0.00  0.00    -0.491 OA
ATOM     34  C   UNL     1      -0.737   4.317   5.309  0.00  0.00    +0.277 C 
ENDBRANCH  26  33
BRANCH  25  35
ATOM     35  O   UNL     1       2.268   2.458   3.065  0.00  0.00    -0.503 OA
ATOM     36  H   UNL     1       2.653   1.845   3.707  0.00  0.00    +0.292 HD
ENDBRANCH  25  35
ENDBRANCH  20  31
ENDBRANCH   2  20
TORSDOF 7
