REMARK  Name = ZINC39454913
REMARK  8 active torsions:
REMARK  status: ('A' for Active; 'I' for Inactive)
REMARK    1  A    between atoms: C_1  and  C_2
REMARK    2  A    between atoms: C_2  and  C_3
REMARK    3  A    between atoms: C_2  and  C_4
REMARK    4  A    between atoms: C_6  and  C_10
REMARK    5  A    between atoms: C_10  and  N_11
REMARK    6  A    between atoms: C_24  and  C_26
REMARK    7  A    between atoms: C_31  and  O_32
REMARK    8  A    between atoms: O_32  and  C_33
REMARK                            x       y       z     vdW  Elec       q    Type
REMARK                         _______ _______ _______ _____ _____    ______ ____
ROOT
ATOM      1  N   UNL     1      -4.947  -3.224   0.351  0.00  0.00    -0.288 NA
ATOM      2  C   UNL     1      -5.985  -2.819  -0.600  0.00  0.00    +0.086 C 
ATOM      3  C   UNL     1      -7.370  -2.787   0.059  0.00  0.00    +0.029 C 
ATOM      4  C   UNL     1      -7.729  -4.215   0.481  0.00  0.00    +0.069 C 
ATOM      5  C   UNL     1      -8.881  -4.275   1.427  0.00  0.00    -0.013 A 
ATOM      6  C   UNL     1     -10.198  -3.896   1.318  0.00  0.00    +0.006 A 
ATOM      7  C   UNL     1     -11.016  -4.126   2.420  0.00  0.00    +0.000 A 
ATOM      8  C   UNL     1     -10.527  -4.709   3.572  0.00  0.00    +0.002 A 
ATOM      9  C   UNL     1      -9.201  -5.088   3.699  0.00  0.00    +0.028 A 
ATOM     10  C   UNL     1      -8.361  -4.855   2.602  0.00  0.00    +0.068 A 
ATOM     11  N   UNL     1      -7.027  -5.072   2.468  0.00  0.00    -0.254 NA
ATOM     12  C   UNL     1      -6.553  -4.710   1.320  0.00  0.00    +0.049 C 
ATOM     13  C   UNL     1      -5.132  -4.614   0.817  0.00  0.00    +0.136 C 
ENDROOT
BRANCH  13  14
ATOM     14  C   UNL     1      -4.167  -4.918   1.934  0.00  0.00    +0.017 A 
ATOM     15  C   UNL     1      -3.671  -3.893   2.717  0.00  0.00    +0.009 A 
ATOM     16  C   UNL     1      -2.785  -4.170   3.742  0.00  0.00    +0.001 A 
ATOM     17  C   UNL     1      -2.393  -5.474   3.986  0.00  0.00    +0.004 A 
ATOM     18  C   UNL     1      -2.886  -6.502   3.206  0.00  0.00    +0.046 A 
ATOM     19  C   UNL     1      -3.779  -6.227   2.180  0.00  0.00    +0.125 A 
BRANCH  19  20
ATOM     20  O   UNL     1      -4.269  -7.237   1.415  0.00  0.00    -0.495 OA
ATOM     21  C   UNL     1      -3.827  -8.560   1.726  0.00  0.00    +0.277 C 
ENDBRANCH  19  20
ENDBRANCH  13  14
BRANCH   1  22
ATOM     22  C   UNL     1      -3.607  -3.034  -0.220  0.00  0.00    +0.118 C 
BRANCH  22  25
ATOM     23  C   UNL     1      -1.412  -0.526   0.013  0.00  0.00    +0.064 C 
ATOM     24  C   UNL     1      -1.940  -1.303  -0.935  0.00  0.00    +0.028 C 
ATOM     25  C   UNL     1      -3.362  -1.543  -0.460  0.00  0.00    +0.167 C 
ATOM     26  N   UNL     1      -3.420  -0.792   0.805  0.00  0.00    -0.179 NA
ATOM     27  N   UNL     1      -2.315  -0.275   0.986  0.00  0.00    -0.158 NA
BRANCH  23  29
ATOM     28  C   UNL     1      -0.019   1.526   0.010  0.00  0.00    +0.014 C 
ATOM     29  C   UNL     1       0.002  -0.004   0.002  0.00  0.00    +0.033 C 
ATOM     30  C   UNL     1       0.742  -0.511   1.242  0.00  0.00    +0.014 C 
ENDBRANCH  23  29
ENDBRANCH  22  25
ENDBRANCH   1  22
TORSDOF 5
