REMARK  Name = ZINC59892417
REMARK  15 active torsions:
REMARK  status: ('A' for Active; 'I' for Inactive)
REMARK    1  A    between atoms: C_1  and  C_2
REMARK    2  A    between atoms: C_5  and  N_9
REMARK    3  A    between atoms: C_6  and  C_8
REMARK    4  A    between atoms: N_9  and  S_10
REMARK    5  A    between atoms: S_10  and  C_13
REMARK    6  A    between atoms: C_16  and  N_19
REMARK    7  A    between atoms: C_20  and  C_22
REMARK    8  A    between atoms: C_22  and  S_23
REMARK    9  A    between atoms: S_23  and  C_24
REMARK   10  A    between atoms: N_29  and  N_30
REMARK   11  A    between atoms: C_31  and  C_32
REMARK   12  A    between atoms: C_31  and  C_33
REMARK   13  A    between atoms: C_33  and  C_34
REMARK   14  A    between atoms: C_34  and  C_35
REMARK   15  A    between atoms: C_34  and  C_36
REMARK                            x       y       z     vdW  Elec       q    Type
REMARK                         _______ _______ _______ _____ _____    ______ ____
ROOT
ATOM      1  N   UNL     1       6.405  -3.283  -0.479  0.00  0.00    -0.285 N 
ATOM      2  C   UNL     1       7.271  -4.068   0.191  0.00  0.00    +0.227 C 
ATOM      3  O   UNL     1       6.879  -5.080   0.733  0.00  0.00    -0.275 OA
ATOM      4  H   UNL     1       6.705  -2.441  -0.855  0.00  0.00    +0.155 HD
ENDROOT
BRANCH   1   8
ATOM      5  C   UNL     1       2.438  -4.473  -0.936  0.00  0.00    +0.109 A 
ATOM      6  C   UNL     1       3.120  -4.775   0.229  0.00  0.00    +0.030 A 
ATOM      7  C   UNL     1       4.435  -4.382   0.383  0.00  0.00    +0.025 A 
ATOM      8  C   UNL     1       5.073  -3.683  -0.633  0.00  0.00    +0.034 A 
ATOM      9  C   UNL     1       4.386  -3.382  -1.802  0.00  0.00    +0.025 A 
ATOM     10  C   UNL     1       3.073  -3.783  -1.952  0.00  0.00    +0.030 A 
BRANCH   5  11
ATOM     11  S   UNL     1       0.761  -4.977  -1.129  0.00  0.00    +0.072 S 
ATOM     12  O   UNL     1       0.183  -4.103  -2.089  0.00  0.00    -0.150 OA
ATOM     13  O   UNL     1       0.230  -5.130   0.180  0.00  0.00    -0.150 OA
BRANCH  11  14
ATOM     14  N   UNL     1       0.778  -6.486  -1.812  0.00  0.00    -0.216 N 
ATOM     15  H   UNL     1       0.350  -6.635  -2.670  0.00  0.00    +0.174 HD
BRANCH  14  20
ATOM     16  C   UNL     1       3.337 -10.781   0.863  0.00  0.00    +0.044 C 
ATOM     17  C   UNL     1       2.657  -9.639   0.152  0.00  0.00    -0.050 A 
ATOM     18  C   UNL     1       1.991  -8.671   0.881  0.00  0.00    +0.005 A 
ATOM     19  C   UNL     1       1.367  -7.624   0.233  0.00  0.00    +0.025 A 
ATOM     20  C   UNL     1       1.409  -7.543  -1.153  0.00  0.00    +0.051 A 
ATOM     21  C   UNL     1       2.079  -8.517  -1.883  0.00  0.00    -0.028 A 
ATOM     22  C   UNL     1       2.706  -9.559  -1.228  0.00  0.00    +0.008 A 
ATOM     23  C   UNL     1       2.126  -8.434  -3.387  0.00  0.00    +0.046 C 
ENDBRANCH  14  20
ENDBRANCH  11  14
ENDBRANCH   5  11
ENDBRANCH   1   8
BRANCH   2  24
ATOM     24  C   UNL     1       8.728  -3.689   0.267  0.00  0.00    +0.173 C 
BRANCH  24  25
ATOM     25  S   UNL     1       9.627  -4.936   1.230  0.00  0.00    -0.075 S 
BRANCH  25  26
ATOM     26  C   UNL     1      11.292  -4.357   1.227  0.00  0.00    +0.211 A 
ATOM     27  N   UNL     1      12.327  -4.965   1.817  0.00  0.00    -0.186 NA
ATOM     28  C   UNL     1      13.423  -4.264   1.619  0.00  0.00    +0.232 A 
ATOM     29  N   UNL     1      13.098  -3.179   0.886  0.00  0.00    -0.245 N 
ATOM     30  N   UNL     1      11.717  -3.264   0.641  0.00  0.00    -0.144 NA
ATOM     31  N   UNL     1      14.687  -4.584   2.082  0.00  0.00    -0.205 N 
ATOM     32  H   UNL     1      15.438  -4.002   1.884  0.00  0.00    +0.177 HD
ATOM     33  H   UNL     1      13.699  -2.480   0.585  0.00  0.00    +0.192 HD
BRANCH  31  34
ATOM     34  N   UNL     1      14.884  -5.748   2.836  0.00  0.00    -0.189 NA
ATOM     35  C   UNL     1      16.053  -6.043   3.264  0.00  0.00    +0.034 C 
ATOM     36  C   UNL     1      17.219  -5.139   2.957  0.00  0.00    +0.062 C 
BRANCH  35  37
ATOM     37  C   UNL     1      16.265  -7.295   4.076  0.00  0.00    +0.055 C 
BRANCH  37  38
ATOM     38  C   UNL     1      17.162  -8.261   3.299  0.00  0.00    -0.012 C 
ATOM     39  C   UNL     1      17.478  -9.477   4.172  0.00  0.00    +0.007 C 
ATOM     40  C   UNL     1      16.440  -8.719   2.030  0.00  0.00    +0.007 C 
ENDBRANCH  37  38
ENDBRANCH  35  37
ENDBRANCH  31  34
ENDBRANCH  25  26
ENDBRANCH  24  25
ENDBRANCH   2  24
TORSDOF 10
