REMARK  Name = ZINC21229282
REMARK  11 active torsions:
REMARK  status: ('A' for Active; 'I' for Inactive)
REMARK    1  A    between atoms: C_1  and  C_2
REMARK    2  A    between atoms: C_2  and  C_3
REMARK    3  A    between atoms: C_3  and  C_4
REMARK    4  A    between atoms: C_4  and  C_5
REMARK    5  A    between atoms: C_5  and  N_6
REMARK    6  A    between atoms: C_15  and  S_16
REMARK    7  A    between atoms: S_16  and  C_17
REMARK    8  A    between atoms: C_17  and  C_19
REMARK    9  A    between atoms: C_17  and  C_20
REMARK   10  A    between atoms: N_22  and  C_23
REMARK   11  A    between atoms: C_26  and  C_29
REMARK                            x       y       z     vdW  Elec       q    Type
REMARK                         _______ _______ _______ _____ _____    ______ ____
ROOT
ATOM      1  N   UNL     1       4.654  -7.501   0.585  0.00  0.00    -0.287 N 
ATOM      2  C   UNL     1       4.451  -8.830   0.517  0.00  0.00    +0.263 A 
ATOM      3  O   UNL     1       5.331  -9.607   0.844  0.00  0.00    -0.267 OA
ATOM      4  C   UNL     1       3.188  -9.317   0.055  0.00  0.00    +0.076 A 
ATOM      5  C   UNL     1       2.752 -10.707  -0.098  0.00  0.00    -0.023 A 
ATOM      6  C   UNL     1       1.501 -10.910  -0.557  0.00  0.00    -0.004 A 
ATOM      7  S   UNL     1       0.835  -9.287  -0.809  0.00  0.00    -0.073 S 
ATOM      8  C   UNL     1       2.244  -8.337  -0.297  0.00  0.00    +0.117 A 
ATOM      9  N   UNL     1       2.506  -7.039  -0.202  0.00  0.00    -0.216 NA
ATOM     10  C   UNL     1       3.680  -6.616   0.222  0.00  0.00    +0.173 A 
ATOM     11  C   UNL     1       0.825 -12.225  -0.798  0.00  0.00    +0.043 C 
ATOM     12  C   UNL     1       1.894 -13.327  -0.799  0.00  0.00    +0.005 C 
ATOM     13  C   UNL     1       2.796 -13.136   0.423  0.00  0.00    +0.005 C 
ATOM     14  C   UNL     1       3.659 -11.887   0.242  0.00  0.00    +0.037 C 
ENDROOT
BRANCH   1  15
ATOM     15  C   UNL     1       5.945  -6.995   1.057  0.00  0.00    +0.127 C 
BRANCH  15  16
ATOM     16  C   UNL     1       5.896  -6.811   2.575  0.00  0.00    +0.022 C 
BRANCH  16  17
ATOM     17  C   UNL     1       7.245  -6.282   3.069  0.00  0.00    +0.001 C 
BRANCH  17  19
ATOM     18  C   UNL     1       8.544  -5.570   5.080  0.00  0.00    +0.004 C 
ATOM     19  C   UNL     1       7.196  -6.099   4.587  0.00  0.00    -0.003 C 
ENDBRANCH  17  19
ENDBRANCH  16  17
ENDBRANCH  15  16
ENDBRANCH   1  15
BRANCH  10  20
ATOM     20  S   UNL     1       3.994  -4.886   0.329  0.00  0.00    -0.075 S 
BRANCH  20  21
ATOM     21  C   UNL     1       2.408  -4.242  -0.258  0.00  0.00    +0.137 C 
ATOM     22  C   UNL     1       2.207  -4.636  -1.723  0.00  0.00    +0.029 C 
BRANCH  21  23
ATOM     23  C   UNL     1       2.400  -2.740  -0.137  0.00  0.00    +0.230 C 
ATOM     24  O   UNL     1       3.445  -2.125  -0.144  0.00  0.00    -0.274 OA
ATOM     25  N   UNL     1       1.231  -2.079  -0.020  0.00  0.00    -0.285 N 
ATOM     26  H   UNL     1       0.288  -2.640   0.062  0.00  0.00    +0.155 HD
BRANCH  25  27
ATOM     27  C   UNL     1       1.216  -0.685  -0.004  0.00  0.00    +0.033 A 
ATOM     28  C   UNL     1       2.255   0.013   0.603  0.00  0.00    +0.024 A 
ATOM     29  C   UNL     1       2.244   1.390   0.620  0.00  0.00    +0.015 A 
ATOM     30  C   UNL     1       1.188   2.086   0.026  0.00  0.00    +0.037 A 
ATOM     31  C   UNL     1       0.146   1.382  -0.583  0.00  0.00    +0.015 A 
ATOM     32  C   UNL     1       0.163   0.005  -0.596  0.00  0.00    +0.024 A 
BRANCH  30  33
ATOM     33  C   UNL     1       1.173   3.562   0.043  0.00  0.00    +0.242 C 
ATOM     34  O   UNL     1       2.080   4.173   0.574  0.00  0.00    -0.270 OA
ATOM     35  N   UNL     1       0.153   4.232  -0.530  0.00  0.00    -0.325 N 
ATOM     36  H   UNL     1       0.141   5.332  -0.517  0.00  0.00    +0.145 HD
ATOM     37  H   UNL     1      -0.668   3.679  -1.010  0.00  0.00    +0.145 HD
ENDBRANCH  30  33
ENDBRANCH  25  27
ENDBRANCH  21  23
ENDBRANCH  20  21
ENDBRANCH  10  20
TORSDOF 9
