REMARK  Name = ZINC04285889
REMARK  4 active torsions:
REMARK  status: ('A' for Active; 'I' for Inactive)
REMARK    1  A    between atoms: N_9  and  C_12
REMARK    2  A    between atoms: C_12  and  C_13
REMARK    3  A    between atoms: C_13  and  S_14
REMARK    4  A    between atoms: S_14  and  C_15
REMARK                            x       y       z     vdW  Elec       q    Type
REMARK                         _______ _______ _______ _____ _____    ______ ____
ROOT
ATOM      1  C   UNL     1      -1.763   5.808  -4.186  0.00  0.00    +0.170 A 
ATOM      2  N   UNL     1      -1.654   4.495  -4.528  0.00  0.00    -0.301 N 
ATOM      3  H   UNL     1      -1.779   4.239  -5.487  0.00  0.00    +0.171 HD
ATOM      4  C   UNL     1      -1.384   3.519  -3.630  0.00  0.00    +0.261 A 
ATOM      5  O   UNL     1      -1.290   2.348  -3.955  0.00  0.00    -0.267 OA
ATOM      6  C   UNL     1      -1.215   3.947  -2.272  0.00  0.00    +0.075 A 
ATOM      7  C   UNL     1      -0.921   3.104  -1.125  0.00  0.00    -0.023 A 
ATOM      8  C   UNL     1      -0.805   3.725   0.070  0.00  0.00    -0.004 A 
ATOM      9  S   UNL     1      -1.076   5.446  -0.270  0.00  0.00    -0.073 S 
ATOM     10  C   UNL     1      -1.346   5.330  -2.011  0.00  0.00    +0.117 A 
ATOM     11  N   UNL     1      -1.613   6.239  -2.940  0.00  0.00    -0.216 NA
ATOM     12  C   UNL     1      -0.510   3.093   1.396  0.00  0.00    +0.043 C 
ATOM     13  C   UNL     1      -0.726   1.578   1.270  0.00  0.00    +0.005 C 
ATOM     14  C   UNL     1      -0.013   1.086   0.008  0.00  0.00    +0.005 C 
ATOM     15  C   UNL     1      -0.749   1.591  -1.233  0.00  0.00    +0.037 C 
ENDROOT
BRANCH   1  16
ATOM     16  S   UNL     1      -2.119   6.984  -5.449  0.00  0.00    -0.086 S 
BRANCH  16  17
ATOM     17  C   UNL     1      -2.150   8.503  -4.465  0.00  0.00    +0.097 C 
BRANCH  17  18
ATOM     18  C   UNL     1      -2.450   9.695  -5.376  0.00  0.00    +0.128 C 
BRANCH  18  27
ATOM     19  C   UNL     1      -1.876  14.854  -2.203  0.00  0.00    +0.001 A 
ATOM     20  C   UNL     1      -3.229  14.683  -1.981  0.00  0.00    +0.001 A 
ATOM     21  C   UNL     1      -3.897  13.593  -2.517  0.00  0.00    +0.014 A 
ATOM     22  C   UNL     1      -3.202  12.669  -3.281  0.00  0.00    +0.049 A 
ATOM     23  C   UNL     1      -1.822  12.844  -3.507  0.00  0.00    +0.049 A 
ATOM     24  C   UNL     1      -1.167  13.938  -2.965  0.00  0.00    +0.014 A 
ATOM     25  C   UNL     1      -1.401  11.700  -4.344  0.00  0.00    +0.254 C 
ATOM     26  O   UNL     1      -0.276  11.496  -4.751  0.00  0.00    -0.270 OA
ATOM     27  N   UNL     1      -2.475  10.924  -4.580  0.00  0.00    -0.233 N 
ATOM     28  C   UNL     1      -3.575  11.429  -3.992  0.00  0.00    +0.254 C 
ATOM     29  O   UNL     1      -4.688  10.944  -4.037  0.00  0.00    -0.270 OA
ENDBRANCH  18  27
ENDBRANCH  17  18
ENDBRANCH  16  17
ENDBRANCH   1  16
TORSDOF 4
