REMARK  Name = ZINC22791542
REMARK  6 active torsions:
REMARK  status: ('A' for Active; 'I' for Inactive)
REMARK    1  A    between atoms: C_1  and  C_2
REMARK    2  A    between atoms: C_15  and  C_17
REMARK    3  A    between atoms: C_17  and  N_18
REMARK    4  A    between atoms: N_18  and  C_19
REMARK    5  A    between atoms: C_19  and  C_21
REMARK    6  A    between atoms: C_19  and  C_30
REMARK                            x       y       z     vdW  Elec       q    Type
REMARK                         _______ _______ _______ _____ _____    ______ ____
ROOT
ATOM      1  N   UNL     1      -1.136   6.251   3.348  0.00  0.00    +0.392 N 
ATOM      2  H   UNL     1      -0.263   6.894   3.533  0.00  0.00    -0.084 HD
ATOM      3  H   UNL     1      -1.979   6.867   3.002  0.00  0.00    -0.084 HD
ENDROOT
BRANCH   1   4
ATOM      4  C   UNL     1      -0.803   5.256   2.320  0.00  0.00    +0.017 C 
BRANCH   4  18
ATOM      5  C   UNL     1      -0.868   5.852  -2.272  0.00  0.00    +0.029 C 
ATOM      6  C   UNL     1       0.303   5.916  -1.289  0.00  0.00    +0.087 C 
ATOM      7  C   UNL     1       1.521   5.225  -1.904  0.00  0.00    +0.118 C 
ATOM      8  C   UNL     1       2.540   4.924  -0.837  0.00  0.00    +0.219 C 
ATOM      9  O   UNL     1       3.540   5.605  -0.750  0.00  0.00    -0.275 OA
ATOM     10  N   UNL     1       2.347   3.902   0.025  0.00  0.00    -0.284 N 
ATOM     11  C   UNL     1       1.157   3.166  -0.000  0.00  0.00    +0.055 A 
ATOM     12  C   UNL     1       1.177   1.781   0.000  0.00  0.00    +0.025 A 
ATOM     13  C   UNL     1      -0.013   1.076   0.008  0.00  0.00    +0.002 A 
ATOM     14  C   UNL     1      -1.221   1.748   0.017  0.00  0.00    +0.002 A 
ATOM     15  C   UNL     1      -1.249   3.131   0.020  0.00  0.00    +0.025 A 
ATOM     16  C   UNL     1      -0.062   3.845  -0.002  0.00  0.00    +0.058 A 
ATOM     17  N   UNL     1      -0.072   5.245  -0.043  0.00  0.00    -0.268 N 
ATOM     18  C   UNL     1      -0.419   5.961   1.044  0.00  0.00    +0.203 C 
ATOM     19  O   UNL     1      -0.424   7.173   0.996  0.00  0.00    -0.277 OA
ATOM     20  H   UNL     1       3.129   3.642   0.754  0.00  0.00    +0.155 HD
ENDBRANCH   4  18
ENDBRANCH   1   4
BRANCH   1  21
ATOM     21  C   UNL     1      -1.515   5.599   4.609  0.00  0.00    -0.003 C 
BRANCH  21  22
ATOM     22  C   UNL     1      -1.257   6.539   5.758  0.00  0.00    -0.056 A 
ATOM     23  C   UNL     1      -1.544   7.885   5.629  0.00  0.00    +0.002 A 
ATOM     24  C   UNL     1      -1.307   8.744   6.684  0.00  0.00    +0.004 A 
ATOM     25  C   UNL     1      -0.782   8.262   7.872  0.00  0.00    -0.044 A 
ATOM     26  C   UNL     1      -0.495   6.916   8.000  0.00  0.00    -0.044 A 
ATOM     27  C   UNL     1      -0.738   6.055   6.943  0.00  0.00    +0.006 A 
ATOM     28  C   UNL     1       0.065   6.642   9.380  0.00  0.00    +0.036 C 
ATOM     29  C   UNL     1      -0.319   7.875  10.224  0.00  0.00    +0.009 C 
ATOM     30  C   UNL     1      -0.436   8.984   9.156  0.00  0.00    +0.036 C 
ENDBRANCH  21  22
BRANCH  21  31
ATOM     31  C   UNL     1      -2.979   5.244   4.570  0.00  0.00    -0.020 A 
ATOM     32  C   UNL     1      -3.598   4.124   5.018  0.00  0.00    +0.010 A 
ATOM     33  C   UNL     1      -4.969   4.015   4.879  0.00  0.00    +0.008 A 
ATOM     34  C   UNL     1      -5.653   5.025   4.288  0.00  0.00    +0.045 A 
ATOM     35  S   UNL     1      -4.348   6.184   3.914  0.00  0.00    -0.103 S 
ENDBRANCH  21  31
ENDBRANCH   1  21
TORSDOF 5
