REMARK  Name = ZINC65696392
REMARK  11 active torsions:
REMARK  status: ('A' for Active; 'I' for Inactive)
REMARK    1  A    between atoms: C_1  and  C_2
REMARK    2  A    between atoms: C_3  and  C_27
REMARK    3  A    between atoms: C_9  and  C_12
REMARK    4  A    between atoms: C_12  and  N_13
REMARK    5  A    between atoms: N_16  and  C_17
REMARK    6  A    between atoms: C_17  and  C_18
REMARK    7  A    between atoms: C_18  and  C_19
REMARK    8  A    between atoms: C_19  and  N_20
REMARK    9  A    between atoms: N_20  and  C_21
REMARK   10  A    between atoms: N_20  and  C_22
REMARK   11  A    between atoms: C_22  and  C_23
REMARK                            x       y       z     vdW  Elec       q    Type
REMARK                         _______ _______ _______ _____ _____    ______ ____
ROOT
ATOM      1  N   UNL     1      -1.534  -2.649   5.484  0.00  0.00    -0.295 N 
ATOM      2  C   UNL     1      -1.717  -2.098   6.701  0.00  0.00    +0.300 C 
ATOM      3  O   UNL     1      -0.767  -1.657   7.318  0.00  0.00    -0.253 OA
ATOM      4  N   UNL     1      -2.954  -2.037   7.233  0.00  0.00    -0.299 N 
ATOM      5  H   UNL     1      -2.292  -3.001   4.992  0.00  0.00    +0.151 HD
ATOM      6  H   UNL     1      -3.712  -2.389   6.740  0.00  0.00    +0.150 HD
ENDROOT
BRANCH   1   7
ATOM      7  C   UNL     1      -0.189  -2.716   4.906  0.00  0.00    +0.141 C 
BRANCH   7  16
ATOM      8  C   UNL     1      -0.903  -1.275  -0.592  0.00  0.00    +0.046 C 
ATOM      9  C   UNL     1      -0.708  -2.712  -0.183  0.00  0.00    -0.022 A 
ATOM     10  C   UNL     1      -0.672  -3.777  -1.000  0.00  0.00    +0.017 A 
ATOM     11  N   UNL     1      -0.478  -4.918  -0.270  0.00  0.00    -0.358 N 
ATOM     12  H   UNL     1      -0.417  -5.812  -0.640  0.00  0.00    +0.166 HD
ATOM     13  C   UNL     1      -0.382  -4.608   1.068  0.00  0.00    +0.047 A 
ATOM     14  C   UNL     1      -0.516  -3.212   1.181  0.00  0.00    +0.003 A 
ATOM     15  C   UNL     1      -0.453  -2.605   2.436  0.00  0.00    +0.015 A 
ATOM     16  C   UNL     1      -0.257  -3.371   3.551  0.00  0.00    -0.030 A 
ATOM     17  C   UNL     1      -0.121  -4.748   3.445  0.00  0.00    +0.007 A 
ATOM     18  C   UNL     1      -0.190  -5.369   2.216  0.00  0.00    +0.026 A 
ATOM     19  C   UNL     1      -0.824  -3.723  -2.498  0.00  0.00    +0.063 C 
ENDBRANCH   7  16
ENDBRANCH   1   7
BRANCH   4  20
ATOM     20  C   UNL     1      -3.154  -1.438   8.555  0.00  0.00    +0.104 C 
BRANCH  20  21
ATOM     21  C   UNL     1      -4.638  -1.494   8.921  0.00  0.00    +0.000 C 
BRANCH  21  22
ATOM     22  C   UNL     1      -4.847  -0.869  10.302  0.00  0.00    -0.077 C 
BRANCH  22  23
ATOM     23  N   UNL     1      -6.272  -0.923  10.653  0.00  0.00    +0.384 N 
ATOM     24  C   UNL     1      -7.037  -0.079   9.726  0.00  0.00    -0.096 C 
ATOM     25  H   UNL     1      -6.599  -1.875  10.589  0.00  0.00    -0.082 HD
BRANCH  23  26
ATOM     26  C   UNL     1      -6.457  -0.433  12.026  0.00  0.00    +0.036 C 
BRANCH  26  27
ATOM     27  C   UNL     1      -7.925  -0.583  12.428  0.00  0.00    +0.376 C 
ATOM     28  F   UNL     1      -8.334  -1.904  12.216  0.00  0.00    -0.173 F 
ATOM     29  F   UNL     1      -8.074  -0.261  13.781  0.00  0.00    -0.173 F 
ATOM     30  F   UNL     1      -8.711   0.278  11.655  0.00  0.00    -0.173 F 
ENDBRANCH  26  27
ENDBRANCH  23  26
ENDBRANCH  22  23
ENDBRANCH  21  22
ENDBRANCH  20  21
ENDBRANCH   4  20
TORSDOF 8
