REMARK  Name = ZINC39665377
REMARK  10 active torsions:
REMARK  status: ('A' for Active; 'I' for Inactive)
REMARK    1  A    between atoms: C_1  and  C_2
REMARK    2  A    between atoms: C_12  and  O_13
REMARK    3  A    between atoms: O_13  and  C_14
REMARK    4  A    between atoms: C_14  and  C_15
REMARK    5  A    between atoms: C_19  and  C_28
REMARK    6  A    between atoms: N_30  and  C_31
REMARK    7  A    between atoms: C_31  and  C_32
REMARK    8  A    between atoms: C_32  and  C_34
REMARK    9  A    between atoms: C_32  and  O_35
REMARK   10  A    between atoms: O_35  and  C_36
REMARK                            x       y       z     vdW  Elec       q    Type
REMARK                         _______ _______ _______ _____ _____    ______ ____
ROOT
ATOM      1  C   UNL     1       0.062  -4.478   4.102  0.00  0.00    +0.253 C 
ATOM      2  O   UNL     1       0.278  -4.714   2.932  0.00  0.00    -0.272 OA
ATOM      3  N   UNL     1       0.225  -5.446   5.026  0.00  0.00    -0.297 N 
ATOM      4  C   UNL     1       0.007  -5.351   6.488  0.00  0.00    +0.121 C 
ATOM      5  C   UNL     1      -0.643  -6.699   6.874  0.00  0.00    +0.100 C 
ATOM      6  C   UNL     1      -0.207  -7.676   5.768  0.00  0.00    -0.004 C 
ATOM      7  C   UNL     1       0.657  -6.847   4.807  0.00  0.00    +0.115 C 
ATOM      8  C   UNL     1      -1.428  -8.221   5.033  0.00  0.00    -0.010 C 
ATOM      9  C   UNL     1      -0.972  -9.232   3.978  0.00  0.00    -0.082 C 
ATOM     10  N   UNL     1      -0.239 -10.325   4.628  0.00  0.00    +0.379 N 
ATOM     11  C   UNL     1       0.983  -9.805   5.255  0.00  0.00    -0.082 C 
ATOM     12  C   UNL     1       0.610  -8.818   6.364  0.00  0.00    -0.010 C 
ATOM     13  H   UNL     1      -0.823 -10.747   5.334  0.00  0.00    -0.086 HD
ATOM     14  H   UNL     1       0.007 -11.020   3.940  0.00  0.00    -0.086 HD
ENDROOT
BRANCH   5  15
ATOM     15  C   UNL     1      -2.144  -6.569   6.900  0.00  0.00    +0.218 C 
ATOM     16  O   UNL     1      -2.696  -5.767   6.177  0.00  0.00    -0.275 OA
ATOM     17  N   UNL     1      -2.874  -7.345   7.727  0.00  0.00    -0.312 N 
ATOM     18  H   UNL     1      -2.432  -7.986   8.305  0.00  0.00    +0.149 HD
BRANCH  17  19
ATOM     19  C   UNL     1      -4.333  -7.218   7.752  0.00  0.00    +0.148 C 
BRANCH  19  20
ATOM     20  C   UNL     1      -4.913  -8.204   8.768  0.00  0.00    +0.187 C 
ATOM     21  C   UNL     1      -6.441  -8.162   8.706  0.00  0.00    +0.053 C 
BRANCH  20  22
ATOM     22  O   UNL     1      -4.479  -7.845  10.082  0.00  0.00    -0.488 OA
BRANCH  22  23
ATOM     23  C   UNL     1      -4.438  -8.835  11.011  0.00  0.00    +0.121 A 
ATOM     24  C   UNL     1      -4.904 -10.103  10.696  0.00  0.00    +0.045 A 
ATOM     25  C   UNL     1      -4.862 -11.109  11.642  0.00  0.00    +0.004 A 
ATOM     26  C   UNL     1      -4.355 -10.852  12.902  0.00  0.00    +0.000 A 
ATOM     27  C   UNL     1      -3.890  -9.589  13.220  0.00  0.00    +0.004 A 
ATOM     28  C   UNL     1      -3.925  -8.582  12.275  0.00  0.00    +0.045 A 
ENDBRANCH  22  23
ENDBRANCH  20  22
ENDBRANCH  19  20
ENDBRANCH  17  19
ENDBRANCH   5  15
BRANCH   1  29
ATOM     29  C   UNL     1      -0.388  -3.103   4.523  0.00  0.00    +0.324 C 
BRANCH  29  30
ATOM     30  O   UNL     1      -0.486  -2.261   3.373  0.00  0.00    -0.479 OA
BRANCH  30  42
ATOM     31  C   UNL     1      -1.970   3.566   1.789  0.00  0.00    +0.045 C 
ATOM     32  C   UNL     1      -1.533   2.138   1.592  0.00  0.00    -0.033 A 
ATOM     33  C   UNL     1      -1.239   1.663   0.355  0.00  0.00    +0.096 A 
ATOM     34  C   UNL     1      -0.831   0.321   0.198  0.00  0.00    +0.338 A 
ATOM     35  O   UNL     1      -0.570  -0.093  -0.917  0.00  0.00    -0.245 OA
ATOM     36  O   UNL     1      -0.723  -0.510   1.246  0.00  0.00    -0.418 OA
ATOM     37  C   UNL     1      -1.000  -0.100   2.502  0.00  0.00    +0.181 A 
ATOM     38  C   UNL     1      -1.407   1.225   2.732  0.00  0.00    +0.024 A 
ATOM     39  C   UNL     1      -1.689   1.653   4.034  0.00  0.00    +0.012 A 
ATOM     40  C   UNL     1      -1.562   0.774   5.085  0.00  0.00    +0.004 A 
ATOM     41  C   UNL     1      -1.156  -0.534   4.861  0.00  0.00    +0.049 A 
ATOM     42  C   UNL     1      -0.883  -0.977   3.579  0.00  0.00    +0.164 A 
ENDBRANCH  30  42
ENDBRANCH  29  30
ENDBRANCH   1  29
TORSDOF 8
