REMARK  Name = ZINC65259974
REMARK  2 active torsions:
REMARK  status: ('A' for Active; 'I' for Inactive)
REMARK    1  A    between atoms: C_14  and  C_16
REMARK    2  A    between atoms: N_27  and  C_28
REMARK                            x       y       z     vdW  Elec       q    Type
REMARK                         _______ _______ _______ _____ _____    ______ ____
ROOT
ATOM      1  C   UNL     1      -0.738   1.139   1.656  0.00  0.00    +0.002 A 
ATOM      2  C   UNL     1       0.356   1.985   1.662  0.00  0.00    +0.002 A 
ATOM      3  C   UNL     1       1.611   1.501   1.345  0.00  0.00    +0.025 A 
ATOM      4  C   UNL     1       1.776   0.163   1.021  0.00  0.00    +0.053 A 
ATOM      5  C   UNL     1       0.674  -0.692   1.019  0.00  0.00    +0.049 A 
ATOM      6  C   UNL     1      -0.583  -0.197   1.335  0.00  0.00    +0.025 A 
ATOM      7  N   UNL     1       0.831  -2.050   0.707  0.00  0.00    -0.329 N 
ATOM      8  C   UNL     1       2.057  -2.478   0.020  0.00  0.00    +0.102 C 
ATOM      9  C   UNL     1       1.946  -2.180  -1.473  0.00  0.00    +0.036 C 
ATOM     10  C   UNL     1       0.759  -2.945  -2.064  0.00  0.00    +0.021 C 
ATOM     11  C   UNL     1       0.984  -4.449  -1.877  0.00  0.00    +0.108 C 
ATOM     12  N   UNL     1       1.221  -4.720  -0.453  0.00  0.00    -0.295 N 
ATOM     13  C   UNL     1       2.281  -3.974   0.240  0.00  0.00    +0.141 C 
ATOM     14  C   UNL     1       0.481  -5.634   0.205  0.00  0.00    +0.247 C 
ATOM     15  O   UNL     1       0.732  -5.898   1.365  0.00  0.00    -0.270 OA
ATOM     16  C   UNL     1       3.212  -1.698   0.611  0.00  0.00    +0.098 C 
ATOM     17  N   UNL     1       3.051  -0.326   0.690  0.00  0.00    -0.301 N 
ATOM     18  N   UNL     1       4.291  -2.282   1.020  0.00  0.00    -0.372 N 
ATOM     19  H   UNL     1       0.144  -2.694   0.940  0.00  0.00    +0.147 HD
ATOM     20  H   UNL     1       4.377  -3.246   0.952  0.00  0.00    +0.161 HD
ATOM     21  H   UNL     1       3.792   0.277   0.522  0.00  0.00    +0.153 HD
ENDROOT
BRANCH  14  22
ATOM     22  C   UNL     1      -0.635  -6.314  -0.481  0.00  0.00    +0.041 A 
ATOM     23  C   UNL     1      -0.427  -6.920  -1.723  0.00  0.00    +0.017 A 
ATOM     24  C   UNL     1      -1.469  -7.556  -2.362  0.00  0.00    +0.050 A 
ATOM     25  C   UNL     1      -2.728  -7.596  -1.777  0.00  0.00    +0.166 A 
ATOM     26  C   UNL     1      -2.942  -6.991  -0.537  0.00  0.00    +0.167 A 
ATOM     27  C   UNL     1      -1.899  -6.358   0.111  0.00  0.00    +0.062 A 
ATOM     28  O   UNL     1      -4.249  -7.170  -0.186  0.00  0.00    -0.453 OA
ATOM     29  C   UNL     1      -4.928  -7.531  -1.403  0.00  0.00    +0.466 C 
ATOM     30  O   UNL     1      -3.900  -8.151  -2.198  0.00  0.00    -0.453 OA
ENDBRANCH  14  22
BRANCH  18  31
ATOM     31  C   UNL     1       5.385  -1.488   1.585  0.00  0.00    +0.080 C 
ATOM     32  C   UNL     1       6.328  -1.012   0.461  0.00  0.00    +0.024 C 
ATOM     33  C   UNL     1       7.741  -1.090   1.092  0.00  0.00    +0.002 C 
ATOM     34  C   UNL     1       7.661  -2.377   1.950  0.00  0.00    +0.002 C 
ATOM     35  C   UNL     1       6.232  -2.356   2.532  0.00  0.00    +0.024 C 
ENDBRANCH  18  31
TORSDOF 2
