REMARK  Name = ZINC58847245
REMARK  6 active torsions:
REMARK  status: ('A' for Active; 'I' for Inactive)
REMARK    1  A    between atoms: C_1  and  O_2
REMARK    2  A    between atoms: O_2  and  C_3
REMARK    3  A    between atoms: C_7  and  C_9
REMARK    4  A    between atoms: C_20  and  S_25
REMARK    5  A    between atoms: S_25  and  N_28
REMARK    6  A    between atoms: N_28  and  C_29
REMARK                            x       y       z     vdW  Elec       q    Type
REMARK                         _______ _______ _______ _____ _____    ______ ____
ROOT
ATOM      1  C   UNL     1      -3.008  -3.900   0.100  0.00  0.00    +0.105 C 
ATOM      2  C   UNL     1      -3.197  -4.358  -1.315  0.00  0.00    +0.029 C 
ATOM      3  C   UNL     1      -4.285  -3.551  -2.052  0.00  0.00    +0.033 C 
ATOM      4  C   UNL     1      -4.813  -4.520  -3.090  0.00  0.00    -0.030 C 
ATOM      5  C   UNL     1      -4.482  -5.749  -2.792  0.00  0.00    -0.023 C 
ATOM      6  C   UNL     1      -3.712  -5.784  -1.495  0.00  0.00    +0.049 C 
ATOM      7  C   UNL     1      -4.654  -6.214  -0.407  0.00  0.00    -0.018 A 
ATOM      8  C   UNL     1      -5.420  -7.353  -0.611  0.00  0.00    +0.034 A 
ATOM      9  C   UNL     1      -6.308  -7.781   0.355  0.00  0.00    +0.109 A 
ATOM     10  C   UNL     1      -6.443  -7.075   1.537  0.00  0.00    +0.030 A 
ATOM     11  C   UNL     1      -5.683  -5.944   1.750  0.00  0.00    +0.025 A 
ATOM     12  C   UNL     1      -4.782  -5.513   0.779  0.00  0.00    +0.031 A 
ATOM     13  N   UNL     1      -3.996  -4.405   1.031  0.00  0.00    -0.336 N 
ATOM     14  H   UNL     1      -4.135  -3.929   1.865  0.00  0.00    +0.147 HD
ENDROOT
BRANCH   1  19
ATOM     15  C   UNL     1      -1.926  -0.280   0.145  0.00  0.00    +0.120 A 
ATOM     16  C   UNL     1      -3.151   0.372   0.170  0.00  0.00    +0.045 A 
ATOM     17  C   UNL     1      -4.322  -0.360   0.172  0.00  0.00    +0.004 A 
ATOM     18  C   UNL     1      -4.275  -1.742   0.149  0.00  0.00    +0.006 A 
ATOM     19  C   UNL     1      -3.056  -2.394   0.125  0.00  0.00    -0.024 A 
ATOM     20  C   UNL     1      -1.882  -1.666   0.117  0.00  0.00    +0.051 A 
BRANCH  15  22
ATOM     21  C   UNL     1      -0.895   1.861   0.173  0.00  0.00    +0.277 C 
ATOM     22  O   UNL     1      -0.773   0.438   0.142  0.00  0.00    -0.495 OA
ENDBRANCH  15  22
ENDBRANCH   1  19
BRANCH   9  23
ATOM     23  S   UNL     1      -7.272  -9.230   0.082  0.00  0.00    +0.072 S 
ATOM     24  O   UNL     1      -8.423  -9.114   0.907  0.00  0.00    -0.150 OA
ATOM     25  O   UNL     1      -7.359  -9.401  -1.326  0.00  0.00    -0.150 OA
BRANCH  23  26
ATOM     26  N   UNL     1      -6.402 -10.514   0.662  0.00  0.00    -0.215 N 
ATOM     27  H   UNL     1      -6.139 -11.232   0.064  0.00  0.00    +0.174 HD
BRANCH  26  28
ATOM     28  C   UNL     1      -6.047 -10.565   2.013  0.00  0.00    +0.066 A 
ATOM     29  C   UNL     1      -6.914 -10.072   2.979  0.00  0.00    +0.026 A 
ATOM     30  C   UNL     1      -6.560 -10.124   4.313  0.00  0.00    +0.002 A 
ATOM     31  C   UNL     1      -5.344 -10.664   4.688  0.00  0.00    +0.002 A 
ATOM     32  C   UNL     1      -4.477 -11.155   3.728  0.00  0.00    +0.022 A 
ATOM     33  C   UNL     1      -4.827 -11.112   2.392  0.00  0.00    +0.063 A 
ATOM     34 CL   UNL     1      -3.742 -11.735   1.189  0.00  0.00    -0.082 Cl
ENDBRANCH  26  28
ENDBRANCH  23  26
ENDBRANCH   9  23
TORSDOF 5
