REMARK  Name = ZINC32901564
REMARK  5 active torsions:
REMARK  status: ('A' for Active; 'I' for Inactive)
REMARK    1  A    between atoms: C_1  and  C_2
REMARK    2  A    between atoms: C_2  and  C_4
REMARK    3  A    between atoms: C_2  and  N_16
REMARK    4  A    between atoms: N_6  and  N_7
REMARK    5  A    between atoms: N_7  and  C_8
REMARK                            x       y       z     vdW  Elec       q    Type
REMARK                         _______ _______ _______ _____ _____    ______ ____
ROOT
ATOM      1  C   UNL     1       2.745   0.724   1.211  0.00  0.00    +0.252 C 
ATOM      2  O   UNL     1       1.861   0.520   2.017  0.00  0.00    -0.272 OA
ATOM      3  N   UNL     1       3.971   0.203   1.411  0.00  0.00    -0.235 N 
ATOM      4  H   UNL     1       4.773   0.388   0.680  0.00  0.00    +0.173 HD
ENDROOT
BRANCH   1   6
ATOM      5  C   UNL     1       2.726   0.724  -1.268  0.00  0.00    +0.041 C 
ATOM      6  C   UNL     1       2.471   1.560  -0.012  0.00  0.00    +0.178 C 
BRANCH   6   7
ATOM      7  N   UNL     1       1.075   2.005   0.003  0.00  0.00    -0.262 N 
ATOM      8  C   UNL     1       0.631   3.327   0.013  0.00  0.00    +0.091 A 
ATOM      9  C   UNL     1       1.284   4.550   0.012  0.00  0.00    +0.030 A 
ATOM     10  C   UNL     1       0.550   5.720   0.024  0.00  0.00    +0.002 A 
ATOM     11  C   UNL     1      -0.834   5.674   0.036  0.00  0.00    +0.004 A 
ATOM     12  C   UNL     1      -1.490   4.459   0.037  0.00  0.00    +0.048 A 
ATOM     13  C   UNL     1      -0.762   3.279   0.026  0.00  0.00    +0.157 A 
ATOM     14  O   UNL     1      -1.121   1.972   0.018  0.00  0.00    -0.407 OA
ATOM     15  C   UNL     1      -0.014   1.212   0.009  0.00  0.00    +0.422 A 
ATOM     16  O   UNL     1       0.002  -0.004   0.002  0.00  0.00    -0.223 OA
ENDBRANCH   6   7
ENDBRANCH   1   6
BRANCH   3  17
ATOM     17  N   UNL     1       4.226  -0.574   2.548  0.00  0.00    -0.264 N 
ATOM     18  H   UNL     1       3.425  -0.759   3.279  0.00  0.00    +0.170 HD
BRANCH  17  19
ATOM     19  C   UNL     1       5.498  -1.115   2.755  0.00  0.00    +0.046 A 
ATOM     20  C   UNL     1       6.510  -0.887   1.831  0.00  0.00    +0.026 A 
ATOM     21  C   UNL     1       7.768  -1.416   2.040  0.00  0.00    +0.023 A 
ATOM     22  C   UNL     1       8.019  -2.184   3.164  0.00  0.00    +0.059 A 
ATOM     23  C   UNL     1       7.011  -2.418   4.084  0.00  0.00    +0.061 A 
ATOM     24  C   UNL     1       5.752  -1.885   3.882  0.00  0.00    +0.046 A 
ATOM     25 CL   UNL     1       7.329  -3.381   5.493  0.00  0.00    -0.082 Cl
ATOM     26 CL   UNL     1       9.599  -2.854   3.420  0.00  0.00    -0.082 Cl
ENDBRANCH  17  19
ENDBRANCH   3  17
TORSDOF 4
