REMARK  Name = ZINC28294457
REMARK  6 active torsions:
REMARK  status: ('A' for Active; 'I' for Inactive)
REMARK    1  A    between atoms: C_4  and  C_7
REMARK    2  A    between atoms: C_7  and  C_9
REMARK    3  A    between atoms: C_10  and  N_30
REMARK    4  A    between atoms: C_11  and  S_21
REMARK    5  A    between atoms: N_13  and  C_14
REMARK    6  A    between atoms: S_21  and  C_24
REMARK                            x       y       z     vdW  Elec       q    Type
REMARK                         _______ _______ _______ _____ _____    ______ ____
ROOT
ATOM      1  C   UNL     1      -4.229   0.740   3.668  0.00  0.00    +0.137 A 
ATOM      2  C   UNL     1      -4.037   1.340   2.427  0.00  0.00    +0.100 A 
ATOM      3  C   UNL     1      -3.026   0.629   1.770  0.00  0.00    +0.225 A 
ATOM      4  N   UNL     1      -2.621  -0.346   2.543  0.00  0.00    -0.145 NA
ATOM      5  N   UNL     1      -3.342  -0.311   3.743  0.00  0.00    -0.225 N 
ENDROOT
BRANCH   5   6
ATOM      6  C   UNL     1      -3.193  -1.191   4.822  0.00  0.00    +0.066 A 
ATOM      7  C   UNL     1      -3.203  -0.704   6.123  0.00  0.00    +0.029 A 
ATOM      8  C   UNL     1      -3.062  -1.575   7.185  0.00  0.00    +0.022 A 
ATOM      9  C   UNL     1      -2.899  -2.929   6.955  0.00  0.00    +0.041 A 
ATOM     10  C   UNL     1      -2.883  -3.416   5.659  0.00  0.00    +0.022 A 
ATOM     11  C   UNL     1      -3.030  -2.551   4.593  0.00  0.00    +0.029 A 
ATOM     12 CL   UNL     1      -2.714  -4.020   8.293  0.00  0.00    -0.084 Cl
ENDBRANCH   5   6
BRANCH   3  13
ATOM     13  S   UNL     1      -2.403   0.985   0.161  0.00  0.00    +0.046 S 
ATOM     14  O   UNL     1      -3.430   1.689  -0.525  0.00  0.00    -0.163 OA
ATOM     15  O   UNL     1      -1.847  -0.224  -0.336  0.00  0.00    -0.163 OA
BRANCH  13  16
ATOM     16  C   UNL     1      -1.064   2.112   0.358  0.00  0.00    +0.095 A 
ATOM     17  C   UNL     1       0.223   1.635   0.525  0.00  0.00    +0.027 A 
ATOM     18  C   UNL     1       1.274   2.520   0.674  0.00  0.00    +0.002 A 
ATOM     19  C   UNL     1       1.039   3.882   0.660  0.00  0.00    +0.000 A 
ATOM     20  C   UNL     1      -0.248   4.359   0.498  0.00  0.00    +0.002 A 
ATOM     21  C   UNL     1      -1.300   3.474   0.349  0.00  0.00    +0.027 A 
ENDBRANCH  13  16
ENDBRANCH   3  13
BRANCH   2  22
ATOM     22  N   UNL     1      -4.724   2.444   1.931  0.00  0.00    -0.353 N 
ATOM     23  H   UNL     1      -4.487   2.834   0.930  0.00  0.00    +0.142 HD
ATOM     24  H   UNL     1      -5.503   2.926   2.539  0.00  0.00    +0.142 HD
ENDBRANCH   2  22
BRANCH   1  25
ATOM     25  C   UNL     1      -5.186   1.147   4.695  0.00  0.00    +0.213 C 
ATOM     26  O   UNL     1      -4.898   2.033   5.479  0.00  0.00    -0.285 OA
BRANCH  25  30
ATOM     27  C   UNL     1      -8.976  -0.758   4.941  0.00  0.00    +0.000 A 
ATOM     28  C   UNL     1      -8.607   0.168   5.901  0.00  0.00    +0.001 A 
ATOM     29  C   UNL     1      -7.378   0.790   5.827  0.00  0.00    +0.012 A 
ATOM     30  C   UNL     1      -6.506   0.484   4.781  0.00  0.00    +0.024 A 
ATOM     31  C   UNL     1      -6.887  -0.447   3.813  0.00  0.00    +0.012 A 
ATOM     32  C   UNL     1      -8.117  -1.065   3.901  0.00  0.00    +0.001 A 
ENDBRANCH  25  30
ENDBRANCH   1  25
TORSDOF 6
