REMARK  Name = ZINC53491164
REMARK  7 active torsions:
REMARK  status: ('A' for Active; 'I' for Inactive)
REMARK    1  A    between atoms: C_1  and  C_2
REMARK    2  A    between atoms: C_2  and  C_3
REMARK    3  A    between atoms: C_3  and  C_4
REMARK    4  A    between atoms: C_7  and  C_10
REMARK    5  A    between atoms: C_10  and  C_12
REMARK    6  A    between atoms: C_10  and  N_17
REMARK    7  A    between atoms: C_23  and  C_26
REMARK                            x       y       z     vdW  Elec       q    Type
REMARK                         _______ _______ _______ _____ _____    ______ ____
ROOT
ATOM      1  C   UNL     1      -1.353  -6.313  -0.018  0.00  0.00    +0.142 C 
ENDROOT
BRANCH   1   2
ATOM      2  N   UNL     1      -2.230  -6.818   1.042  0.00  0.00    -0.288 N 
ATOM      3  C   UNL     1      -2.775  -8.046   0.937  0.00  0.00    +0.303 C 
ATOM      4  O   UNL     1      -2.615  -8.698  -0.076  0.00  0.00    -0.253 OA
ATOM      5  N   UNL     1      -3.498  -8.551   1.956  0.00  0.00    -0.286 N 
ATOM      6  C   UNL     1      -3.799  -7.733   3.139  0.00  0.00    +0.110 C 
ATOM      7  C   UNL     1      -3.352  -8.493   4.391  0.00  0.00    +0.032 C 
ATOM      8  C   UNL     1      -4.003  -9.878   4.403  0.00  0.00    +0.078 C 
ATOM      9  C   UNL     1      -3.551 -10.666   3.172  0.00  0.00    +0.032 C 
ATOM     10  C   UNL     1      -4.006  -9.929   1.903  0.00  0.00    +0.110 C 
ATOM     11  H   UNL     1      -2.418  -6.268   1.818  0.00  0.00    +0.151 HD
BRANCH   8  12
ATOM     12  C   UNL     1      -3.592 -10.616   5.651  0.00  0.00    +0.214 C 
ATOM     13  O   UNL     1      -2.851 -10.086   6.452  0.00  0.00    -0.276 OA
ATOM     14  N   UNL     1      -4.048 -11.864   5.877  0.00  0.00    -0.329 N 
ATOM     15  H   UNL     1      -4.641 -12.287   5.236  0.00  0.00    +0.145 HD
ATOM     16  H   UNL     1      -3.784 -12.339   6.680  0.00  0.00    +0.145 HD
ENDBRANCH   8  12
ENDBRANCH   1   2
BRANCH   1  20
ATOM     17  C   UNL     1      -1.408  -2.042   0.005  0.00  0.00    -0.047 A 
ATOM     18  C   UNL     1      -1.404  -2.726  -1.196  0.00  0.00    +0.004 A 
ATOM     19  C   UNL     1      -1.386  -4.108  -1.203  0.00  0.00    +0.006 A 
ATOM     20  C   UNL     1      -1.372  -4.806  -0.010  0.00  0.00    -0.022 A 
ATOM     21  C   UNL     1      -1.375  -4.121   1.191  0.00  0.00    +0.006 A 
ATOM     22  C   UNL     1      -1.389  -2.739   1.199  0.00  0.00    +0.004 A 
BRANCH  17  23
ATOM     23  C   UNL     1      -1.427  -0.535   0.013  0.00  0.00    +0.035 C 
BRANCH  23  25
ATOM     24  C   UNL     1      -0.011   1.524   0.012  0.00  0.00    +0.004 C 
ATOM     25  C   UNL     1       0.009  -0.006   0.004  0.00  0.00    +0.001 C 
ENDBRANCH  23  25
ENDBRANCH  17  23
ENDBRANCH   1  20
BRANCH   1  26
ATOM     26  C   UNL     1       0.053  -6.799   0.220  0.00  0.00    +0.014 A 
ATOM     27  C   UNL     1       0.969  -7.235  -0.680  0.00  0.00    +0.013 A 
ATOM     28  C   UNL     1       2.212  -7.637  -0.229  0.00  0.00    +0.008 A 
ATOM     29  C   UNL     1       2.479  -7.584   1.099  0.00  0.00    +0.045 A 
ATOM     30  S   UNL     1       0.948  -6.944   1.758  0.00  0.00    -0.099 S 
ENDBRANCH   1  26
TORSDOF 6
