REMARK  Name = ZINC58961945
REMARK  10 active torsions:
REMARK  status: ('A' for Active; 'I' for Inactive)
REMARK    1  A    between atoms: C_1  and  C_2
REMARK    2  A    between atoms: C_3  and  C_14
REMARK    3  A    between atoms: N_6  and  C_7
REMARK    4  A    between atoms: N_15  and  N_16
REMARK    5  A    between atoms: C_17  and  C_19
REMARK    6  A    between atoms: C_22  and  N_25
REMARK    7  A    between atoms: N_25  and  C_26
REMARK    8  A    between atoms: N_25  and  S_33
REMARK    9  A    between atoms: C_26  and  C_27
REMARK   10  A    between atoms: S_33  and  C_36
REMARK                            x       y       z     vdW  Elec       q    Type
REMARK                         _______ _______ _______ _____ _____    ______ ____
ROOT
ATOM      1  N   UNL     1       1.368   0.248  -4.952  0.00  0.00    -0.203 N 
ATOM      2  C   UNL     1       1.049  -0.800  -5.737  0.00  0.00    +0.263 C 
ATOM      3  O   UNL     1       0.998  -1.920  -5.266  0.00  0.00    -0.268 OA
ATOM      4  H   UNL     1       1.408   1.141  -5.328  0.00  0.00    +0.178 HD
ENDROOT
BRANCH   2   5
ATOM      5  C   UNL     1       0.761  -0.588  -7.168  0.00  0.00    +0.038 A 
ATOM      6  C   UNL     1       0.824   0.698  -7.713  0.00  0.00    +0.015 A 
ATOM      7  C   UNL     1       0.555   0.892  -9.048  0.00  0.00    +0.025 A 
ATOM      8  C   UNL     1       0.220  -0.191  -9.857  0.00  0.00    +0.051 A 
ATOM      9  C   UNL     1       0.156  -1.473  -9.318  0.00  0.00    +0.025 A 
ATOM     10  C   UNL     1       0.430  -1.674  -7.984  0.00  0.00    +0.015 A 
BRANCH   8  11
ATOM     11  N   UNL     1      -0.052   0.009 -11.206  0.00  0.00    -0.203 N 
BRANCH  11  12
ATOM     12  S   UNL     1      -1.100   1.204 -11.672  0.00  0.00    +0.043 S 
ATOM     13  O   UNL     1      -1.687   0.724 -12.873  0.00  0.00    -0.155 OA
ATOM     14  O   UNL     1      -1.900   1.453 -10.524  0.00  0.00    -0.155 OA
ATOM     15  C   UNL     1      -0.045   2.638 -12.021  0.00  0.00    +0.218 C 
ENDBRANCH  11  12
BRANCH  11  16
ATOM     16  C   UNL     1       0.588  -0.838 -12.216  0.00  0.00    +0.166 C 
BRANCH  16  17
ATOM     17  C   UNL     1       2.077  -0.606 -12.195  0.00  0.00    -0.028 A 
ATOM     18  C   UNL     1       2.619   0.461 -12.886  0.00  0.00    +0.005 A 
ATOM     19  C   UNL     1       3.985   0.674 -12.867  0.00  0.00    +0.000 A 
ATOM     20  C   UNL     1       4.808  -0.180 -12.157  0.00  0.00    +0.000 A 
ATOM     21  C   UNL     1       4.265  -1.247 -11.466  0.00  0.00    +0.000 A 
ATOM     22  C   UNL     1       2.899  -1.458 -11.481  0.00  0.00    +0.005 A 
ENDBRANCH  16  17
ENDBRANCH  11  16
ENDBRANCH   8  11
ENDBRANCH   2   5
BRANCH   1  24
ATOM     23  C   UNL     1       1.948   1.056  -2.837  0.00  0.00    +0.143 C 
ATOM     24  N   UNL     1       1.641   0.047  -3.593  0.00  0.00    -0.187 NA
BRANCH  23  27
ATOM     25  C   UNL     1       2.719   3.290  -0.760  0.00  0.00    +0.066 C 
ATOM     26  C   UNL     1       2.574   1.815  -0.487  0.00  0.00    +0.052 A 
ATOM     27  C   UNL     1       2.236   0.844  -1.405  0.00  0.00    +0.054 A 
ATOM     28  C   UNL     1       2.217  -0.392  -0.720  0.00  0.00    +0.160 A 
ATOM     29  N   UNL     1       2.524  -0.169   0.530  0.00  0.00    -0.154 NA
ATOM     30  N   UNL     1       2.758   1.200   0.701  0.00  0.00    -0.235 N 
ATOM     31 CL   UNL     1       1.847  -1.938  -1.419  0.00  0.00    -0.059 Cl
BRANCH  30  32
ATOM     32  C   UNL     1       3.118   1.827   1.901  0.00  0.00    +0.066 A 
ATOM     33  C   UNL     1       3.976   2.919   1.886  0.00  0.00    +0.028 A 
ATOM     34  C   UNL     1       4.329   3.534   3.071  0.00  0.00    +0.002 A 
ATOM     35  C   UNL     1       3.829   3.064   4.272  0.00  0.00    +0.000 A 
ATOM     36  C   UNL     1       2.974   1.977   4.290  0.00  0.00    +0.002 A 
ATOM     37  C   UNL     1       2.613   1.361   3.108  0.00  0.00    +0.028 A 
ENDBRANCH  30  32
ENDBRANCH  23  27
ENDBRANCH   1  24
TORSDOF 8
