REMARK  Name = ZINC12873806
REMARK  11 active torsions:
REMARK  status: ('A' for Active; 'I' for Inactive)
REMARK    1  A    between atoms: C_1  and  C_2
REMARK    2  A    between atoms: C_2  and  C_3
REMARK    3  A    between atoms: C_2  and  C_4
REMARK    4  A    between atoms: C_4  and  C_6
REMARK    5  A    between atoms: C_4  and  N_20
REMARK    6  A    between atoms: N_8  and  C_9
REMARK    7  A    between atoms: C_9  and  C_11
REMARK    8  A    between atoms: C_9  and  C_12
REMARK    9  A    between atoms: C_12  and  C_13
REMARK   10  A    between atoms: C_13  and  C_14
REMARK   11  A    between atoms: C_23  and  C_39
REMARK                            x       y       z     vdW  Elec       q    Type
REMARK                         _______ _______ _______ _____ _____    ______ ____
ROOT
ATOM      1  N   UNL     1       2.300   0.702   0.141  0.00  0.00    -0.211 N 
ATOM      2  C   UNL     1       3.149   0.582   1.185  0.00  0.00    +0.253 C 
ATOM      3  O   UNL     1       3.269   1.338   2.125  0.00  0.00    -0.272 OA
ATOM      4  C   UNL     1       3.918  -0.694   0.935  0.00  0.00    +0.153 C 
ATOM      5  C   UNL     1       5.407  -0.447   0.897  0.00  0.00    +0.053 A 
ATOM      6  C   UNL     1       6.173  -0.795  -0.174  0.00  0.00    -0.015 A 
ATOM      7  C   UNL     1       7.535  -0.413   0.159  0.00  0.00    +0.003 A 
ATOM      8  C   UNL     1       8.744  -0.533  -0.532  0.00  0.00    +0.010 A 
ATOM      9  C   UNL     1       9.866  -0.051   0.094  0.00  0.00    +0.001 A 
ATOM     10  C   UNL     1       9.816   0.530   1.351  0.00  0.00    +0.002 A 
ATOM     11  C   UNL     1       8.633   0.660   2.058  0.00  0.00    +0.026 A 
ATOM     12  C   UNL     1       7.477   0.178   1.446  0.00  0.00    +0.047 A 
ATOM     13  N   UNL     1       6.174   0.145   1.850  0.00  0.00    -0.356 N 
ATOM     14  H   UNL     1       5.842   0.487   2.695  0.00  0.00    +0.166 HD
ATOM     15  C   UNL     1       5.699  -1.451  -1.446  0.00  0.00    +0.056 C 
ATOM     16  C   UNL     1       4.278  -2.005  -1.262  0.00  0.00    +0.115 C 
ATOM     17  N   UNL     1       3.527  -1.045  -0.451  0.00  0.00    -0.266 N 
ATOM     18  C   UNL     1       2.483  -0.276  -0.761  0.00  0.00    +0.313 C 
ATOM     19  O   UNL     1       1.783  -0.439  -1.741  0.00  0.00    -0.252 OA
ATOM     20  C   UNL     1       3.546  -1.791   1.935  0.00  0.00    +0.048 C 
ENDROOT
BRANCH   1  21
ATOM     21  C   UNL     1       1.300   1.765   0.012  0.00  0.00    +0.174 C 
BRANCH  21  22
ATOM     22  C   UNL     1      -0.075   1.153  -0.066  0.00  0.00    +0.235 C 
ATOM     23  O   UNL     1      -0.203  -0.020  -0.348  0.00  0.00    -0.274 OA
ATOM     24  N   UNL     1      -1.164   1.911   0.171  0.00  0.00    -0.311 N 
ATOM     25  H   UNL     1      -1.069   2.865   0.320  0.00  0.00    +0.149 HD
BRANCH  24  26
ATOM     26  C   UNL     1      -2.493   1.294   0.205  0.00  0.00    +0.070 C 
ATOM     27  C   UNL     1      -2.759   0.733   1.603  0.00  0.00    +0.028 C 
BRANCH  26  28
ATOM     28  C   UNL     1      -3.552   2.346  -0.133  0.00  0.00    +0.026 C 
BRANCH  28  29
ATOM     29  C   UNL     1      -3.361   2.816  -1.576  0.00  0.00    +0.037 C 
BRANCH  29  30
ATOM     30  C   UNL     1      -4.404   3.852  -1.909  0.00  0.00    -0.047 A 
ATOM     31  C   UNL     1      -5.617   3.463  -2.447  0.00  0.00    +0.003 A 
ATOM     32  C   UNL     1      -6.575   4.412  -2.748  0.00  0.00    +0.000 A 
ATOM     33  C   UNL     1      -6.317   5.751  -2.521  0.00  0.00    +0.000 A 
ATOM     34  C   UNL     1      -5.102   6.141  -1.988  0.00  0.00    +0.000 A 
ATOM     35  C   UNL     1      -4.146   5.191  -1.683  0.00  0.00    +0.003 A 
ENDBRANCH  29  30
ENDBRANCH  28  29
ENDBRANCH  26  28
ENDBRANCH  24  26
ENDBRANCH  21  22
BRANCH  21  37
ATOM     36  C   UNL     1       0.608   3.756  -1.329  0.00  0.00    +0.009 C 
ATOM     37  C   UNL     1       1.573   2.570  -1.260  0.00  0.00    +0.013 C 
ATOM     38  C   UNL     1       3.013   3.085  -1.238  0.00  0.00    +0.009 C 
ENDBRANCH  21  37
ENDBRANCH   1  21
TORSDOF 7
