REMARK  Name = ZINC63271718
REMARK  2 active torsions:
REMARK  status: ('A' for Active; 'I' for Inactive)
REMARK    1  A    between atoms: C_6  and  C_7
REMARK    2  A    between atoms: C_20  and  C_21
REMARK                            x       y       z     vdW  Elec       q    Type
REMARK                         _______ _______ _______ _____ _____    ______ ____
ROOT
ATOM      1  C   UNL     1      -1.293  -0.775   0.011  0.00  0.00    +0.062 C 
ATOM      2  C   UNL     1      -1.296  -1.769   1.172  0.00  0.00    +0.150 C 
ATOM      3  C   UNL     1      -2.629  -2.486   1.111  0.00  0.00    +0.138 C 
ATOM      4  N   UNL     1      -3.303  -2.619   2.234  0.00  0.00    -0.147 NA
ATOM      5  C   UNL     1      -2.886  -2.067   3.375  0.00  0.00    +0.331 C 
ATOM      6  O   UNL     1      -3.508  -2.331   4.388  0.00  0.00    -0.250 OA
ATOM      7  N   UNL     1      -1.835  -1.245   3.492  0.00  0.00    -0.238 N 
ATOM      8  C   UNL     1      -0.982  -1.024   2.451  0.00  0.00    +0.231 C 
ATOM      9  O   UNL     1      -0.034  -0.273   2.537  0.00  0.00    -0.275 OA
ATOM     10  N   UNL     1      -3.112  -2.894  -0.056  0.00  0.00    -0.222 NA
ATOM     11  C   UNL     1      -2.610  -2.503  -1.199  0.00  0.00    +0.112 C 
ATOM     12  C   UNL     1      -1.431  -1.574  -1.292  0.00  0.00    +0.163 C 
ATOM     13  N   UNL     1      -3.174  -2.949  -2.340  0.00  0.00    -0.345 N 
ATOM     14  H   UNL     1      -1.672  -0.800   4.338  0.00  0.00    +0.159 HD
ATOM     15  H   UNL     1      -3.936  -3.549  -2.302  0.00  0.00    +0.143 HD
ATOM     16  H   UNL     1      -2.817  -2.671  -3.198  0.00  0.00    +0.143 HD
ENDROOT
BRANCH   1  22
ATOM     17  C   UNL     1       1.205  -0.674   0.118  0.00  0.00    +0.005 A 
ATOM     18  C   UNL     1       2.394   0.032   0.110  0.00  0.00    +0.022 A 
ATOM     19  C   UNL     1       2.380   1.409  -0.015  0.00  0.00    +0.059 A 
ATOM     20  C   UNL     1       1.174   2.080  -0.131  0.00  0.00    +0.060 A 
ATOM     21  C   UNL     1      -0.014   1.373  -0.123  0.00  0.00    +0.025 A 
ATOM     22  C   UNL     1       0.002  -0.004   0.002  0.00  0.00    -0.040 A 
ATOM     23 CL   UNL     1       1.154   3.809  -0.288  0.00  0.00    -0.082 Cl
ATOM     24 CL   UNL     1       3.872   2.296  -0.024  0.00  0.00    -0.082 Cl
ENDBRANCH   1  22
BRANCH  12  25
ATOM     25  C   UNL     1      -0.207  -2.360  -1.516  0.00  0.00    +0.074 C 
ATOM     26  N   UNL     1       0.738  -2.967  -1.688  0.00  0.00    -0.196 NA
ENDBRANCH  12  25
TORSDOF 2
