REMARK  Name = ZINC14162553
REMARK  11 active torsions:
REMARK  status: ('A' for Active; 'I' for Inactive)
REMARK    1  A    between atoms: C_1  and  C_2
REMARK    2  A    between atoms: C_2  and  C_3
REMARK    3  A    between atoms: C_2  and  C_4
REMARK    4  A    between atoms: C_4  and  C_5
REMARK    5  A    between atoms: C_5  and  O_6
REMARK    6  A    between atoms: O_6  and  C_7
REMARK    7  A    between atoms: C_10  and  C_15
REMARK    8  A    between atoms: C_12  and  O_13
REMARK    9  A    between atoms: O_13  and  C_14
REMARK   10  A    between atoms: C_29  and  N_33
REMARK   11  A    between atoms: C_30  and  C_31
REMARK                            x       y       z     vdW  Elec       q    Type
REMARK                         _______ _______ _______ _____ _____    ______ ____
ROOT
ATOM      1  C   UNL     1      -1.199  -2.185   0.005  0.00  0.00    +0.105 C 
ATOM      2  C   UNL     1       0.140  -2.728  -0.415  0.00  0.00    +0.092 A 
ATOM      3  C   UNL     1       1.247  -1.932  -0.400  0.00  0.00    +0.152 A 
ATOM      4  C   UNL     1       2.530  -2.517  -0.823  0.00  0.00    +0.060 A 
ATOM      5  C   UNL     1       3.700  -1.756  -0.833  0.00  0.00    +0.015 A 
ATOM      6  C   UNL     1       4.884  -2.334  -1.234  0.00  0.00    +0.001 A 
ATOM      7  C   UNL     1       4.916  -3.665  -1.626  0.00  0.00    +0.004 A 
ATOM      8  C   UNL     1       3.767  -4.428  -1.620  0.00  0.00    +0.047 A 
ATOM      9  C   UNL     1       2.563  -3.864  -1.219  0.00  0.00    +0.143 A 
ATOM     10  O   UNL     1       1.427  -4.594  -1.208  0.00  0.00    -0.422 OA
ATOM     11  C   UNL     1       0.253  -4.067  -0.826  0.00  0.00    +0.345 A 
ATOM     12  O   UNL     1      -0.742  -4.770  -0.836  0.00  0.00    -0.245 OA
ATOM     13  O   UNL     1       1.185  -0.645  -0.013  0.00  0.00    -0.440 OA
ATOM     14  C   UNL     1       0.002  -0.004   0.002  0.00  0.00    +0.199 C 
ATOM     15  C   UNL     1      -1.171  -0.681   0.015  0.00  0.00    +0.098 C 
ENDROOT
BRANCH   1  19
ATOM     16  C   UNL     1      -2.125  -3.588   3.937  0.00  0.00    +0.162 A 
ATOM     17  C   UNL     1      -0.989  -2.825   3.720  0.00  0.00    +0.050 A 
ATOM     18  C   UNL     1      -0.690  -2.377   2.447  0.00  0.00    +0.008 A 
ATOM     19  C   UNL     1      -1.527  -2.680   1.389  0.00  0.00    -0.031 A 
ATOM     20  C   UNL     1      -2.662  -3.441   1.599  0.00  0.00    +0.054 A 
ATOM     21  C   UNL     1      -2.965  -3.897   2.872  0.00  0.00    +0.162 A 
BRANCH  21  22
ATOM     22  O   UNL     1      -4.081  -4.646   3.079  0.00  0.00    -0.491 OA
ATOM     23  C   UNL     1      -4.897  -4.925   1.939  0.00  0.00    +0.277 C 
ENDBRANCH  21  22
BRANCH  16  24
ATOM     24  O   UNL     1      -2.418  -4.034   5.188  0.00  0.00    -0.488 OA
BRANCH  24  25
ATOM     25  C   UNL     1      -1.511  -3.678   6.232  0.00  0.00    +0.229 C 
BRANCH  25  26
ATOM     26  C   UNL     1      -2.002  -4.265   7.557  0.00  0.00    +0.044 C 
BRANCH  26  28
ATOM     27  C   UNL     1      -1.051  -2.366   8.873  0.00  0.00    +0.007 C 
ATOM     28  C   UNL     1      -1.031  -3.883   8.676  0.00  0.00    -0.014 C 
ATOM     29  C   UNL     1      -1.453  -4.572   9.975  0.00  0.00    +0.007 C 
ENDBRANCH  26  28
ENDBRANCH  25  26
ENDBRANCH  24  25
ENDBRANCH  16  24
ENDBRANCH   1  19
BRANCH  14  30
ATOM     30  N   UNL     1      -0.017   1.368   0.010  0.00  0.00    -0.328 N 
ATOM     31  H   UNL     1       0.817   1.865   0.004  0.00  0.00    +0.145 HD
ATOM     32  H   UNL     1      -0.863   1.842   0.016  0.00  0.00    +0.145 HD
ENDBRANCH  14  30
BRANCH  15  33
ATOM     33  C   UNL     1      -2.404   0.046   0.035  0.00  0.00    +0.101 C 
ATOM     34  N   UNL     1      -3.382   0.624   0.051  0.00  0.00    -0.191 NA
ENDBRANCH  15  33
TORSDOF 8
