REMARK  Name = ZINC03510281
REMARK  6 active torsions:
REMARK  status: ('A' for Active; 'I' for Inactive)
REMARK    1  A    between atoms: C_6  and  C_7
REMARK    2  A    between atoms: C_7  and  N_8
REMARK    3  A    between atoms: C_9  and  C_11
REMARK    4  A    between atoms: C_11  and  S_12
REMARK    5  A    between atoms: S_12  and  C_13
REMARK    6  A    between atoms: C_17  and  N_19
REMARK                            x       y       z     vdW  Elec       q    Type
REMARK                         _______ _______ _______ _____ _____    ______ ____
ROOT
ATOM      1  N   UNL     1       6.051  -1.072   1.229  0.00  0.00    -0.311 N 
ATOM      2  C   UNL     1       7.355  -1.234   1.530  0.00  0.00    +0.224 C 
ATOM      3  O   UNL     1       7.745  -1.036   2.661  0.00  0.00    -0.275 OA
ATOM      4  H   UNL     1       5.739  -1.231   0.324  0.00  0.00    +0.149 HD
ENDROOT
BRANCH   1   5
ATOM      5  C   UNL     1       5.106  -0.655   2.267  0.00  0.00    +0.139 C 
BRANCH   5  11
ATOM      6  C   UNL     1       2.886  -1.646   1.677  0.00  0.00    +0.009 A 
ATOM      7  C   UNL     1       1.617  -1.552   1.135  0.00  0.00    +0.050 A 
ATOM      8  C   UNL     1       1.183  -0.356   0.589  0.00  0.00    +0.166 A 
ATOM      9  C   UNL     1       2.029   0.752   0.587  0.00  0.00    +0.167 A 
ATOM     10  C   UNL     1       3.298   0.650   1.131  0.00  0.00    +0.054 A 
ATOM     11  C   UNL     1       3.724  -0.547   1.675  0.00  0.00    -0.027 A 
ATOM     12  O   UNL     1       1.376   1.797  -0.001  0.00  0.00    -0.453 OA
ATOM     13  C   UNL     1      -0.018   1.436   0.010  0.00  0.00    +0.466 C 
ATOM     14  O   UNL     1       0.002  -0.004   0.002  0.00  0.00    -0.453 OA
ENDBRANCH   5  11
ENDBRANCH   1   5
BRANCH   2  15
ATOM     15  C   UNL     1       8.327  -1.663   0.462  0.00  0.00    +0.173 C 
BRANCH  15  16
ATOM     16  S   UNL     1       9.987  -1.792   1.173  0.00  0.00    -0.077 S 
BRANCH  16  17
ATOM     17  C   UNL     1      10.892  -2.295  -0.253  0.00  0.00    +0.192 A 
ATOM     18  N   UNL     1      10.251  -2.458  -1.401  0.00  0.00    -0.207 NA
ATOM     19  C   UNL     1      10.903  -2.831  -2.499  0.00  0.00    +0.122 A 
ATOM     20  C   UNL     1      12.274  -3.061  -2.428  0.00  0.00    +0.086 A 
ATOM     21  C   UNL     1      12.913  -2.884  -1.204  0.00  0.00    +0.122 A 
ATOM     22  N   UNL     1      12.197  -2.504  -0.148  0.00  0.00    -0.207 NA
ATOM     23  N   UNL     1      10.225  -2.994  -3.697  0.00  0.00    -0.343 N 
ATOM     24  H   UNL     1      10.707  -3.269  -4.493  0.00  0.00    +0.144 HD
ATOM     25  H   UNL     1       9.270  -2.832  -3.740  0.00  0.00    +0.144 HD
BRANCH  21  26
ATOM     26  N   UNL     1      14.277  -3.101  -1.085  0.00  0.00    -0.343 N 
ATOM     27  H   UNL     1      14.715  -2.975  -0.229  0.00  0.00    +0.144 HD
ATOM     28  H   UNL     1      14.793  -3.377  -1.859  0.00  0.00    +0.144 HD
ENDBRANCH  21  26
ENDBRANCH  16  17
ENDBRANCH  15  16
ENDBRANCH   2  15
TORSDOF 6
