REMARK  Name = ZINC09462486
REMARK  8 active torsions:
REMARK  status: ('A' for Active; 'I' for Inactive)
REMARK    1  A    between atoms: C_1  and  O_2
REMARK    2  A    between atoms: O_2  and  C_3
REMARK    3  A    between atoms: C_11  and  C_32
REMARK    4  A    between atoms: C_12  and  N_13
REMARK    5  A    between atoms: C_14  and  C_16
REMARK    6  A    between atoms: C_16  and  N_59
REMARK    7  A    between atoms: C_32  and  O_34
REMARK    8  A    between atoms: O_34  and  C_35
REMARK                            x       y       z     vdW  Elec       q    Type
REMARK                         _______ _______ _______ _____ _____    ______ ____
ROOT
ATOM      1  N   UNL     1      -0.673   2.668  -6.092  0.00  0.00    -0.285 N 
ATOM      2  C   UNL     1      -0.907   1.871  -5.030  0.00  0.00    +0.201 C 
ATOM      3  O   UNL     1      -0.718   0.676  -5.116  0.00  0.00    -0.278 OA
ATOM      4  H   UNL     1      -0.913   3.607  -6.055  0.00  0.00    +0.155 HD
ENDROOT
BRANCH   1  14
ATOM      5  C   UNL     1       3.594   0.334  -8.165  0.00  0.00    +0.122 A 
ATOM      6  C   UNL     1       3.428   0.720  -6.836  0.00  0.00    +0.046 A 
ATOM      7  C   UNL     1       2.271   1.316  -6.428  0.00  0.00    +0.015 A 
ATOM      8  C   UNL     1       1.244   1.549  -7.349  0.00  0.00    +0.022 A 
ATOM      9  C   UNL     1       1.401   1.157  -8.692  0.00  0.00    +0.052 A 
ATOM     10  C   UNL     1       2.589   0.550  -9.090  0.00  0.00    +0.072 A 
ATOM     11  N   UNL     1       0.253   1.493  -9.370  0.00  0.00    -0.347 N 
ATOM     12  H   UNL     1       0.097   1.337 -10.314  0.00  0.00    +0.166 HD
ATOM     13  C   UNL     1      -0.651   2.089  -8.499  0.00  0.00    +0.147 A 
ATOM     14  C   UNL     1      -0.089   2.144  -7.240  0.00  0.00    +0.073 A 
BRANCH   5  16
ATOM     15  C   UNL     1       5.751  -0.453  -7.552  0.00  0.00    +0.277 C 
ATOM     16  O   UNL     1       4.752  -0.259  -8.555  0.00  0.00    -0.495 OA
ENDBRANCH   5  16
BRANCH  13  17
ATOM     17  C   UNL     1      -1.940   2.562  -8.848  0.00  0.00    +0.357 C 
ATOM     18  O   UNL     1      -2.708   2.932  -7.979  0.00  0.00    -0.243 OA
BRANCH  17  19
ATOM     19  O   UNL     1      -2.316   2.604 -10.143  0.00  0.00    -0.463 OA
ATOM     20  C   UNL     1      -3.630   3.093 -10.422  0.00  0.00    +0.280 C 
ENDBRANCH  17  19
ENDBRANCH  13  17
ENDBRANCH   1  14
BRANCH   2  21
ATOM     21  C   UNL     1      -1.402   2.464  -3.736  0.00  0.00    +0.019 C 
BRANCH  21  35
ATOM     22  C   UNL     1      -1.823   1.954  -1.409  0.00  0.00    -0.073 C 
ATOM     23  C   UNL     1      -1.944   0.851  -0.369  0.00  0.00    -0.007 C 
ATOM     24  C   UNL     1      -3.026  -0.156  -0.768  0.00  0.00    +0.011 C 
ATOM     25  C   UNL     1      -2.662  -0.701  -2.154  0.00  0.00    +0.020 C 
ATOM     26  C   UNL     1      -2.654   0.477  -3.141  0.00  0.00    -0.069 C 
ATOM     27  C   UNL     1      -1.262  -1.270  -2.111  0.00  0.00    +0.023 A 
ATOM     28  C   UNL     1      -0.968  -2.280  -2.972  0.00  0.00    +0.022 A 
ATOM     29  C   UNL     1       0.326  -2.809  -3.032  0.00  0.00    +0.007 A 
ATOM     30  C   UNL     1       1.293  -2.277  -2.230  0.00  0.00    +0.070 A 
ATOM     31  C   UNL     1       0.958  -1.234  -1.356  0.00  0.00    +0.251 A 
ATOM     32  O   UNL     1       1.827  -0.709  -0.680  0.00  0.00    -0.268 OA
ATOM     33  N   UNL     1      -0.324  -0.802  -1.255  0.00  0.00    -0.312 N 
ATOM     34  C   UNL     1      -0.627   0.122  -0.162  0.00  0.00    +0.126 C 
ATOM     35  N   UNL     1      -1.551   1.381  -2.742  0.00  0.00    +0.386 N 
ATOM     36  H   UNL     1      -0.677   0.843  -2.702  0.00  0.00    -0.081 HD
ENDBRANCH  21  35
ENDBRANCH   2  21
TORSDOF 6
