REMARK  Name = ZINC12475565
REMARK  10 active torsions:
REMARK  status: ('A' for Active; 'I' for Inactive)
REMARK    1  A    between atoms: C_1  and  O_2
REMARK    2  A    between atoms: O_2  and  C_3
REMARK    3  A    between atoms: C_6  and  C_9
REMARK    4  A    between atoms: C_9  and  N_10
REMARK    5  A    between atoms: N_10  and  C_11
REMARK    6  A    between atoms: C_11  and  C_13
REMARK    7  A    between atoms: C_11  and  C_20
REMARK    8  A    between atoms: N_22  and  C_23
REMARK    9  A    between atoms: C_29  and  C_31
REMARK   10  A    between atoms: C_31  and  C_32
REMARK                            x       y       z     vdW  Elec       q    Type
REMARK                         _______ _______ _______ _____ _____    ______ ____
ROOT
ATOM      1  N   UNL     1       3.374   3.118  -0.531  0.00  0.00    -0.281 N 
ATOM      2  C   UNL     1       3.789   3.995  -1.466  0.00  0.00    +0.221 C 
ATOM      3  O   UNL     1       3.321   5.113  -1.499  0.00  0.00    -0.275 OA
ENDROOT
BRANCH   1   4
ATOM      4  C   UNL     1       3.852   1.733  -0.561  0.00  0.00    +0.144 C 
BRANCH   4   8
ATOM      5  C   UNL     1       7.165   1.310   2.104  0.00  0.00    +0.120 A 
ATOM      6  C   UNL     1       5.868   1.228   2.589  0.00  0.00    +0.046 A 
ATOM      7  C   UNL     1       4.799   1.365   1.726  0.00  0.00    +0.009 A 
ATOM      8  C   UNL     1       5.020   1.584   0.378  0.00  0.00    -0.030 A 
ATOM      9  C   UNL     1       6.312   1.661  -0.109  0.00  0.00    +0.009 A 
ATOM     10  C   UNL     1       7.385   1.530   0.752  0.00  0.00    +0.046 A 
BRANCH   5  12
ATOM     11  C   UNL     1       9.526   1.272   2.382  0.00  0.00    +0.277 C 
ATOM     12  O   UNL     1       8.219   1.176   2.951  0.00  0.00    -0.495 OA
ENDBRANCH   5  12
ENDBRANCH   4   8
ENDBRANCH   1   4
BRANCH   1  13
ATOM     13  C   UNL     1       2.444   3.549   0.516  0.00  0.00    +0.195 C 
BRANCH  13  14
ATOM     14  C   UNL     1       3.130   4.542   1.419  0.00  0.00    +0.017 A 
ATOM     15  C   UNL     1       4.258   5.210   0.982  0.00  0.00    +0.009 A 
ATOM     16  C   UNL     1       4.887   6.121   1.809  0.00  0.00    +0.001 A 
ATOM     17  C   UNL     1       4.392   6.361   3.078  0.00  0.00    +0.003 A 
ATOM     18  C   UNL     1       3.260   5.699   3.515  0.00  0.00    +0.039 A 
ATOM     19  C   UNL     1       2.630   4.785   2.687  0.00  0.00    +0.129 A 
ATOM     20  F   UNL     1       1.527   4.133   3.116  0.00  0.00    -0.205 F 
ENDBRANCH  13  14
BRANCH  13  21
ATOM     21  C   UNL     1       1.239   4.194  -0.117  0.00  0.00    +0.238 C 
ATOM     22  O   UNL     1       1.163   4.285  -1.324  0.00  0.00    -0.273 OA
ATOM     23  N   UNL     1       0.244   4.671   0.658  0.00  0.00    -0.311 N 
ATOM     24  H   UNL     1       0.304   4.598   1.623  0.00  0.00    +0.149 HD
BRANCH  23  25
ATOM     25  C   UNL     1      -0.928   5.298   0.042  0.00  0.00    +0.073 C 
ATOM     26  C   UNL     1      -0.631   6.774  -0.230  0.00  0.00    +0.022 C 
ATOM     27  C   UNL     1      -1.855   7.430  -0.873  0.00  0.00    +0.002 C 
ATOM     28  C   UNL     1      -3.051   7.316   0.074  0.00  0.00    +0.000 C 
ATOM     29  C   UNL     1      -3.348   5.840   0.347  0.00  0.00    +0.002 C 
ATOM     30  C   UNL     1      -2.124   5.185   0.990  0.00  0.00    +0.022 C 
ENDBRANCH  23  25
ENDBRANCH  13  21
ENDBRANCH   1  13
BRANCH   2  31
ATOM     31  C   UNL     1       4.836   3.586  -2.470  0.00  0.00    +0.133 C 
BRANCH  31  32
ATOM     32  C   UNL     1       5.133   4.745  -3.386  0.00  0.00    -0.014 A 
ATOM     33  C   UNL     1       4.584   4.972  -4.590  0.00  0.00    +0.087 A 
ATOM     34  N   UNL     1       5.096   6.122  -5.127  0.00  0.00    -0.360 N 
ATOM     35  H   UNL     1       4.850   6.493  -5.989  0.00  0.00    +0.165 HD
ATOM     36  C   UNL     1       6.016   6.673  -4.263  0.00  0.00    +0.047 A 
ATOM     37  C   UNL     1       6.079   5.835  -3.135  0.00  0.00    +0.003 A 
ATOM     38  C   UNL     1       6.939   6.149  -2.081  0.00  0.00    +0.010 A 
ATOM     39  C   UNL     1       7.716   7.271  -2.151  0.00  0.00    +0.001 A 
ATOM     40  C   UNL     1       7.657   8.101  -3.261  0.00  0.00    +0.002 A 
ATOM     41  C   UNL     1       6.816   7.810  -4.313  0.00  0.00    +0.026 A 
ENDBRANCH  31  32
ENDBRANCH   2  31
TORSDOF 9
