REMARK  Name = ZINC16214948
REMARK  12 active torsions:
REMARK  status: ('A' for Active; 'I' for Inactive)
REMARK    1  A    between atoms: C_1  and  O_2
REMARK    2  A    between atoms: O_2  and  C_3
REMARK    3  A    between atoms: C_5  and  C_18
REMARK    4  A    between atoms: C_8  and  O_9
REMARK    5  A    between atoms: O_9  and  C_10
REMARK    6  A    between atoms: C_10  and  C_11
REMARK    7  A    between atoms: C_18  and  N_54
REMARK    8  A    between atoms: C_19  and  C_20
REMARK    9  A    between atoms: C_19  and  N_54
REMARK   10  A    between atoms: C_20  and  N_21
REMARK   11  A    between atoms: N_21  and  C_22
REMARK   12  A    between atoms: C_25  and  N_28
REMARK                            x       y       z     vdW  Elec       q    Type
REMARK                         _______ _______ _______ _____ _____    ______ ____
ROOT
ATOM      1  C   UNL     1       6.528  -8.128   1.097  0.00  0.00    +0.162 A 
ATOM      2  C   UNL     1       5.300  -7.487   1.111  0.00  0.00    +0.051 A 
ATOM      3  C   UNL     1       4.677  -7.162  -0.080  0.00  0.00    -0.061 A 
ATOM      4  C   UNL     1       5.274  -7.480  -1.285  0.00  0.00    +0.005 A 
ATOM      5  C   UNL     1       6.502  -8.115  -1.306  0.00  0.00    +0.049 A 
ATOM      6  C   UNL     1       7.132  -8.443  -0.116  0.00  0.00    +0.162 A 
ENDROOT
BRANCH   1   8
ATOM      7  C   UNL     1       6.465  -8.094   3.474  0.00  0.00    +0.277 C 
ATOM      8  O   UNL     1       7.143  -8.448   2.267  0.00  0.00    -0.491 OA
ENDBRANCH   1   8
BRANCH   6   9
ATOM      9  O   UNL     1       8.338  -9.072  -0.135  0.00  0.00    -0.484 OA
BRANCH   9  10
ATOM     10  C   UNL     1       8.898  -9.364  -1.417  0.00  0.00    +0.267 C 
BRANCH  10  11
ATOM     11  C   UNL     1      10.225 -10.055  -1.240  0.00  0.00    +0.025 A 
ATOM     12  C   UNL     1      10.712 -10.302   0.030  0.00  0.00    +0.010 A 
ATOM     13  C   UNL     1      11.926 -10.941   0.193  0.00  0.00    +0.001 A 
ATOM     14  C   UNL     1      12.661 -11.325  -0.914  0.00  0.00    +0.003 A 
ATOM     15  C   UNL     1      12.179 -11.074  -2.184  0.00  0.00    +0.039 A 
ATOM     16  C   UNL     1      10.960 -10.438  -2.349  0.00  0.00    +0.130 A 
ATOM     17  F   UNL     1      10.488 -10.192  -3.590  0.00  0.00    -0.205 F 
ENDBRANCH  10  11
ENDBRANCH   9  10
ENDBRANCH   6   9
BRANCH   3  18
ATOM     18  C   UNL     1       3.341  -6.466  -0.063  0.00  0.00    -0.047 C 
BRANCH  18  19
ATOM     19  N   UNL     1       3.556  -5.006  -0.058  0.00  0.00    +0.383 N 
ATOM     20  H   UNL     1       4.079  -4.739  -0.900  0.00  0.00    -0.085 HD
ATOM     21  H   UNL     1       4.095  -4.747   0.777  0.00  0.00    -0.085 HD
BRANCH  19  22
ATOM     22  C   UNL     1       2.263  -4.298  -0.042  0.00  0.00    -0.063 C 
BRANCH  22  23
ATOM     23  C   UNL     1       2.518  -2.789  -0.037  0.00  0.00    +0.082 C 
BRANCH  23  24
ATOM     24  N   UNL     1       1.238  -2.077  -0.021  0.00  0.00    -0.346 N 
ATOM     25  H   UNL     1       0.406  -2.576  -0.015  0.00  0.00    +0.146 HD
BRANCH  24  26
ATOM     26  C   UNL     1       1.215  -0.681  -0.013  0.00  0.00    +0.027 A 
ATOM     27  C   UNL     1       0.002  -0.004   0.002  0.00  0.00    +0.025 A 
ATOM     28  C   UNL     1      -0.017   1.377   0.010  0.00  0.00    +0.034 A 
ATOM     29  C   UNL     1       1.171   2.086   0.002  0.00  0.00    +0.126 A 
ATOM     30  C   UNL     1       2.380   1.416  -0.013  0.00  0.00    +0.034 A 
ATOM     31  C   UNL     1       2.406   0.035  -0.021  0.00  0.00    +0.025 A 
BRANCH  29  32
ATOM     32  N   UNL     1       1.147   3.566   0.010  0.00  0.00    +0.056 N 
ATOM     33  O   UNL     1       0.082   4.158   0.023  0.00  0.00    -0.126 OA
ATOM     34  O   UNL     1       2.191   4.192   0.003  0.00  0.00    -0.126 OA
ENDBRANCH  29  32
ENDBRANCH  24  26
ENDBRANCH  23  24
ENDBRANCH  22  23
ENDBRANCH  19  22
ENDBRANCH  18  19
ENDBRANCH   3  18
TORSDOF 11
