REMARK  Name = ZINC63165344
REMARK  8 active torsions:
REMARK  status: ('A' for Active; 'I' for Inactive)
REMARK    1  A    between atoms: C_6  and  C_10
REMARK    2  A    between atoms: C_10  and  S_11
REMARK    3  A    between atoms: S_11  and  C_12
REMARK    4  A    between atoms: C_16  and  C_24
REMARK    5  A    between atoms: N_17  and  C_18
REMARK    6  A    between atoms: C_18  and  C_19
REMARK    7  A    between atoms: C_24  and  O_25
REMARK    8  A    between atoms: O_25  and  C_26
REMARK                            x       y       z     vdW  Elec       q    Type
REMARK                         _______ _______ _______ _____ _____    ______ ____
ROOT
ATOM      1  C   UNL     1       3.546  -2.895  -4.159  0.00  0.00    +0.237 C 
ATOM      2  N   UNL     1       5.014  -2.992  -4.092  0.00  0.00    -0.238 N 
ATOM      3  N   UNL     1       5.308  -4.356  -3.969  0.00  0.00    -0.170 NA
ATOM      4  C   UNL     1       4.242  -5.069  -3.952  0.00  0.00    +0.156 C 
ATOM      5  N   UNL     1       3.094  -4.294  -4.063  0.00  0.00    -0.279 N 
ATOM      6  H   UNL     1       5.650  -2.260  -4.127  0.00  0.00    +0.171 HD
ENDROOT
BRANCH   1   7
ATOM      7  S   UNL     1       2.908  -1.923  -2.766  0.00  0.00    -0.114 S 
BRANCH   7   8
ATOM      8  C   UNL     1       3.542  -2.787  -1.302  0.00  0.00    +0.119 C 
BRANCH   8  14
ATOM      9  C   UNL     1      -0.016   1.344   0.009  0.00  0.00    +0.002 A 
ATOM     10  C   UNL     1       1.158   2.118   0.002  0.00  0.00    +0.002 A 
ATOM     11  C   UNL     1       2.389   1.570  -0.013  0.00  0.00    +0.027 A 
ATOM     12  C   UNL     1       2.533   0.108  -0.022  0.00  0.00    +0.060 A 
ATOM     13  N   UNL     1       3.569  -0.680  -0.036  0.00  0.00    -0.363 N 
ATOM     14  C   UNL     1       3.071  -2.062  -0.039  0.00  0.00    +0.184 C 
ATOM     15  N   UNL     1       1.606  -1.974  -0.024  0.00  0.00    -0.363 N 
ATOM     16  C   UNL     1       1.290  -0.712  -0.014  0.00  0.00    +0.060 A 
ATOM     17  C   UNL     1       0.002  -0.004   0.002  0.00  0.00    +0.027 A 
ATOM     18  H   UNL     1       4.499  -0.405  -0.045  0.00  0.00    +0.162 HD
ATOM     19  H   UNL     1       0.987  -2.721  -0.022  0.00  0.00    +0.162 HD
ENDBRANCH   8  14
ENDBRANCH   7   8
ENDBRANCH   1   7
BRANCH   5  20
ATOM     20  C   UNL     1       1.708  -4.770  -4.081  0.00  0.00    +0.183 C 
BRANCH  20  21
ATOM     21  C   UNL     1       1.291  -5.048  -5.502  0.00  0.00    +0.122 A 
ATOM     22  C   UNL     1       1.420  -6.223  -6.144  0.00  0.00    +0.046 A 
ATOM     23  C   UNL     1       0.903  -6.037  -7.447  0.00  0.00    +0.041 A 
ATOM     24  C   UNL     1       0.488  -4.759  -7.522  0.00  0.00    +0.195 A 
ATOM     25  O   UNL     1       0.721  -4.167  -6.339  0.00  0.00    -0.466 OA
ENDBRANCH  20  21
ENDBRANCH   5  20
BRANCH   4  26
ATOM     26  C   UNL     1       4.234  -6.571  -3.830  0.00  0.00    +0.302 C 
BRANCH  26  27
ATOM     27  O   UNL     1       5.578  -7.048  -3.738  0.00  0.00    -0.485 OA
BRANCH  27  28
ATOM     28  C   UNL     1       5.750  -8.391  -3.621  0.00  0.00    +0.121 A 
ATOM     29  C   UNL     1       4.647  -9.233  -3.602  0.00  0.00    +0.047 A 
ATOM     30  C   UNL     1       4.824 -10.598  -3.483  0.00  0.00    +0.023 A 
ATOM     31  C   UNL     1       6.099 -11.126  -3.384  0.00  0.00    +0.041 A 
ATOM     32  C   UNL     1       7.200 -10.287  -3.402  0.00  0.00    +0.023 A 
ATOM     33  C   UNL     1       7.028  -8.922  -3.527  0.00  0.00    +0.047 A 
ATOM     34 CL   UNL     1       6.318 -12.841  -3.234  0.00  0.00    -0.084 Cl
ENDBRANCH  27  28
ENDBRANCH  26  27
ENDBRANCH   4  26
TORSDOF 8
