REMARK  Name = ZINC02140229
REMARK  9 active torsions:
REMARK  status: ('A' for Active; 'I' for Inactive)
REMARK    1  A    between atoms: C_1  and  O_2
REMARK    2  A    between atoms: O_2  and  C_3
REMARK    3  A    between atoms: C_8  and  O_9
REMARK    4  A    between atoms: O_9  and  C_10
REMARK    5  A    between atoms: C_11  and  C_15
REMARK    6  A    between atoms: C_16  and  O_32
REMARK    7  A    between atoms: N_21  and  C_24
REMARK    8  A    between atoms: C_24  and  C_25
REMARK    9  A    between atoms: C_25  and  C_26
REMARK                            x       y       z     vdW  Elec       q    Type
REMARK                         _______ _______ _______ _____ _____    ______ ____
ROOT
ATOM      1  C   UNL     1      -0.708   1.567   1.255  0.00  0.00    +0.067 A 
ATOM      2  C   UNL     1      -1.110   0.679   2.209  0.00  0.00    +0.199 A 
ATOM      3  N   UNL     1      -1.741   1.139   3.337  0.00  0.00    -0.306 N 
ATOM      4  H   UNL     1      -2.028   0.511   4.018  0.00  0.00    +0.171 HD
ATOM      5  C   UNL     1      -1.965   2.455   3.504  0.00  0.00    +0.163 A 
ATOM      6  S   UNL     1      -2.756   3.003   4.920  0.00  0.00    -0.013 S 
ATOM      7  N   UNL     1      -1.576   3.347   2.574  0.00  0.00    -0.288 N 
ATOM      8  C   UNL     1      -0.947   2.938   1.455  0.00  0.00    +0.260 A 
ATOM      9  O   UNL     1      -0.592   3.751   0.619  0.00  0.00    -0.267 OA
ENDROOT
BRANCH   1  16
ATOM     10  C   UNL     1       4.018   2.528   0.062  0.00  0.00    +0.162 A 
ATOM     11  C   UNL     1       3.294   2.560  -1.116  0.00  0.00    +0.053 A 
ATOM     12  C   UNL     1       1.987   2.099  -1.149  0.00  0.00    -0.044 A 
ATOM     13  C   UNL     1       1.403   1.602  -0.003  0.00  0.00    -0.050 A 
ATOM     14  C   UNL     1       2.124   1.569   1.182  0.00  0.00    +0.052 A 
ATOM     15  C   UNL     1       3.429   2.030   1.220  0.00  0.00    +0.162 A 
ATOM     16  C   UNL     1      -0.013   1.086   0.008  0.00  0.00    +0.001 C 
ATOM     17  C   UNL     1       0.007   1.257  -2.396  0.00  0.00    -0.077 C 
ATOM     18  C   UNL     1       1.236   2.164  -2.455  0.00  0.00    +0.016 C 
ATOM     19  N   UNL     1      -0.749   1.569  -1.168  0.00  0.00    +0.387 N 
ATOM     20  H   UNL     1      -0.876   2.585  -1.096  0.00  0.00    -0.085 HD
ATOM     21  H   UNL     1      -1.667   1.110  -1.208  0.00  0.00    -0.085 HD
BRANCH  10  23
ATOM     22  C   UNL     1       5.839   3.478  -1.138  0.00  0.00    +0.277 C 
ATOM     23  O   UNL     1       5.300   2.981   0.089  0.00  0.00    -0.491 OA
ENDBRANCH  10  23
BRANCH  15  24
ATOM     24  O   UNL     1       4.131   1.995   2.384  0.00  0.00    -0.491 OA
ATOM     25  C   UNL     1       3.460   1.470   3.531  0.00  0.00    +0.277 C 
ENDBRANCH  15  24
ENDBRANCH   1  16
BRANCH   2  26
ATOM     26  O   UNL     1      -0.887  -0.642   2.045  0.00  0.00    -0.493 OA
ATOM     27  H   UNL     1      -1.208  -1.189   2.775  0.00  0.00    +0.294 HD
ENDBRANCH   2  26
BRANCH   7  28
ATOM     28  C   UNL     1      -1.833   4.774   2.784  0.00  0.00    +0.131 C 
BRANCH  28  29
ATOM     29  C   UNL     1      -0.647   5.404   3.518  0.00  0.00    +0.052 C 
BRANCH  29  30
ATOM     30  C   UNL     1      -0.911   6.871   3.733  0.00  0.00    -0.072 C 
ATOM     31  C   UNL     1      -1.422   7.236   4.865  0.00  0.00    -0.028 C 
ATOM     32  C   UNL     1      -1.749   8.657   5.221  0.00  0.00    +0.027 C 
ATOM     33  C   UNL     1      -1.023   9.617   4.277  0.00  0.00    +0.004 C 
ATOM     34  C   UNL     1      -1.272   9.160   2.834  0.00  0.00    +0.005 C 
ATOM     35  C   UNL     1      -0.559   7.820   2.625  0.00  0.00    +0.030 C 
ENDBRANCH  29  30
ENDBRANCH  28  29
ENDBRANCH   7  28
TORSDOF 7
