REMARK  Name = ZINC04252481
REMARK  7 active torsions:
REMARK  status: ('A' for Active; 'I' for Inactive)
REMARK    1  A    between atoms: C_1  and  C_2
REMARK    2  A    between atoms: C_2  and  C_4
REMARK    3  A    between atoms: C_2  and  S_17
REMARK    4  A    between atoms: N_6  and  C_7
REMARK    5  A    between atoms: S_17  and  C_18
REMARK    6  A    between atoms: C_23  and  O_28
REMARK    7  A    between atoms: O_28  and  C_29
REMARK                            x       y       z     vdW  Elec       q    Type
REMARK                         _______ _______ _______ _____ _____    ______ ____
ROOT
ATOM      1  C   UNL     1      -0.838   7.790  -1.569  0.00  0.00    +0.029 C 
ATOM      2  C   UNL     1      -2.132   7.259  -0.950  0.00  0.00    +0.137 C 
ENDROOT
BRANCH   2   3
ATOM      3  C   UNL     1      -2.112   5.752  -0.958  0.00  0.00    +0.227 C 
ATOM      4  O   UNL     1      -2.637   5.143  -1.866  0.00  0.00    -0.275 OA
ATOM      5  N   UNL     1      -1.510   5.081   0.044  0.00  0.00    -0.309 N 
ATOM      6  H   UNL     1      -1.089   5.567   0.770  0.00  0.00    +0.149 HD
BRANCH   5   7
ATOM      7  C   UNL     1      -1.490   3.616   0.036  0.00  0.00    +0.035 C 
ATOM      8  C   UNL     1      -0.773   3.123  -1.223  0.00  0.00    +0.029 C 
ATOM      9  C   UNL     1      -0.753   1.593  -1.232  0.00  0.00    -0.008 C 
ATOM     10  C   UNL     1      -0.013   1.086   0.008  0.00  0.00    +0.007 C 
ATOM     11  C   UNL     1      -0.729   1.579   1.267  0.00  0.00    -0.008 C 
ATOM     12  C   UNL     1      -0.750   3.109   1.275  0.00  0.00    +0.029 C 
ATOM     13  C   UNL     1      -2.164   1.050   1.278  0.00  0.00    +0.007 C 
ATOM     14  C   UNL     1      -2.904   1.556   0.038  0.00  0.00    -0.008 C 
ATOM     15  C   UNL     1      -2.188   1.063  -1.221  0.00  0.00    +0.007 C 
ATOM     16  C   UNL     1      -2.925   3.086   0.047  0.00  0.00    +0.029 C 
ENDBRANCH   5   7
ENDBRANCH   2   3
BRANCH   2  17
ATOM     17  S   UNL     1      -3.547   7.848  -1.912  0.00  0.00    -0.075 S 
BRANCH  17  18
ATOM     18  C   UNL     1      -3.419   9.580  -1.615  0.00  0.00    +0.168 A 
ATOM     19  N   UNL     1      -4.261  10.529  -2.124  0.00  0.00    -0.333 N 
ATOM     20  H   UNL     1      -5.046  10.366  -2.722  0.00  0.00    +0.168 HD
ATOM     21  C   UNL     1      -3.826  11.758  -1.656  0.00  0.00    +0.070 A 
ATOM     22  C   UNL     1      -4.268  13.062  -1.826  0.00  0.00    +0.073 A 
ATOM     23  C   UNL     1      -3.592  14.103  -1.213  0.00  0.00    +0.122 A 
ATOM     24  C   UNL     1      -2.473  13.847  -0.427  0.00  0.00    +0.048 A 
ATOM     25  C   UNL     1      -2.024  12.558  -0.251  0.00  0.00    +0.033 A 
ATOM     26  C   UNL     1      -2.696  11.498  -0.864  0.00  0.00    +0.090 A 
ATOM     27  N   UNL     1      -2.499  10.152  -0.878  0.00  0.00    -0.222 NA
BRANCH  23  28
ATOM     28  O   UNL     1      -4.025  15.381  -1.380  0.00  0.00    -0.495 OA
ATOM     29  C   UNL     1      -3.283  16.408  -0.719  0.00  0.00    +0.277 C 
ENDBRANCH  23  28
ENDBRANCH  17  18
ENDBRANCH   2  17
TORSDOF 5
