REMARK  Name = ZINC22844111
REMARK  12 active torsions:
REMARK  status: ('A' for Active; 'I' for Inactive)
REMARK    1  A    between atoms: C_1  and  C_2
REMARK    2  A    between atoms: C_8  and  N_10
REMARK    3  A    between atoms: C_11  and  C_13
REMARK    4  A    between atoms: C_13  and  C_15
REMARK    5  A    between atoms: C_13  and  S_16
REMARK    6  A    between atoms: S_16  and  C_17
REMARK    7  A    between atoms: C_20  and  C_29
REMARK    8  A    between atoms: N_21  and  C_22
REMARK    9  A    between atoms: C_29  and  C_31
REMARK   10  A    between atoms: C_29  and  N_32
REMARK   11  A    between atoms: N_32  and  C_33
REMARK   12  A    between atoms: N_32  and  C_34
REMARK                            x       y       z     vdW  Elec       q    Type
REMARK                         _______ _______ _______ _____ _____    ______ ____
ROOT
ATOM      1  C   UNL     1       1.482  -2.744   5.562  0.00  0.00    +0.197 A 
ATOM      2  N   UNL     1       2.027  -1.837   6.339  0.00  0.00    -0.122 NA
ATOM      3  N   UNL     1       2.699  -2.408   7.274  0.00  0.00    -0.135 NA
ATOM      4  C   UNL     1       2.631  -3.703   7.148  0.00  0.00    +0.125 A 
ATOM      5  N   UNL     1       1.853  -3.965   6.052  0.00  0.00    -0.275 N 
ENDROOT
BRANCH   5   6
ATOM      6  C   UNL     1       1.508  -5.225   5.539  0.00  0.00    +0.050 A 
ATOM      7  C   UNL     1       0.725  -6.090   6.290  0.00  0.00    +0.028 A 
ATOM      8  C   UNL     1       0.383  -7.328   5.780  0.00  0.00    +0.022 A 
ATOM      9  C   UNL     1       0.830  -7.709   4.527  0.00  0.00    +0.041 A 
ATOM     10  C   UNL     1       1.615  -6.850   3.780  0.00  0.00    +0.022 A 
ATOM     11  C   UNL     1       1.956  -5.610   4.283  0.00  0.00    +0.028 A 
ATOM     12 CL   UNL     1       0.403  -9.268   3.893  0.00  0.00    -0.084 Cl
ENDBRANCH   5   6
BRANCH   4  13
ATOM     13  C   UNL     1       3.289  -4.723   8.042  0.00  0.00    -0.003 C 
ATOM     14  C   UNL     1       4.788  -4.772   7.742  0.00  0.00    -0.005 C 
BRANCH  13  15
ATOM     15  N   UNL     1       3.082  -4.348   9.447  0.00  0.00    +0.382 N 
ATOM     16  C   UNL     1       3.607  -5.381  10.350  0.00  0.00    -0.096 C 
ATOM     17  C   UNL     1       3.685  -3.040   9.737  0.00  0.00    -0.096 C 
ATOM     18  H   UNL     1       1.999  -4.266   9.620  0.00  0.00    -0.082 HD
ENDBRANCH  13  15
ENDBRANCH   4  13
BRANCH   1  19
ATOM     19  S   UNL     1       0.469  -2.443   4.152  0.00  0.00    -0.073 S 
BRANCH  19  20
ATOM     20  C   UNL     1       0.444  -0.634   4.162  0.00  0.00    +0.137 C 
ATOM     21  C   UNL     1      -0.272  -0.140   5.421  0.00  0.00    +0.029 C 
BRANCH  20  23
ATOM     22  N   UNL     1      -0.020   1.094   2.454  0.00  0.00    -0.311 N 
ATOM     23  C   UNL     1      -0.285  -0.134   2.941  0.00  0.00    +0.226 C 
ATOM     24  O   UNL     1      -1.109  -0.838   2.397  0.00  0.00    -0.275 OA
ATOM     25  H   UNL     1       0.728   1.732   2.947  0.00  0.00    +0.149 HD
BRANCH  22  32
ATOM     26  C   UNL     1      -1.466   3.603   2.534  0.00  0.00    +0.009 C 
ATOM     27  C   UNL     1      -0.750   3.109   1.275  0.00  0.00    +0.006 C 
ATOM     28  C   UNL     1      -1.490   3.616   0.036  0.00  0.00    +0.005 C 
ATOM     29  C   UNL     1      -0.773   3.123  -1.223  0.00  0.00    +0.000 C 
ATOM     30  C   UNL     1      -0.753   1.593  -1.232  0.00  0.00    +0.002 C 
ATOM     31  C   UNL     1      -0.013   1.086   0.008  0.00  0.00    +0.022 C 
ATOM     32  C   UNL     1      -0.729   1.579   1.267  0.00  0.00    +0.076 C 
ENDBRANCH  22  32
ENDBRANCH  20  23
ENDBRANCH  19  20
ENDBRANCH   1  19
TORSDOF 7
