REMARK  Name = ZINC67350846
REMARK  10 active torsions:
REMARK  status: ('A' for Active; 'I' for Inactive)
REMARK    1  A    between atoms: C_1  and  C_2
REMARK    2  A    between atoms: C_2  and  C_3
REMARK    3  A    between atoms: C_6  and  N_9
REMARK    4  A    between atoms: C_11  and  C_22
REMARK    5  A    between atoms: C_17  and  O_20
REMARK    6  A    between atoms: O_20  and  C_21
REMARK    7  A    between atoms: N_24  and  C_25
REMARK    8  A    between atoms: C_29  and  C_30
REMARK    9  A    between atoms: C_30  and  O_32
REMARK   10  A    between atoms: O_32  and  C_33
REMARK                            x       y       z     vdW  Elec       q    Type
REMARK                         _______ _______ _______ _____ _____    ______ ____
ROOT
ATOM      1  N   UNL     1       2.338  -1.671  -5.153  0.00  0.00    -0.325 N 
ATOM      2  C   UNL     1       3.562  -1.196  -5.228  0.00  0.00    +0.212 A 
ATOM      3  C   UNL     1       4.560  -1.802  -6.131  0.00  0.00    +0.098 A 
ATOM      4  C   UNL     1       5.581  -0.979  -6.590  0.00  0.00    +0.030 A 
ATOM      5  C   UNL     1       5.577   0.414  -6.138  0.00  0.00    +0.022 A 
ATOM      6  C   UNL     1       6.398   1.369  -6.751  0.00  0.00    +0.012 A 
ATOM      7  C   UNL     1       6.375   2.664  -6.317  0.00  0.00    +0.004 A 
ATOM      8  C   UNL     1       5.544   3.045  -5.274  0.00  0.00    +0.049 A 
ATOM      9  C   UNL     1       4.725   2.118  -4.651  0.00  0.00    +0.163 A 
ATOM     10  C   UNL     1       4.735   0.793  -5.077  0.00  0.00    +0.179 A 
ATOM     11  O   UNL     1       3.946  -0.129  -4.480  0.00  0.00    -0.435 OA
ATOM     12  H   UNL     1       2.050  -2.367  -5.764  0.00  0.00    +0.169 HD
ENDROOT
BRANCH   1  16
ATOM     13  C   UNL     1      -0.283  -0.200  -2.310  0.00  0.00    -0.047 A 
ATOM     14  C   UNL     1      -0.712  -0.382  -3.614  0.00  0.00    +0.005 A 
ATOM     15  C   UNL     1       0.157  -0.872  -4.566  0.00  0.00    +0.026 A 
ATOM     16  C   UNL     1       1.472  -1.185  -4.213  0.00  0.00    +0.042 A 
ATOM     17  C   UNL     1       1.897  -0.998  -2.896  0.00  0.00    +0.026 A 
ATOM     18  C   UNL     1       1.019  -0.502  -1.955  0.00  0.00    +0.005 A 
BRANCH  13  20
ATOM     19  C   UNL     1      -1.159   1.864  -1.251  0.00  0.00    +0.009 C 
ATOM     20  C   UNL     1      -1.238   0.336  -1.275  0.00  0.00    +0.032 C 
ENDBRANCH  13  20
ENDBRANCH   1  16
BRANCH   3  21
ATOM     21  C   UNL     1       4.477  -3.217  -6.529  0.00  0.00    +0.253 C 
ATOM     22  O   UNL     1       5.235  -3.658  -7.372  0.00  0.00    -0.270 OA
ATOM     23  N   UNL     1       3.562  -4.025  -5.958  0.00  0.00    -0.280 N 
ATOM     24  H   UNL     1       2.919  -3.661  -5.329  0.00  0.00    +0.155 HD
BRANCH  23  25
ATOM     25  C   UNL     1       3.538  -5.383  -6.272  0.00  0.00    +0.055 A 
ATOM     26  C   UNL     1       4.323  -5.923  -7.271  0.00  0.00    +0.032 A 
ATOM     27  C   UNL     1       4.248  -7.251  -7.521  0.00  0.00    +0.048 A 
ATOM     28  S   UNL     1       3.117  -7.822  -6.418  0.00  0.00    -0.088 S 
ATOM     29  C   UNL     1       2.723  -6.291  -5.593  0.00  0.00    +0.117 A 
BRANCH  29  30
ATOM     30  C   UNL     1       1.820  -6.057  -4.531  0.00  0.00    +0.347 C 
ATOM     31  O   UNL     1       1.677  -4.932  -4.090  0.00  0.00    -0.244 OA
BRANCH  30  32
ATOM     32  O   UNL     1       1.116  -7.082  -4.005  0.00  0.00    -0.464 OA
ATOM     33  C   UNL     1       0.222  -6.774  -2.934  0.00  0.00    +0.280 C 
ENDBRANCH  30  32
ENDBRANCH  29  30
ENDBRANCH  23  25
ENDBRANCH   3  21
BRANCH   9  34
ATOM     34  O   UNL     1       3.915   2.501  -3.628  0.00  0.00    -0.491 OA
ATOM     35  C   UNL     1       3.958   3.877  -3.246  0.00  0.00    +0.277 C 
ENDBRANCH   9  34
TORSDOF 7
