REMARK  Name = ZINC26972282
REMARK  12 active torsions:
REMARK  status: ('A' for Active; 'I' for Inactive)
REMARK    1  A    between atoms: C_1  and  C_2
REMARK    2  A    between atoms: C_3  and  C_34
REMARK    3  A    between atoms: C_4  and  O_24
REMARK    4  A    between atoms: C_5  and  C_23
REMARK    5  A    between atoms: C_9  and  C_12
REMARK    6  A    between atoms: C_12  and  C_13
REMARK    7  A    between atoms: C_13  and  N_14
REMARK    8  A    between atoms: C_19  and  O_22
REMARK    9  A    between atoms: C_20  and  C_21
REMARK   10  A    between atoms: O_24  and  C_25
REMARK   11  A    between atoms: C_25  and  C_27
REMARK   12  A    between atoms: C_30  and  N_33
REMARK                            x       y       z     vdW  Elec       q    Type
REMARK                         _______ _______ _______ _____ _____    ______ ____
ROOT
ATOM      1  C   UNL     1      -1.041   6.321  -2.469  0.00  0.00    +0.048 C 
ATOM      2  C   UNL     1      -1.064   5.567  -1.165  0.00  0.00    -0.002 A 
ATOM      3  C   UNL     1      -1.120   4.189  -1.169  0.00  0.00    -0.001 A 
ATOM      4  C   UNL     1      -1.141   3.486   0.026  0.00  0.00    +0.138 A 
ATOM      5  C   UNL     1      -1.114   4.177   1.230  0.00  0.00    -0.001 A 
ATOM      6  C   UNL     1      -1.055   5.553   1.232  0.00  0.00    +0.004 A 
ATOM      7  C   UNL     1      -1.028   6.266   0.040  0.00  0.00    +0.128 A 
ATOM      8  O   UNL     1      -0.955   7.606   0.269  0.00  0.00    -0.488 OA
ATOM      9  C   UNL     1      -1.373   7.879   1.617  0.00  0.00    +0.180 C 
ATOM     10  C   UNL     1      -1.020   6.568   2.358  0.00  0.00    +0.083 C 
ATOM     11  C   UNL     1      -1.143   3.422   2.534  0.00  0.00    +0.048 C 
ATOM     12  C   UNL     1      -1.158   3.444  -2.478  0.00  0.00    +0.048 C 
ENDROOT
BRANCH   9  13
ATOM     13  C   UNL     1      -0.590   9.058   2.199  0.00  0.00    +0.066 C 
BRANCH  13  14
ATOM     14  C   UNL     1      -1.051  10.356   1.533  0.00  0.00    +0.125 C 
BRANCH  14  15
ATOM     15  N   UNL     1      -0.302  11.484   2.090  0.00  0.00    -0.347 N 
ATOM     16  C   UNL     1      -0.836  12.194   3.112  0.00  0.00    +0.090 A 
ATOM     17  C   UNL     1      -0.171  13.241   3.650  0.00  0.00    +0.072 A 
ATOM     18  C   UNL     1       1.097  13.594   3.134  0.00  0.00    +0.223 A 
ATOM     19  O   UNL     1       1.720  14.536   3.602  0.00  0.00    -0.284 OA
ATOM     20  C   UNL     1       1.631  12.833   2.064  0.00  0.00    +0.183 A 
ATOM     21  C   UNL     1       0.917  11.792   1.573  0.00  0.00    +0.061 A 
ATOM     22  C   UNL     1       1.476  10.972   0.439  0.00  0.00    +0.067 C 
BRANCH  20  23
ATOM     23  O   UNL     1       2.849  13.141   1.540  0.00  0.00    -0.502 OA
ATOM     24  H   UNL     1       3.256  12.546   0.709  0.00  0.00    +0.292 HD
ENDBRANCH  20  23
ENDBRANCH  14  15
ENDBRANCH  13  14
ENDBRANCH   9  13
BRANCH   4  25
ATOM     25  O   UNL     1      -1.194   2.127   0.019  0.00  0.00    -0.422 OA
BRANCH  25  26
ATOM     26  C   UNL     1      -0.018   1.470   0.010  0.00  0.00    +0.344 C 
ATOM     27  O   UNL     1       1.026   2.091   0.004  0.00  0.00    -0.245 OA
BRANCH  26  28
ATOM     28  C   UNL     1       0.002  -0.004   0.002  0.00  0.00    +0.060 A 
ATOM     29  C   UNL     1      -1.198  -0.721   0.015  0.00  0.00    +0.017 A 
ATOM     30  C   UNL     1      -1.176  -2.092   0.003  0.00  0.00    +0.023 A 
ATOM     31  C   UNL     1       0.040  -2.770  -0.012  0.00  0.00    +0.025 A 
ATOM     32  C   UNL     1       1.237  -2.059  -0.020  0.00  0.00    +0.023 A 
ATOM     33  C   UNL     1       1.222  -0.688  -0.013  0.00  0.00    +0.017 A 
BRANCH  31  34
ATOM     34  N   UNL     1       0.059  -4.160  -0.019  0.00  0.00    -0.358 N 
ATOM     35  H   UNL     1       1.018  -4.697  -0.031  0.00  0.00    +0.142 HD
ATOM     36  H   UNL     1      -0.886  -4.723  -0.012  0.00  0.00    +0.142 HD
ENDBRANCH  31  34
ENDBRANCH  26  28
ENDBRANCH  25  26
ENDBRANCH   4  25
TORSDOF 8
