REMARK  Name = ZINC38596797
REMARK  11 active torsions:
REMARK  status: ('A' for Active; 'I' for Inactive)
REMARK    1  A    between atoms: C_1  and  C_2
REMARK    2  A    between atoms: C_2  and  C_4
REMARK    3  A    between atoms: C_2  and  N_24
REMARK    4  A    between atoms: C_4  and  C_6
REMARK    5  A    between atoms: C_4  and  N_11
REMARK    6  A    between atoms: N_14  and  C_17
REMARK    7  A    between atoms: C_17  and  C_18
REMARK    8  A    between atoms: C_25  and  C_27
REMARK    9  A    between atoms: N_29  and  C_30
REMARK   10  A    between atoms: C_30  and  C_31
REMARK   11  A    between atoms: C_31  and  C_32
REMARK                            x       y       z     vdW  Elec       q    Type
REMARK                         _______ _______ _______ _____ _____    ______ ____
ROOT
ATOM      1  C   UNL     1       0.778  -0.387  -1.260  0.00  0.00    +0.113 C 
ENDROOT
BRANCH   1   2
ATOM      2  N   UNL     1       0.125   0.206  -2.435  0.00  0.00    -0.297 NA
ATOM      3  C   UNL     1       0.113   1.673  -2.347  0.00  0.00    +0.066 C 
ATOM      4  C   UNL     1      -0.627   2.247  -3.557  0.00  0.00    -0.063 C 
ATOM      5  N   UNL     1       0.046   1.819  -4.791  0.00  0.00    +0.384 N 
ATOM      6  C   UNL     1       0.028   0.353  -4.876  0.00  0.00    -0.063 C 
ATOM      7  C   UNL     1       0.773  -0.237  -3.677  0.00  0.00    +0.066 C 
ATOM      8  H   UNL     1       1.001   2.144  -4.783  0.00  0.00    -0.081 HD
BRANCH   5   9
ATOM      9  C   UNL     1      -0.654   2.386  -5.951  0.00  0.00    -0.043 C 
BRANCH   9  10
ATOM     10  C   UNL     1       0.105   2.049  -7.209  0.00  0.00    -0.064 A 
ATOM     11  C   UNL     1       1.090   2.902  -7.671  0.00  0.00    +0.002 A 
ATOM     12  C   UNL     1       1.786   2.593  -8.825  0.00  0.00    +0.000 A 
ATOM     13  C   UNL     1       1.498   1.431  -9.516  0.00  0.00    +0.000 A 
ATOM     14  C   UNL     1       0.514   0.578  -9.053  0.00  0.00    +0.000 A 
ATOM     15  C   UNL     1      -0.179   0.885  -7.897  0.00  0.00    +0.002 A 
ENDBRANCH   9  10
ENDBRANCH   5   9
ENDBRANCH   1   2
BRANCH   1  16
ATOM     16  C   UNL     1       0.746  -1.889  -1.372  0.00  0.00    +0.009 A 
ATOM     17  C   UNL     1       1.707  -2.790  -1.049  0.00  0.00    +0.013 A 
ATOM     18  C   UNL     1       1.454  -4.136  -1.238  0.00  0.00    +0.008 A 
ATOM     19  C   UNL     1       0.254  -4.515  -1.740  0.00  0.00    +0.045 A 
ATOM     20  S   UNL     1      -0.569  -2.946  -1.957  0.00  0.00    -0.100 S 
ENDBRANCH   1  16
BRANCH   1  22
ATOM     21  C   UNL     1       0.695  -0.601   1.228  0.00  0.00    +0.030 C 
ATOM     22  C   UNL     1       0.038   0.046   0.007  0.00  0.00    +0.092 C 
BRANCH  22  23
ATOM     23  N   UNL     1      -1.362  -0.379  -0.076  0.00  0.00    -0.303 N 
ATOM     24  C   UNL     1      -2.308   0.280   0.622  0.00  0.00    +0.299 C 
ATOM     25  O   UNL     1      -2.001   1.225   1.319  0.00  0.00    -0.265 OA
ATOM     26  H   UNL     1      -1.608  -1.134  -0.633  0.00  0.00    +0.149 HD
BRANCH  24  27
ATOM     27  C   UNL     1      -3.736  -0.153   0.537  0.00  0.00    +0.299 C 
ATOM     28  O   UNL     1      -4.044  -1.097  -0.160  0.00  0.00    -0.265 OA
ATOM     29  N   UNL     1      -4.683   0.506   1.235  0.00  0.00    -0.307 N 
ATOM     30  H   UNL     1      -4.437   1.261   1.792  0.00  0.00    +0.149 HD
BRANCH  29  31
ATOM     31  C   UNL     1      -6.083   0.082   1.151  0.00  0.00    +0.109 C 
BRANCH  31  32
ATOM     32  C   UNL     1      -6.944   0.989   2.032  0.00  0.00    +0.049 C 
BRANCH  32  33
ATOM     33  C   UNL     1      -8.384   0.552   1.946  0.00  0.00    -0.072 C 
ATOM     34  C   UNL     1      -8.830  -0.249   2.859  0.00  0.00    -0.028 C 
ATOM     35  C   UNL     1     -10.234  -0.777   2.901  0.00  0.00    +0.027 C 
ATOM     36  C   UNL     1     -11.143   0.070   2.007  0.00  0.00    +0.004 C 
ATOM     37  C   UNL     1     -10.470   0.222   0.637  0.00  0.00    +0.005 C 
ATOM     38  C   UNL     1      -9.212   1.079   0.811  0.00  0.00    +0.030 C 
ENDBRANCH  32  33
ENDBRANCH  31  32
ENDBRANCH  29  31
ENDBRANCH  24  27
ENDBRANCH  22  23
ENDBRANCH   1  22
TORSDOF 10
