REMARK  Name = ZINC66791993
REMARK  7 active torsions:
REMARK  status: ('A' for Active; 'I' for Inactive)
REMARK    1  A    between atoms: C_1  and  C_2
REMARK    2  A    between atoms: C_2  and  C_3
REMARK    3  A    between atoms: C_2  and  C_4
REMARK    4  A    between atoms: C_7  and  C_10
REMARK    5  A    between atoms: N_12  and  C_16
REMARK    6  A    between atoms: C_16  and  N_17
REMARK    7  A    between atoms: C_20  and  C_23
REMARK                            x       y       z     vdW  Elec       q    Type
REMARK                         _______ _______ _______ _____ _____    ______ ____
ROOT
ATOM      1  C   UNL     1      -5.397  -1.996   0.043  0.00  0.00    +0.247 A 
ATOM      2  N   UNL     1      -5.928  -2.759  -0.869  0.00  0.00    -0.131 NA
ATOM      3  N   UNL     1      -7.253  -3.020  -0.490  0.00  0.00    -0.240 N 
ATOM      4  C   UNL     1      -7.460  -2.376   0.678  0.00  0.00    +0.265 A 
ATOM      5  S   UNL     1      -8.914  -2.362   1.582  0.00  0.00    +0.011 S 
ATOM      6  O   UNL     1      -6.315  -1.753   1.004  0.00  0.00    -0.412 OA
ENDROOT
BRANCH   1  10
ATOM      7  C   UNL     1      -1.412  -0.526   0.013  0.00  0.00    -0.045 A 
ATOM      8  C   UNL     1      -2.257  -0.202   1.059  0.00  0.00    +0.004 A 
ATOM      9  C   UNL     1      -3.553  -0.676   1.075  0.00  0.00    +0.013 A 
ATOM     10  C   UNL     1      -4.010  -1.484   0.032  0.00  0.00    +0.038 A 
ATOM     11  C   UNL     1      -3.152  -1.807  -1.020  0.00  0.00    +0.013 A 
ATOM     12  C   UNL     1      -1.860  -1.321  -1.026  0.00  0.00    +0.004 A 
BRANCH   7  14
ATOM     13  C   UNL     1      -0.019   1.526   0.010  0.00  0.00    +0.012 C 
ATOM     14  C   UNL     1       0.002  -0.004   0.002  0.00  0.00    +0.013 C 
ATOM     15  C   UNL     1       0.742  -0.511   1.242  0.00  0.00    +0.012 C 
ENDBRANCH   7  14
ENDBRANCH   1  10
BRANCH   3  16
ATOM     16  C   UNL     1      -8.225  -3.836  -1.222  0.00  0.00    +0.073 C 
BRANCH  16  17
ATOM     17  N   UNL     1      -7.899  -5.258  -1.050  0.00  0.00    +0.393 N 
ATOM     18  C   UNL     1      -8.056  -5.627   0.362  0.00  0.00    -0.075 C 
ATOM     19  C   UNL     1      -7.640  -7.086   0.561  0.00  0.00    -0.006 C 
ATOM     20  C   UNL     1      -8.527  -7.986  -0.304  0.00  0.00    +0.071 C 
ATOM     21  C   UNL     1      -8.413  -7.544  -1.766  0.00  0.00    -0.006 C 
ATOM     22  C   UNL     1      -8.800  -6.068  -1.879  0.00  0.00    -0.075 C 
ATOM     23  H   UNL     1      -6.945  -5.420  -1.335  0.00  0.00    -0.079 HD
BRANCH  20  24
ATOM     24  C   UNL     1      -8.072  -9.417  -0.173  0.00  0.00    +0.213 C 
ATOM     25  O   UNL     1      -7.132  -9.691   0.542  0.00  0.00    -0.276 OA
ATOM     26  N   UNL     1      -8.711 -10.391  -0.851  0.00  0.00    -0.329 N 
ATOM     27  H   UNL     1      -9.463 -10.172  -1.422  0.00  0.00    +0.145 HD
ATOM     28  H   UNL     1      -8.419 -11.312  -0.766  0.00  0.00    +0.145 HD
ENDBRANCH  20  24
ENDBRANCH  16  17
ENDBRANCH   3  16
TORSDOF 5
