REMARK  Name = ZINC21083195
REMARK  5 active torsions:
REMARK  status: ('A' for Active; 'I' for Inactive)
REMARK    1  A    between atoms: C_1  and  C_2
REMARK    2  A    between atoms: C_2  and  C_16
REMARK    3  A    between atoms: N_3  and  N_4
REMARK    4  A    between atoms: C_7  and  S_10
REMARK    5  A    between atoms: S_10  and  C_11
REMARK                            x       y       z     vdW  Elec       q    Type
REMARK                         _______ _______ _______ _____ _____    ______ ____
ROOT
ATOM      1  N   UNL     1      -1.563   4.962   0.044  0.00  0.00    -0.204 N 
ATOM      2  C   UNL     1      -0.733   3.852   0.030  0.00  0.00    +0.255 A 
ATOM      3  N   UNL     1      -1.138   2.546   0.021  0.00  0.00    -0.187 NA
ATOM      4  C   UNL     1      -0.022   1.758   0.012  0.00  0.00    +0.186 A 
ATOM      5  N   UNL     1       1.029   2.543   0.006  0.00  0.00    -0.252 N 
ATOM      6  N   UNL     1       0.578   3.869   0.017  0.00  0.00    -0.134 NA
ATOM      7  H   UNL     1      -2.656   4.832   0.053  0.00  0.00    +0.178 HD
ATOM      8  H   UNL     1       2.040   2.109  -0.006  0.00  0.00    +0.191 HD
ENDROOT
BRANCH   1  11
ATOM      9  C   UNL     1      -3.286   7.114   0.072  0.00  0.00    +0.068 C 
ATOM     10  C   UNL     1      -1.790   7.292   0.059  0.00  0.00    +0.070 C 
ATOM     11  N   UNL     1      -1.011   6.250   0.046  0.00  0.00    -0.184 NA
BRANCH  10  12
ATOM     12  C   UNL     1      -1.212   8.640   0.061  0.00  0.00    +0.035 A 
ATOM     13  C   UNL     1       0.120   9.018   0.051  0.00  0.00    +0.017 A 
ATOM     14  C   UNL     1       0.417  10.362   0.056  0.00  0.00    +0.008 A 
ATOM     15  C   UNL     1      -0.595  11.267   0.070  0.00  0.00    +0.046 A 
ATOM     16  S   UNL     1      -2.041  10.221   0.070  0.00  0.00    -0.095 S 
ENDBRANCH  10  12
ENDBRANCH   1  11
BRANCH   4  17
ATOM     17  S   UNL     1       0.002  -0.004   0.002  0.00  0.00    -0.083 S 
BRANCH  17  18
ATOM     18  C   UNL     1       1.768  -0.419  -0.016  0.00  0.00    +0.054 C 
ATOM     19  C   UNL     1       2.399   0.017  -1.355  0.00  0.00    +0.014 C 
ATOM     20  C   UNL     1       3.422  -1.103  -1.673  0.00  0.00    +0.001 C 
ATOM     21  C   UNL     1       2.689  -2.382  -1.200  0.00  0.00    +0.001 C 
ATOM     22  C   UNL     1       1.952  -1.943   0.082  0.00  0.00    +0.014 C 
ENDBRANCH  17  18
ENDBRANCH   4  17
TORSDOF 4
