REMARK  Name = ZINC20903407
REMARK  8 active torsions:
REMARK  status: ('A' for Active; 'I' for Inactive)
REMARK    1  A    between atoms: C_1  and  C_2
REMARK    2  A    between atoms: N_8  and  C_9
REMARK    3  A    between atoms: C_9  and  C_10
REMARK    4  A    between atoms: C_10  and  C_11
REMARK    5  A    between atoms: C_11  and  N_12
REMARK    6  A    between atoms: C_25  and  C_26
REMARK    7  A    between atoms: C_25  and  C_27
REMARK    8  A    between atoms: N_29  and  C_30
REMARK                            x       y       z     vdW  Elec       q    Type
REMARK                         _______ _______ _______ _____ _____    ______ ____
ROOT
ATOM      1  N   UNL     1      -1.528   7.700  -0.185  0.00  0.00    -0.281 N 
ATOM      2  C   UNL     1      -2.352   6.646   0.020  0.00  0.00    +0.264 C 
ATOM      3  O   UNL     1      -3.549   6.791   0.183  0.00  0.00    -0.268 OA
ATOM      4  C   UNL     1      -1.721   5.312   0.035  0.00  0.00    +0.106 A 
ATOM      5  C   UNL     1      -2.282   4.089   0.034  0.00  0.00    +0.041 A 
ATOM      6  C   UNL     1      -1.230   3.136   0.029  0.00  0.00    +0.001 A 
ATOM      7  C   UNL     1      -1.206   1.736   0.017  0.00  0.00    +0.010 A 
ATOM      8  C   UNL     1      -0.013   1.076   0.008  0.00  0.00    +0.001 A 
ATOM      9  C   UNL     1       1.185   1.781   0.000  0.00  0.00    +0.002 A 
ATOM     10  C   UNL     1       1.189   3.157   0.010  0.00  0.00    +0.026 A 
ATOM     11  C   UNL     1      -0.016   3.857   0.026  0.00  0.00    +0.050 A 
ATOM     12  N   UNL     1      -0.334   5.185   0.044  0.00  0.00    -0.334 N 
ATOM     13  C   UNL     1       0.546   6.357   0.079  0.00  0.00    +0.157 C 
ATOM     14  C   UNL     1      -0.146   7.527  -0.619  0.00  0.00    +0.128 C 
ATOM     15  C   UNL     1       0.628   8.811  -0.317  0.00  0.00    +0.043 C 
ENDROOT
BRANCH  14  16
ATOM     16  C   UNL     1      -0.130   7.286  -2.106  0.00  0.00    +0.238 C 
ATOM     17  O   UNL     1       0.749   7.769  -2.788  0.00  0.00    -0.273 OA
ATOM     18  N   UNL     1      -1.091   6.534  -2.678  0.00  0.00    -0.311 N 
ATOM     19  H   UNL     1      -1.888   6.096  -2.059  0.00  0.00    +0.149 HD
BRANCH  18  20
ATOM     20  C   UNL     1      -1.074   6.300  -4.124  0.00  0.00    +0.073 C 
ATOM     21  C   UNL     1      -1.765   7.464  -4.837  0.00  0.00    +0.022 C 
ATOM     22  C   UNL     1      -1.410   7.434  -6.325  0.00  0.00    +0.002 C 
ATOM     23  C   UNL     1       0.086   7.161  -6.488  0.00  0.00    +0.000 C 
ATOM     24  C   UNL     1       0.287   5.788  -7.132  0.00  0.00    +0.000 C 
ATOM     25  C   UNL     1       0.038   4.695  -6.090  0.00  0.00    +0.000 C 
ATOM     26  C   UNL     1      -1.467   4.545  -5.858  0.00  0.00    +0.002 C 
ATOM     27  C   UNL     1      -1.814   4.998  -4.439  0.00  0.00    +0.022 C 
ENDBRANCH  18  20
ENDBRANCH  14  16
BRANCH   1  28
ATOM     28  C   UNL     1      -2.039   9.055   0.035  0.00  0.00    +0.107 C 
BRANCH  28  29
ATOM     29  C   UNL     1      -2.641   9.591  -1.265  0.00  0.00    +0.000 C 
BRANCH  29  30
ATOM     30  C   UNL     1      -3.175  11.006  -1.035  0.00  0.00    -0.077 C 
BRANCH  30  37
ATOM     31  C   UNL     1      -1.515  12.294  -2.907  0.00  0.00    -0.013 C 
ATOM     32  C   UNL     1      -2.757  11.524  -3.362  0.00  0.00    -0.072 C 
ATOM     33  C   UNL     1      -3.348  12.198  -4.602  0.00  0.00    -0.016 C 
ATOM     34  C   UNL     1      -4.602  11.437  -5.042  0.00  0.00    -0.003 C 
ATOM     35  C   UNL     1      -5.603  11.406  -3.885  0.00  0.00    -0.019 C 
ATOM     36  C   UNL     1      -4.946  10.755  -2.666  0.00  0.00    -0.078 C 
ATOM     37  N   UNL     1      -3.753  11.520  -2.284  0.00  0.00    +0.381 N 
ATOM     38  H   UNL     1      -4.064  12.561  -2.110  0.00  0.00    -0.081 HD
ENDBRANCH  30  37
ENDBRANCH  29  30
ENDBRANCH  28  29
ENDBRANCH   1  28
TORSDOF 6
