REMARK  Name = ZINC23472934
REMARK  7 active torsions:
REMARK  status: ('A' for Active; 'I' for Inactive)
REMARK    1  A    between atoms: C_8  and  C_10
REMARK    2  A    between atoms: C_13  and  C_16
REMARK    3  A    between atoms: C_21  and  C_23
REMARK    4  A    between atoms: C_23  and  S_24
REMARK    5  A    between atoms: S_24  and  C_25
REMARK    6  A    between atoms: C_28  and  C_31
REMARK    7  A    between atoms: N_29  and  N_30
REMARK                            x       y       z     vdW  Elec       q    Type
REMARK                         _______ _______ _______ _____ _____    ______ ____
ROOT
ATOM      1  C   UNL     1       4.241   2.582   1.203  0.00  0.00    +0.104 C 
ATOM      2  N   UNL     1       4.278   2.962  -0.030  0.00  0.00    -0.178 NA
ATOM      3  N   UNL     1       3.307   2.370  -0.836  0.00  0.00    -0.181 N 
ATOM      4  C   UNL     1       2.499   1.455  -0.015  0.00  0.00    +0.173 C 
ATOM      5  C   UNL     1       3.119   1.580   1.391  0.00  0.00    +0.093 C 
ATOM      6  C   UNL     1       3.137   2.598  -2.154  0.00  0.00    +0.246 C 
ATOM      7  O   UNL     1       2.255   2.025  -2.759  0.00  0.00    -0.273 OA
ENDROOT
BRANCH   1  15
ATOM      8  C   UNL     1       8.189   4.790   5.204  0.00  0.00    +0.001 A 
ATOM      9  C   UNL     1       7.490   3.956   6.065  0.00  0.00    +0.004 A 
ATOM     10  C   UNL     1       6.436   3.194   5.607  0.00  0.00    +0.047 A 
ATOM     11  C   UNL     1       6.066   3.259   4.270  0.00  0.00    +0.136 A 
ATOM     12  C   UNL     1       6.778   4.106   3.401  0.00  0.00    +0.021 A 
ATOM     13  C   UNL     1       7.843   4.870   3.884  0.00  0.00    +0.011 A 
ATOM     14  C   UNL     1       6.154   3.942   2.088  0.00  0.00    +0.059 A 
ATOM     15  C   UNL     1       5.145   3.048   2.260  0.00  0.00    +0.152 A 
ATOM     16  O   UNL     1       5.104   2.649   3.547  0.00  0.00    -0.454 OA
ENDBRANCH   1  15
BRANCH   4  17
ATOM     17  C   UNL     1       1.057   1.892   0.002  0.00  0.00    +0.128 A 
ATOM     18  C   UNL     1      -0.013   1.076   0.008  0.00  0.00    +0.046 A 
ATOM     19  C   UNL     1      -1.159   1.903   0.017  0.00  0.00    +0.041 A 
ATOM     20  C   UNL     1      -0.722   3.175   0.026  0.00  0.00    +0.195 A 
ATOM     21  O   UNL     1       0.621   3.162   0.013  0.00  0.00    -0.466 OA
ENDBRANCH   4  17
BRANCH   6  22
ATOM     22  C   UNL     1       4.040   3.565  -2.874  0.00  0.00    +0.175 C 
BRANCH  22  23
ATOM     23  S   UNL     1       3.562   3.654  -4.617  0.00  0.00    -0.075 S 
BRANCH  23  24
ATOM     24  C   UNL     1       4.747   4.819  -5.201  0.00  0.00    +0.209 A 
ATOM     25  N   UNL     1       5.677   5.410  -4.485  0.00  0.00    -0.121 NA
ATOM     26  N   UNL     1       6.371   6.199  -5.225  0.00  0.00    -0.126 NA
ATOM     27  C   UNL     1       5.921   6.168  -6.460  0.00  0.00    +0.188 A 
ATOM     28  N   UNL     1       4.867   5.282  -6.482  0.00  0.00    -0.223 N 
BRANCH  27  29
ATOM     29  C   UNL     1       6.446   6.933  -7.602  0.00  0.00    +0.058 A 
ATOM     30  C   UNL     1       7.284   8.019  -7.603  0.00  0.00    +0.019 A 
ATOM     31  C   UNL     1       7.646   8.573  -8.811  0.00  0.00    +0.008 A 
ATOM     32  C   UNL     1       7.156   8.037  -9.959  0.00  0.00    +0.046 A 
ATOM     33  S   UNL     1       6.150   6.696  -9.347  0.00  0.00    -0.093 S 
ENDBRANCH  27  29
BRANCH  28  34
ATOM     34  N   UNL     1       4.100   4.938  -7.559  0.00  0.00    -0.295 N 
ATOM     35  H   UNL     1       4.301   5.386  -8.543  0.00  0.00    +0.163 HD
ATOM     36  H   UNL     1       3.281   4.213  -7.442  0.00  0.00    +0.163 HD
ENDBRANCH  28  34
ENDBRANCH  23  24
ENDBRANCH  22  23
ENDBRANCH   6  22
TORSDOF 7
