REMARK  Name = ZINC39949021
REMARK  10 active torsions:
REMARK  status: ('A' for Active; 'I' for Inactive)
REMARK    1  A    between atoms: C_1  and  C_2
REMARK    2  A    between atoms: C_5  and  S_24
REMARK    3  A    between atoms: C_7  and  N_8
REMARK    4  A    between atoms: N_8  and  C_9
REMARK    5  A    between atoms: C_9  and  N_11
REMARK    6  A    between atoms: N_11  and  N_12
REMARK    7  A    between atoms: C_13  and  C_14
REMARK    8  A    between atoms: S_24  and  N_27
REMARK    9  A    between atoms: N_27  and  C_28
REMARK   10  A    between atoms: N_27  and  C_29
REMARK                            x       y       z     vdW  Elec       q    Type
REMARK                         _______ _______ _______ _____ _____    ______ ____
ROOT
ATOM      1  C   UNL     1      -0.056  -0.695   3.578  0.00  0.00    +0.154 C 
ATOM      2  S   UNL     1      -0.034  -2.407   3.571  0.00  0.00    -0.017 S 
ENDROOT
BRANCH   1   3
ATOM      3  N   UNL     1       0.026  -0.015   2.417  0.00  0.00    -0.295 N 
ATOM      4  H   UNL     1       0.076   0.954   2.424  0.00  0.00    +0.154 HD
BRANCH   3  11
ATOM      5  C   UNL     1      -1.705   0.883   0.344  0.00  0.00    +0.045 C 
ATOM      6  C   UNL     1      -0.791  -0.302   0.162  0.00  0.00    -0.029 A 
ATOM      7  C   UNL     1      -0.773  -0.983  -1.039  0.00  0.00    +0.007 A 
ATOM      8  C   UNL     1       0.065  -2.070  -1.206  0.00  0.00    +0.029 A 
ATOM      9  C   UNL     1       0.887  -2.479  -0.172  0.00  0.00    +0.107 A 
ATOM     10  C   UNL     1       0.873  -1.803   1.032  0.00  0.00    +0.052 A 
ATOM     11  C   UNL     1       0.037  -0.706   1.201  0.00  0.00    +0.037 A 
BRANCH   9  12
ATOM     12  S   UNL     1       1.952  -3.866  -0.390  0.00  0.00    +0.060 S 
ATOM     13  O   UNL     1       2.221  -4.380   0.907  0.00  0.00    -0.153 OA
ATOM     14  O   UNL     1       1.380  -4.659  -1.421  0.00  0.00    -0.153 OA
BRANCH  12  15
ATOM     15  N   UNL     1       3.390  -3.291  -0.978  0.00  0.00    -0.183 NA
ATOM     16  C   UNL     1       4.454  -2.894  -0.052  0.00  0.00    +0.131 C 
ATOM     17  C   UNL     1       3.598  -3.179  -2.424  0.00  0.00    +0.131 C 
ENDBRANCH  12  15
ENDBRANCH   9  12
ENDBRANCH   3  11
ENDBRANCH   1   3
BRANCH   1  18
ATOM     18  N   UNL     1      -0.155  -0.027   4.744  0.00  0.00    -0.218 N 
ATOM     19  H   UNL     1      -0.214  -0.516   5.580  0.00  0.00    +0.176 HD
BRANCH  18  20
ATOM     20  N   UNL     1      -0.173   1.374   4.750  0.00  0.00    -0.189 NA
ATOM     21  C   UNL     1      -0.270   2.023   5.884  0.00  0.00    +0.136 C 
BRANCH  21  22
ATOM     22  C   UNL     1      -0.288   3.424   5.889  0.00  0.00    +0.000 C 
ATOM     23  C   UNL     1      -0.379   4.261   7.000  0.00  0.00    +0.005 A 
ATOM     24  C   UNL     1      -0.477   4.001   8.385  0.00  0.00    +0.025 A 
ATOM     25  C   UNL     1      -0.554   5.036   9.260  0.00  0.00    +0.019 A 
ATOM     26  C   UNL     1      -0.539   6.365   8.826  0.00  0.00    +0.017 A 
ATOM     27  C   UNL     1      -0.448   6.688   7.513  0.00  0.00    +0.027 A 
ATOM     28  C   UNL     1      -0.363   5.659   6.538  0.00  0.00    +0.043 A 
ATOM     29  N   UNL     1      -0.269   5.708   5.225  0.00  0.00    -0.380 N 
ATOM     30  C   UNL     1      -0.206   4.344   4.692  0.00  0.00    +0.150 C 
ATOM     31 BR   UNL     1      -0.685   4.672  11.111  0.00  0.00    -0.050 Br
ATOM     32  H   UNL     1      -0.241   6.520   4.694  0.00  0.00    +0.160 HD
ENDBRANCH  21  22
ENDBRANCH  18  20
ENDBRANCH   1  18
TORSDOF 7
