REMARK  Name = ZINC39969620
REMARK  9 active torsions:
REMARK  status: ('A' for Active; 'I' for Inactive)
REMARK    1  A    between atoms: C_1  and  C_2
REMARK    2  A    between atoms: C_2  and  C_4
REMARK    3  A    between atoms: C_2  and  N_27
REMARK    4  A    between atoms: C_8  and  S_13
REMARK    5  A    between atoms: N_9  and  C_10
REMARK    6  A    between atoms: C_10  and  C_11
REMARK    7  A    between atoms: S_13  and  C_14
REMARK    8  A    between atoms: C_14  and  C_15
REMARK    9  A    between atoms: C_28  and  C_30
REMARK                            x       y       z     vdW  Elec       q    Type
REMARK                         _______ _______ _______ _____ _____    ______ ____
ROOT
ATOM      1  C   UNL     1      -1.433  -0.534   0.013  0.00  0.00    +0.197 C 
ATOM      2  N   UNL     1      -2.204   0.085   1.105  0.00  0.00    -0.245 N 
ATOM      3  N   UNL     1      -3.255   0.782   0.495  0.00  0.00    -0.163 NA
ATOM      4  C   UNL     1      -3.216   0.665  -0.790  0.00  0.00    +0.176 C 
ATOM      5  N   UNL     1      -2.146  -0.119  -1.207  0.00  0.00    -0.284 N 
ATOM      6  H   UNL     1      -2.022   0.022   2.055  0.00  0.00    +0.170 HD
ENDROOT
BRANCH   1   8
ATOM      7  C   UNL     1      -0.019   1.526   0.010  0.00  0.00    +0.031 C 
ATOM      8  C   UNL     1       0.002  -0.004   0.002  0.00  0.00    +0.110 C 
BRANCH   8   9
ATOM      9  N   UNL     1       0.711  -0.489   1.189  0.00  0.00    -0.305 N 
ATOM     10  C   UNL     1       2.054  -0.600   1.174  0.00  0.00    +0.247 C 
ATOM     11  O   UNL     1       2.677  -0.297   0.175  0.00  0.00    -0.270 OA
ATOM     12  H   UNL     1       0.213  -0.731   1.986  0.00  0.00    +0.149 HD
BRANCH  10  13
ATOM     13  C   UNL     1       2.768  -1.089   2.370  0.00  0.00    +0.072 A 
ATOM     14  C   UNL     1       2.055  -1.444   3.517  0.00  0.00    +0.016 A 
ATOM     15  C   UNL     1       2.728  -1.900   4.631  0.00  0.00    +0.001 A 
ATOM     16  C   UNL     1       4.108  -2.008   4.615  0.00  0.00    +0.003 A 
ATOM     17  C   UNL     1       4.823  -1.659   3.485  0.00  0.00    +0.039 A 
ATOM     18  C   UNL     1       4.162  -1.205   2.358  0.00  0.00    +0.135 A 
ATOM     19  F   UNL     1       4.860  -0.869   1.252  0.00  0.00    -0.205 F 
ENDBRANCH  10  13
ENDBRANCH   8   9
ENDBRANCH   1   8
BRANCH   5  20
ATOM     20  C   UNL     1      -1.796  -0.465  -2.587  0.00  0.00    +0.135 C 
BRANCH  20  21
ATOM     21  C   UNL     1      -2.492  -1.743  -2.977  0.00  0.00    -0.016 C 
ATOM     22  C   UNL     1      -3.250  -1.776  -4.045  0.00  0.00    +0.005 C 
ENDBRANCH  20  21
ENDBRANCH   5  20
BRANCH   4  23
ATOM     23  S   UNL     1      -4.380   1.408  -1.884  0.00  0.00    -0.081 S 
BRANCH  23  24
ATOM     24  C   UNL     1      -5.519   2.288  -0.780  0.00  0.00    +0.151 C 
BRANCH  24  25
ATOM     25  C   UNL     1      -6.580   2.977  -1.600  0.00  0.00    +0.121 A 
ATOM     26  N   UNL     1      -7.530   3.699  -0.949  0.00  0.00    -0.310 N 
ATOM     27  H   UNL     1      -7.510   3.757   0.019  0.00  0.00    +0.170 HD
ATOM     28  C   UNL     1      -8.504   4.337  -1.639  0.00  0.00    +0.259 A 
ATOM     29  O   UNL     1      -9.360   4.987  -1.069  0.00  0.00    -0.267 OA
ATOM     30  C   UNL     1      -8.486   4.215  -3.104  0.00  0.00    +0.065 A 
ATOM     31  C   UNL     1      -9.443   4.832  -3.907  0.00  0.00    +0.015 A 
ATOM     32  C   UNL     1      -9.380   4.684  -5.275  0.00  0.00    +0.001 A 
ATOM     33  C   UNL     1      -8.372   3.926  -5.857  0.00  0.00    +0.002 A 
ATOM     34  C   UNL     1      -7.417   3.308  -5.082  0.00  0.00    +0.028 A 
ATOM     35  C   UNL     1      -7.460   3.443  -3.693  0.00  0.00    +0.078 A 
ATOM     36  N   UNL     1      -6.536   2.856  -2.892  0.00  0.00    -0.233 NA
ENDBRANCH  24  25
ENDBRANCH  23  24
ENDBRANCH   4  23
TORSDOF 8
