REMARK  Name = ZINC64174947
REMARK  8 active torsions:
REMARK  status: ('A' for Active; 'I' for Inactive)
REMARK    1  A    between atoms: C_7  and  C_10
REMARK    2  A    between atoms: C_10  and  C_11
REMARK    3  A    between atoms: C_11  and  N_12
REMARK    4  A    between atoms: C_13  and  C_15
REMARK    5  A    between atoms: C_15  and  N_16
REMARK    6  A    between atoms: C_19  and  N_22
REMARK    7  A    between atoms: N_22  and  S_23
REMARK    8  A    between atoms: S_23  and  C_26
REMARK                            x       y       z     vdW  Elec       q    Type
REMARK                         _______ _______ _______ _____ _____    ______ ____
ROOT
ATOM      1  C   UNL     1      -2.354  -5.923  -2.583  0.00  0.00    +0.019 C 
ENDROOT
BRANCH   1   2
ATOM      2  N   UNL     1      -2.432  -6.494  -3.934  0.00  0.00    +0.385 N 
ATOM      3  C   UNL     1      -3.182  -5.582  -4.806  0.00  0.00    -0.077 C 
ATOM      4  C   UNL     1      -3.196  -6.133  -6.234  0.00  0.00    +0.002 C 
ATOM      5  C   UNL     1      -3.865  -7.511  -6.237  0.00  0.00    +0.073 C 
ATOM      6  C   UNL     1      -3.118  -8.432  -5.267  0.00  0.00    +0.002 C 
ATOM      7  C   UNL     1      -3.107  -7.796  -3.876  0.00  0.00    -0.077 C 
ATOM      8  H   UNL     1      -1.500  -6.615  -4.300  0.00  0.00    -0.081 HD
BRANCH   5   9
ATOM      9  N   UNL     1      -3.814  -8.077  -7.587  0.00  0.00    -0.191 NA
ATOM     10  H   UNL     1      -3.035  -7.928  -8.147  0.00  0.00    +0.148 HD
BRANCH   9  11
ATOM     11  S   UNL     1      -5.085  -8.971  -8.159  0.00  0.00    +0.042 S 
ATOM     12  O   UNL     1      -6.232  -8.170  -7.913  0.00  0.00    -0.157 OA
ATOM     13  O   UNL     1      -4.715  -9.320  -9.486  0.00  0.00    -0.157 OA
BRANCH  11  14
ATOM     14  C   UNL     1      -5.121 -10.452  -7.111  0.00  0.00    +0.213 C 
ATOM     15  C   UNL     1      -6.086 -11.526  -7.678  0.00  0.00    +0.066 C 
ATOM     16  C   UNL     1      -5.516 -12.897  -7.501  0.00  0.00    -0.017 C 
ATOM     17  C   UNL     1      -4.227 -13.046  -7.269  0.00  0.00    +0.038 C 
ATOM     18  S   UNL     1      -3.544 -11.398  -7.223  0.00  0.00    -0.105 S 
ENDBRANCH  11  14
ENDBRANCH   9  11
ENDBRANCH   5   9
ENDBRANCH   1   2
BRANCH   1  20
ATOM     19  N   UNL     1      -1.351  -3.944  -1.489  0.00  0.00    -0.317 N 
ATOM     20  C   UNL     1      -1.555  -4.646  -2.622  0.00  0.00    +0.196 C 
ATOM     21  O   UNL     1      -1.095  -4.250  -3.672  0.00  0.00    -0.278 OA
ATOM     22  H   UNL     1      -1.719  -4.260  -0.650  0.00  0.00    +0.149 HD
BRANCH  19  23
ATOM     23  C   UNL     1      -0.574  -2.702  -1.527  0.00  0.00    +0.108 C 
BRANCH  23  24
ATOM     24  C   UNL     1      -0.493  -2.108  -0.120  0.00  0.00    +0.052 C 
BRANCH  24  31
ATOM     25  C   UNL     1      -1.710   2.301  -0.489  0.00  0.00    +0.001 A 
ATOM     26  C   UNL     1      -0.623   3.186  -0.486  0.00  0.00    +0.002 A 
ATOM     27  C   UNL     1       0.657   2.769  -0.382  0.00  0.00    +0.026 A 
ATOM     28  C   UNL     1       0.954   1.383  -0.271  0.00  0.00    +0.043 A 
ATOM     29  N   UNL     1       2.091   0.740  -0.161  0.00  0.00    -0.380 N 
ATOM     30  C   UNL     1       1.810  -0.698  -0.080  0.00  0.00    +0.144 C 
ATOM     31  C   UNL     1       0.306  -0.831  -0.159  0.00  0.00    -0.040 C 
ATOM     32  C   UNL     1      -0.177   0.427  -0.272  0.00  0.00    -0.001 A 
ATOM     33  C   UNL     1      -1.538   0.964  -0.388  0.00  0.00    +0.010 A 
ATOM     34  H   UNL     1       2.972   1.147  -0.138  0.00  0.00    +0.160 HD
ENDBRANCH  24  31
ENDBRANCH  23  24
ENDBRANCH  19  23
ENDBRANCH   1  20
TORSDOF 8
