REMARK  Name = ZINC13646016
REMARK  13 active torsions:
REMARK  status: ('A' for Active; 'I' for Inactive)
REMARK    1  A    between atoms: C_1  and  C_2
REMARK    2  A    between atoms: C_2  and  C_3
REMARK    3  A    between atoms: C_3  and  C_4
REMARK    4  A    between atoms: C_4  and  C_5
REMARK    5  A    between atoms: C_5  and  C_7
REMARK    6  A    between atoms: C_5  and  C_9
REMARK    7  A    between atoms: C_7  and  C_8
REMARK    8  A    between atoms: C_9  and  N_10
REMARK    9  A    between atoms: C_14  and  C_15
REMARK   10  A    between atoms: C_16  and  N_27
REMARK   11  A    between atoms: C_19  and  C_26
REMARK   12  A    between atoms: C_29  and  C_36
REMARK   13  A    between atoms: C_32  and  C_35
REMARK                            x       y       z     vdW  Elec       q    Type
REMARK                         _______ _______ _______ _____ _____    ______ ____
ROOT
ATOM      1  C   UNL     1      -6.421  -5.171   3.308  0.00  0.00    +0.081 A 
ATOM      2  C   UNL     1      -7.060  -5.666   4.469  0.00  0.00    +0.136 A 
ATOM      3  N   UNL     1      -6.463  -5.543   5.646  0.00  0.00    -0.213 NA
ATOM      4  C   UNL     1      -5.269  -4.963   5.768  0.00  0.00    +0.145 A 
ATOM      5  C   UNL     1      -4.685  -4.861   7.043  0.00  0.00    -0.007 A 
ATOM      6  C   UNL     1      -3.464  -4.269   7.178  0.00  0.00    +0.008 A 
ATOM      7  C   UNL     1      -2.809  -3.770   6.044  0.00  0.00    +0.019 A 
ATOM      8  C   UNL     1      -3.385  -3.876   4.826  0.00  0.00    +0.096 A 
ATOM      9  N   UNL     1      -4.605  -4.467   4.680  0.00  0.00    -0.267 N 
ATOM     10  C   UNL     1      -5.151  -4.562   3.448  0.00  0.00    +0.267 A 
ATOM     11  O   UNL     1      -4.561  -4.126   2.474  0.00  0.00    -0.267 OA
ATOM     12  C   UNL     1      -5.403  -5.402   8.252  0.00  0.00    +0.047 C 
ENDROOT
BRANCH   1  17
ATOM     13  N   UNL     1      -5.001  -7.633   0.091  0.00  0.00    -0.255 N 
ATOM     14  C   UNL     1      -5.359  -6.966   1.174  0.00  0.00    +0.258 C 
ATOM     15  O   UNL     1      -4.755  -7.104   2.224  0.00  0.00    -0.269 OA
ATOM     16  C   UNL     1      -6.471  -6.080   1.080  0.00  0.00    +0.077 C 
ATOM     17  C   UNL     1      -7.033  -5.287   2.038  0.00  0.00    +0.037 C 
ATOM     18  S   UNL     1      -6.929  -6.290  -0.635  0.00  0.00    -0.061 S 
ATOM     19  C   UNL     1      -5.667  -7.476  -1.074  0.00  0.00    +0.121 C 
ATOM     20  S   UNL     1      -5.377  -8.224  -2.587  0.00  0.00    -0.027 S 
BRANCH  13  21
ATOM     21  C   UNL     1      -3.862  -8.552   0.153  0.00  0.00    +0.118 C 
BRANCH  21  22
ATOM     22  C   UNL     1      -2.577  -7.796  -0.188  0.00  0.00    +0.007 C 
BRANCH  22  23
ATOM     23  C   UNL     1      -2.305  -6.741   0.887  0.00  0.00    +0.002 C 
ATOM     24  C   UNL     1      -1.079  -5.915   0.492  0.00  0.00    +0.004 C 
ENDBRANCH  22  23
BRANCH  22  25
ATOM     25  C   UNL     1      -1.406  -8.779  -0.245  0.00  0.00    +0.005 C 
BRANCH  25  26
ATOM     26  C   UNL     1      -1.619  -9.759  -1.401  0.00  0.00    +0.000 C 
BRANCH  26  28
ATOM     27  C   UNL     1      -0.602 -11.637  -2.696  0.00  0.00    +0.004 C 
ATOM     28  C   UNL     1      -0.388 -10.657  -1.541  0.00  0.00    -0.003 C 
ENDBRANCH  26  28
ENDBRANCH  25  26
ENDBRANCH  22  25
ENDBRANCH  21  22
ENDBRANCH  13  21
ENDBRANCH   1  17
BRANCH   2  29
ATOM     29  N   UNL     1      -8.295  -6.270   4.377  0.00  0.00    -0.314 N 
ATOM     30  C   UNL     1      -8.601  -7.181   3.265  0.00  0.00    +0.109 C 
ATOM     31  C   UNL     1      -9.100  -8.511   3.841  0.00  0.00    +0.004 C 
ATOM     32  C   UNL     1     -10.279  -8.246   4.779  0.00  0.00    +0.009 C 
ATOM     33  C   UNL     1      -9.820  -7.359   5.939  0.00  0.00    +0.004 C 
ATOM     34  C   UNL     1      -9.328  -6.021   5.391  0.00  0.00    +0.109 C 
ATOM     35  C   UNL     1     -10.991  -7.122   6.895  0.00  0.00    +0.009 C 
ATOM     36  C   UNL     1      -9.550  -9.424   2.699  0.00  0.00    +0.009 C 
ENDBRANCH   2  29
TORSDOF 8
