REMARK  Name = ZINC51603047
REMARK  4 active torsions:
REMARK  status: ('A' for Active; 'I' for Inactive)
REMARK    1  A    between atoms: C_1  and  C_2
REMARK    2  A    between atoms: N_7  and  C_16
REMARK    3  A    between atoms: C_8  and  C_15
REMARK    4  A    between atoms: C_10  and  C_12
REMARK                            x       y       z     vdW  Elec       q    Type
REMARK                         _______ _______ _______ _____ _____    ______ ____
ROOT
ATOM      1  C   UNL     1       0.042   1.555   0.019  0.00  0.00    +0.009 C 
ATOM      2  C   UNL     1       0.027   0.026  -0.003  0.00  0.00    +0.010 C 
ATOM      3  C   UNL     1       0.645  -0.477  -1.310  0.00  0.00    +0.100 C 
ATOM      4  C   UNL     1       0.889  -1.957  -1.224  0.00  0.00    +0.216 C 
ATOM      5  O   UNL     1       1.064  -2.571  -2.255  0.00  0.00    -0.276 OA
ATOM      6  N   UNL     1       0.923  -2.632  -0.074  0.00  0.00    -0.295 N 
ATOM      7  C   UNL     1       0.682  -2.033   1.232  0.00  0.00    +0.087 C 
ATOM      8  C   UNL     1       0.859  -0.515   1.167  0.00  0.00    +0.125 C 
ATOM      9  C   UNL     1      -0.745  -2.352   1.681  0.00  0.00    +0.029 C 
ENDROOT
BRANCH   6  10
ATOM     10  C   UNL     1       1.220  -4.065  -0.128  0.00  0.00    +0.076 C 
ATOM     11  C   UNL     1       0.193  -4.762  -0.980  0.00  0.00    +0.022 C 
ATOM     12  C   UNL     1      -0.119  -6.186  -0.480  0.00  0.00    +0.002 C 
ATOM     13  C   UNL     1       1.142  -6.956  -0.043  0.00  0.00    +0.000 C 
ATOM     14  C   UNL     1       2.299  -6.745  -0.982  0.00  0.00    +0.000 C 
ATOM     15  C   UNL     1       3.165  -5.590  -0.441  0.00  0.00    +0.002 C 
ATOM     16  C   UNL     1       2.610  -4.283  -0.760  0.00  0.00    +0.022 C 
ENDBRANCH   6  10
BRANCH   8  17
ATOM     17  C   UNL     1       0.383   0.106   2.455  0.00  0.00    +0.361 C 
ATOM     18  O   UNL     1      -0.804   0.329   2.622  0.00  0.00    -0.246 OA
ATOM     19  O   UNL     1       1.185   0.385   3.329  0.00  0.00    -0.246 OA
ENDBRANCH   8  17
TORSDOF 2
