REMARK  Name = ZINC39667474
REMARK  7 active torsions:
REMARK  status: ('A' for Active; 'I' for Inactive)
REMARK    1  A    between atoms: C_1  and  C_2
REMARK    2  A    between atoms: C_6  and  C_9
REMARK    3  A    between atoms: C_7  and  C_8
REMARK    4  A    between atoms: C_9  and  N_10
REMARK    5  A    between atoms: C_11  and  C_13
REMARK    6  A    between atoms: C_24  and  C_26
REMARK    7  A    between atoms: C_32  and  C_34
REMARK                            x       y       z     vdW  Elec       q    Type
REMARK                         _______ _______ _______ _____ _____    ______ ____
ROOT
ATOM      1  C   UNL     1      -2.927  -3.595   4.770  0.00  0.00    +0.100 C 
ATOM      2  C   UNL     1      -3.388  -2.188   5.212  0.00  0.00    +0.121 C 
ATOM      3  N   UNL     1      -4.171  -2.422   6.448  0.00  0.00    -0.299 N 
ATOM      4  C   UNL     1      -3.421  -3.481   7.165  0.00  0.00    +0.115 C 
ATOM      5  C   UNL     1      -2.949  -4.440   6.055  0.00  0.00    -0.004 C 
ATOM      6  C   UNL     1      -1.551  -4.962   6.368  0.00  0.00    -0.010 C 
ATOM      7  C   UNL     1      -1.609  -5.847   7.616  0.00  0.00    -0.082 C 
ATOM      8  N   UNL     1      -2.530  -6.966   7.383  0.00  0.00    +0.379 N 
ATOM      9  C   UNL     1      -3.891  -6.459   7.174  0.00  0.00    -0.082 C 
ATOM     10  C   UNL     1      -3.929  -5.600   5.907  0.00  0.00    -0.010 C 
ATOM     11  C   UNL     1      -5.309  -1.811   6.833  0.00  0.00    +0.236 C 
ATOM     12  O   UNL     1      -5.836  -2.115   7.882  0.00  0.00    -0.274 OA
ATOM     13  H   UNL     1      -2.234  -7.478   6.565  0.00  0.00    -0.086 HD
ATOM     14  H   UNL     1      -2.520  -7.581   8.183  0.00  0.00    -0.086 HD
ENDROOT
BRANCH  11  15
ATOM     15  C   UNL     1      -5.927  -0.750   5.960  0.00  0.00    +0.162 C 
ATOM     16  C   UNL     1      -5.196   0.593   6.168  0.00  0.00    +0.033 C 
ATOM     17  C   UNL     1      -6.350   1.629   6.116  0.00  0.00    +0.021 C 
ATOM     18  C   UNL     1      -7.501   0.846   6.796  0.00  0.00    +0.109 C 
ATOM     19  N   UNL     1      -7.334  -0.548   6.337  0.00  0.00    -0.283 N 
ATOM     20  C   UNL     1      -8.306  -1.480   6.274  0.00  0.00    +0.320 C 
ATOM     21  O   UNL     1      -8.049  -2.598   5.879  0.00  0.00    -0.266 OA
BRANCH  20  22
ATOM     22  C   UNL     1      -9.710  -1.133   6.696  0.00  0.00    +0.470 C 
ATOM     23  F   UNL     1     -10.533  -2.254   6.542  0.00  0.00    -0.162 F 
ATOM     24  F   UNL     1      -9.710  -0.735   8.037  0.00  0.00    -0.162 F 
ATOM     25  F   UNL     1     -10.192  -0.089   5.899  0.00  0.00    -0.162 F 
ENDBRANCH  20  22
ENDBRANCH  11  15
BRANCH   1  27
ATOM     26  N   UNL     1      -1.143  -4.430   3.273  0.00  0.00    -0.311 N 
ATOM     27  C   UNL     1      -1.531  -3.536   4.205  0.00  0.00    +0.218 C 
ATOM     28  O   UNL     1      -0.757  -2.685   4.588  0.00  0.00    -0.275 OA
ATOM     29  H   UNL     1      -1.763  -5.111   2.967  0.00  0.00    +0.149 HD
BRANCH  26  30
ATOM     30  C   UNL     1       0.213  -4.373   2.724  0.00  0.00    +0.139 C 
BRANCH  30  36
ATOM     31  C   UNL     1      -0.471  -6.155  -1.902  0.00  0.00    +0.044 C 
ATOM     32  C   UNL     1       0.063  -6.326  -0.504  0.00  0.00    -0.047 A 
ATOM     33  C   UNL     1       0.716  -7.492  -0.151  0.00  0.00    +0.003 A 
ATOM     34  C   UNL     1       1.206  -7.649   1.132  0.00  0.00    +0.001 A 
ATOM     35  C   UNL     1       1.043  -6.640   2.062  0.00  0.00    +0.005 A 
ATOM     36  C   UNL     1       0.391  -5.473   1.710  0.00  0.00    -0.027 A 
ATOM     37  C   UNL     1      -0.095  -5.315   0.425  0.00  0.00    -0.043 A 
ATOM     38  C   UNL     1      -0.802  -4.041   0.039  0.00  0.00    +0.044 C 
ENDBRANCH  30  36
ENDBRANCH  26  30
ENDBRANCH   1  27
TORSDOF 5
