REMARK  Name = ZINC47029343
REMARK  5 active torsions:
REMARK  status: ('A' for Active; 'I' for Inactive)
REMARK    1  A    between atoms: C_4  and  C_7
REMARK    2  A    between atoms: N_9  and  N_10
REMARK    3  A    between atoms: N_13  and  C_14
REMARK    4  A    between atoms: C_14  and  C_15
REMARK    5  A    between atoms: C_15  and  C_20
REMARK                            x       y       z     vdW  Elec       q    Type
REMARK                         _______ _______ _______ _____ _____    ______ ____
ROOT
ATOM      1  N   UNL     1       4.911  -2.693  -0.001  0.00  0.00    -0.218 N 
ATOM      2  C   UNL     1       4.943  -4.040  -0.029  0.00  0.00    +0.316 C 
ATOM      3  O   UNL     1       6.010  -4.622  -0.053  0.00  0.00    -0.251 OA
ATOM      4  N   UNL     1       3.792  -4.741  -0.030  0.00  0.00    -0.297 N 
ATOM      5  H   UNL     1       5.740  -2.188   0.000  0.00  0.00    +0.174 HD
ATOM      6  H   UNL     1       2.941  -4.276  -0.011  0.00  0.00    +0.150 HD
ENDROOT
BRANCH   1   9
ATOM      7  C   UNL     1       3.650  -0.674   0.056  0.00  0.00    +0.260 C 
ATOM      8  O   UNL     1       4.688  -0.042   0.057  0.00  0.00    -0.269 OA
ATOM      9  N   UNL     1       3.682  -2.021   0.027  0.00  0.00    -0.229 N 
ATOM     10  H   UNL     1       2.854  -2.526   0.026  0.00  0.00    +0.173 HD
BRANCH   7  14
ATOM     11  C   UNL     1      -0.077   1.361   0.140  0.00  0.00    +0.000 A 
ATOM     12  C   UNL     1       1.103   2.084   0.141  0.00  0.00    +0.001 A 
ATOM     13  C   UNL     1       2.317   1.429   0.114  0.00  0.00    +0.013 A 
ATOM     14  C   UNL     1       2.353   0.034   0.085  0.00  0.00    +0.038 A 
ATOM     15  C   UNL     1       1.159  -0.689   0.083  0.00  0.00    +0.013 A 
ATOM     16  C   UNL     1      -0.048  -0.022   0.111  0.00  0.00    +0.001 A 
ENDBRANCH   7  14
ENDBRANCH   1   9
BRANCH   4  17
ATOM     17  C   UNL     1       3.827  -6.205  -0.061  0.00  0.00    +0.117 C 
BRANCH  17  18
ATOM     18  C   UNL     1       2.404  -6.752   0.069  0.00  0.00    +0.011 C 
ATOM     19  C   UNL     1       1.755  -6.232   1.364  0.00  0.00    +0.013 C 
ATOM     20  C   UNL     1       1.417  -7.473   2.216  0.00  0.00    +0.001 C 
ATOM     21  C   UNL     1       2.390  -8.563   1.703  0.00  0.00    +0.001 C 
ATOM     22  C   UNL     1       2.436  -8.290   0.179  0.00  0.00    +0.013 C 
BRANCH  18  23
ATOM     23  C   UNL     1       1.581  -6.337  -1.124  0.00  0.00    -0.040 A 
ATOM     24  C   UNL     1       2.180  -5.677  -2.180  0.00  0.00    +0.007 A 
ATOM     25  C   UNL     1       1.427  -5.296  -3.275  0.00  0.00    +0.038 A 
ATOM     26  C   UNL     1       0.071  -5.577  -3.313  0.00  0.00    +0.123 A 
ATOM     27  C   UNL     1      -0.528  -6.238  -2.254  0.00  0.00    +0.038 A 
ATOM     28  C   UNL     1       0.229  -6.622  -1.163  0.00  0.00    +0.007 A 
ATOM     29  F   UNL     1      -0.666  -5.205  -4.382  0.00  0.00    -0.205 F 
ENDBRANCH  18  23
ENDBRANCH  17  18
ENDBRANCH   4  17
TORSDOF 5
