REMARK  Name = ZINC12430182
REMARK  6 active torsions:
REMARK  status: ('A' for Active; 'I' for Inactive)
REMARK    1  A    between atoms: C_1  and  C_2
REMARK    2  A    between atoms: C_4  and  C_8
REMARK    3  A    between atoms: N_14  and  C_21
REMARK    4  A    between atoms: C_21  and  C_22
REMARK    5  A    between atoms: C_26  and  O_28
REMARK    6  A    between atoms: O_28  and  C_29
REMARK                            x       y       z     vdW  Elec       q    Type
REMARK                         _______ _______ _______ _____ _____    ______ ____
ROOT
ATOM      1  C   UNL     1      -1.245   2.221   0.020  0.00  0.00    -0.017 C 
ATOM      2  C   UNL     1      -1.656   2.557  -1.422  0.00  0.00    -0.005 C 
ATOM      3  C   UNL     1      -1.557   4.088  -1.542  0.00  0.00    +0.003 C 
ATOM      4  C   UNL     1      -2.908   4.652  -2.031  0.00  0.00    +0.110 C 
ATOM      5  N   UNL     1      -3.709   4.891  -0.825  0.00  0.00    -0.298 N 
ATOM      6  C   UNL     1      -2.941   4.889   0.281  0.00  0.00    +0.206 C 
ATOM      7  O   UNL     1      -3.343   5.101   1.405  0.00  0.00    -0.277 OA
ATOM      8  C   UNL     1      -1.520   4.587  -0.078  0.00  0.00    +0.018 C 
ATOM      9  C   UNL     1       0.506   3.739   0.766  0.00  0.00    -0.076 C 
ATOM     10  C   UNL     1       0.587   5.279   0.939  0.00  0.00    -0.019 C 
ATOM     11  C   UNL     1      -0.585   5.789   0.064  0.00  0.00    -0.004 C 
ATOM     12  N   UNL     1      -0.946   3.507   0.696  0.00  0.00    +0.395 N 
ATOM     13  H   UNL     1      -1.343   3.498   1.643  0.00  0.00    -0.079 HD
ENDROOT
BRANCH   1  17
ATOM     14  C   UNL     1       2.452  -0.975   1.452  0.00  0.00    +0.067 C 
ATOM     15  C   UNL     1       1.605  -0.048   0.619  0.00  0.00    +0.060 A 
ATOM     16  C   UNL     1       0.452   0.617   1.047  0.00  0.00    +0.045 A 
ATOM     17  C   UNL     1      -0.016   1.349   0.009  0.00  0.00    +0.023 A 
ATOM     18  N   UNL     1       0.811   1.153  -1.038  0.00  0.00    -0.283 N 
ATOM     19  H   UNL     1       0.719   1.565  -1.945  0.00  0.00    +0.188 HD
ATOM     20  N   UNL     1       1.821   0.272  -0.631  0.00  0.00    -0.179 NA
ENDBRANCH   1  17
BRANCH   5  21
ATOM     21  C   UNL     1      -5.158   5.105  -0.824  0.00  0.00    +0.143 C 
BRANCH  21  22
ATOM     22  C   UNL     1      -5.449   6.577  -0.964  0.00  0.00    -0.027 A 
ATOM     23  C   UNL     1      -5.600   7.135  -2.220  0.00  0.00    +0.005 A 
ATOM     24  C   UNL     1      -5.868   8.485  -2.351  0.00  0.00    +0.004 A 
ATOM     25  C   UNL     1      -5.986   9.280  -1.227  0.00  0.00    +0.045 A 
ATOM     26  C   UNL     1      -5.834   8.722   0.034  0.00  0.00    +0.120 A 
ATOM     27  C   UNL     1      -5.570   7.366   0.163  0.00  0.00    +0.050 A 
BRANCH  26  28
ATOM     28  O   UNL     1      -5.950   9.501   1.141  0.00  0.00    -0.495 OA
ATOM     29  C   UNL     1      -6.228  10.887   0.933  0.00  0.00    +0.277 C 
ENDBRANCH  26  28
ENDBRANCH  21  22
ENDBRANCH   5  21
TORSDOF 4
