REMARK  Name = ZINC39664696
REMARK  11 active torsions:
REMARK  status: ('A' for Active; 'I' for Inactive)
REMARK    1  A    between atoms: C_1  and  C_2
REMARK    2  A    between atoms: C_2  and  C_4
REMARK    3  A    between atoms: C_2  and  O_32
REMARK    4  A    between atoms: C_8  and  C_17
REMARK    5  A    between atoms: N_19  and  C_20
REMARK    6  A    between atoms: C_20  and  C_22
REMARK    7  A    between atoms: C_20  and  C_26
REMARK    8  A    between atoms: C_22  and  N_23
REMARK    9  A    between atoms: N_23  and  C_24
REMARK   10  A    between atoms: N_23  and  C_25
REMARK   11  A    between atoms: O_32  and  C_33
REMARK                            x       y       z     vdW  Elec       q    Type
REMARK                         _______ _______ _______ _____ _____    ______ ____
ROOT
ATOM      1  C   UNL     1      -1.821  -0.415   0.654  0.00  0.00    +0.256 C 
ATOM      2  O   UNL     1      -2.093  -1.351   1.376  0.00  0.00    -0.272 OA
ATOM      3  N   UNL     1      -2.597  -0.139  -0.412  0.00  0.00    -0.297 N 
ATOM      4  C   UNL     1      -2.423   0.948  -1.405  0.00  0.00    +0.121 C 
ATOM      5  C   UNL     1      -2.794   0.303  -2.759  0.00  0.00    +0.100 C 
ATOM      6  C   UNL     1      -3.711  -0.877  -2.393  0.00  0.00    -0.004 C 
ATOM      7  C   UNL     1      -3.813  -0.857  -0.862  0.00  0.00    +0.115 C 
ATOM      8  C   UNL     1      -3.090  -2.191  -2.858  0.00  0.00    -0.010 C 
ATOM      9  C   UNL     1      -4.045  -3.343  -2.534  0.00  0.00    -0.082 C 
ATOM     10  N   UNL     1      -5.330  -3.120  -3.209  0.00  0.00    +0.379 N 
ATOM     11  C   UNL     1      -5.963  -1.902  -2.690  0.00  0.00    -0.082 C 
ATOM     12  C   UNL     1      -5.089  -0.689  -3.019  0.00  0.00    -0.010 C 
ATOM     13  H   UNL     1      -5.174  -3.020  -4.201  0.00  0.00    -0.086 HD
ATOM     14  H   UNL     1      -5.936  -3.910  -3.045  0.00  0.00    -0.086 HD
ENDROOT
BRANCH   5  15
ATOM     15  C   UNL     1      -3.529   1.292  -3.627  0.00  0.00    +0.219 C 
ATOM     16  O   UNL     1      -4.177   2.182  -3.117  0.00  0.00    -0.275 OA
ATOM     17  N   UNL     1      -3.466   1.188  -4.969  0.00  0.00    -0.310 N 
ATOM     18  H   UNL     1      -3.009   0.435  -5.376  0.00  0.00    +0.149 HD
BRANCH  17  19
ATOM     19  C   UNL     1      -4.089   2.211  -5.813  0.00  0.00    +0.087 C 
BRANCH  19  20
ATOM     20  C   UNL     1      -5.035   1.553  -6.784  0.00  0.00    -0.029 A 
ATOM     21  C   UNL     1      -4.690   0.356  -7.383  0.00  0.00    +0.005 A 
ATOM     22  C   UNL     1      -5.558  -0.247  -8.273  0.00  0.00    +0.000 A 
ATOM     23  C   UNL     1      -6.772   0.346  -8.565  0.00  0.00    +0.000 A 
ATOM     24  C   UNL     1      -7.118   1.543  -7.965  0.00  0.00    +0.000 A 
ATOM     25  C   UNL     1      -6.251   2.144  -7.072  0.00  0.00    +0.005 A 
ENDBRANCH  19  20
BRANCH  19  26
ATOM     26  C   UNL     1      -3.004   2.962  -6.588  0.00  0.00    -0.052 C 
BRANCH  26  27
ATOM     27  N   UNL     1      -2.032   3.529  -5.644  0.00  0.00    +0.377 N 
ATOM     28  C   UNL     1      -0.925   4.141  -6.390  0.00  0.00    -0.097 C 
ATOM     29  C   UNL     1      -2.690   4.551  -4.819  0.00  0.00    -0.097 C 
ATOM     30  H   UNL     1      -1.673   2.797  -5.050  0.00  0.00    -0.083 HD
ENDBRANCH  26  27
ENDBRANCH  19  26
ENDBRANCH  17  19
ENDBRANCH   5  15
BRANCH   1  32
ATOM     31  C   UNL     1      -1.067   1.857   1.302  0.00  0.00    +0.062 C 
ATOM     32  C   UNL     1      -0.615   0.438   0.950  0.00  0.00    +0.256 C 
BRANCH  32  33
ATOM     33  O   UNL     1       0.105  -0.120   2.052  0.00  0.00    -0.480 OA
BRANCH  33  34
ATOM     34  C   UNL     1       1.414   0.226   2.172  0.00  0.00    +0.122 A 
ATOM     35  C   UNL     1       2.149  -0.207   3.266  0.00  0.00    +0.045 A 
ATOM     36  C   UNL     1       3.479   0.145   3.386  0.00  0.00    +0.004 A 
ATOM     37  C   UNL     1       4.078   0.930   2.418  0.00  0.00    +0.000 A 
ATOM     38  C   UNL     1       3.347   1.363   1.327  0.00  0.00    +0.004 A 
ATOM     39  C   UNL     1       2.018   1.008   1.199  0.00  0.00    +0.045 A 
ENDBRANCH  33  34
ENDBRANCH  32  33
ENDBRANCH   1  32
TORSDOF 8
