REMARK  Name = ZINC39606620
REMARK  10 active torsions:
REMARK  status: ('A' for Active; 'I' for Inactive)
REMARK    1  A    between atoms: C_1  and  C_2
REMARK    2  A    between atoms: C_2  and  C_3
REMARK    3  A    between atoms: C_3  and  C_5
REMARK    4  A    between atoms: C_3  and  C_6
REMARK    5  A    between atoms: C_6  and  N_7
REMARK    6  A    between atoms: C_8  and  C_10
REMARK    7  A    between atoms: C_21  and  C_23
REMARK    8  A    between atoms: C_23  and  O_24
REMARK    9  A    between atoms: O_24  and  C_25
REMARK   10  A    between atoms: C_35  and  C_36
REMARK                            x       y       z     vdW  Elec       q    Type
REMARK                         _______ _______ _______ _____ _____    ______ ____
ROOT
ATOM      1  C   UNL     1      -4.424  -4.392   0.513  0.00  0.00    +0.100 C 
ATOM      2  C   UNL     1      -5.275  -3.950  -0.699  0.00  0.00    +0.121 C 
ATOM      3  N   UNL     1      -5.213  -5.095  -1.637  0.00  0.00    -0.297 N 
ATOM      4  C   UNL     1      -5.294  -6.291  -0.765  0.00  0.00    +0.115 C 
ATOM      5  C   UNL     1      -4.442  -5.929   0.469  0.00  0.00    -0.004 C 
ATOM      6  C   UNL     1      -5.084  -6.487   1.735  0.00  0.00    -0.010 C 
ATOM      7  C   UNL     1      -5.037  -8.017   1.694  0.00  0.00    -0.082 C 
ATOM      8  N   UNL     1      -3.643  -8.464   1.590  0.00  0.00    +0.379 N 
ATOM      9  C   UNL     1      -3.062  -8.001   0.324  0.00  0.00    -0.082 C 
ATOM     10  C   UNL     1      -3.025  -6.470   0.307  0.00  0.00    -0.010 C 
ATOM     11  C   UNL     1      -5.109  -5.058  -2.980  0.00  0.00    +0.253 C 
ATOM     12  O   UNL     1      -5.071  -6.091  -3.614  0.00  0.00    -0.272 OA
ATOM     13  H   UNL     1      -3.112  -8.086   2.360  0.00  0.00    -0.086 HD
ATOM     14  H   UNL     1      -3.611  -9.472   1.624  0.00  0.00    -0.086 HD
ENDROOT
BRANCH   1  16
ATOM     15  N   UNL     1      -2.278  -3.634   1.481  0.00  0.00    -0.315 N 
ATOM     16  C   UNL     1      -3.013  -3.880   0.379  0.00  0.00    +0.218 C 
ATOM     17  O   UNL     1      -2.539  -3.689  -0.721  0.00  0.00    -0.275 OA
ATOM     18  H   UNL     1      -2.657  -3.786   2.361  0.00  0.00    +0.149 HD
BRANCH  15  19
ATOM     19  C   UNL     1      -0.906  -3.136   1.351  0.00  0.00    +0.107 C 
BRANCH  19  20
ATOM     20  C   UNL     1      -0.300  -2.942   2.742  0.00  0.00    +0.003 C 
ATOM     21  C   UNL     1      -1.062  -1.840   3.481  0.00  0.00    +0.009 C 
BRANCH  20  23
ATOM     22  C   UNL     1       1.810  -2.469   3.994  0.00  0.00    +0.004 C 
ATOM     23  C   UNL     1       1.171  -2.542   2.606  0.00  0.00    +0.001 C 
ENDBRANCH  20  23
ENDBRANCH  19  20
ENDBRANCH  15  19
ENDBRANCH   1  16
BRANCH  11  24
ATOM     24  C   UNL     1      -5.039  -3.732  -3.694  0.00  0.00    +0.324 C 
BRANCH  24  25
ATOM     25  O   UNL     1      -4.932  -3.954  -5.102  0.00  0.00    -0.479 OA
BRANCH  25  26
ATOM     26  C   UNL     1      -4.859  -2.854  -5.896  0.00  0.00    +0.164 A 
ATOM     27  C   UNL     1      -4.883  -1.590  -5.334  0.00  0.00    +0.049 A 
ATOM     28  C   UNL     1      -4.809  -0.459  -6.135  0.00  0.00    +0.004 A 
ATOM     29  C   UNL     1      -4.710  -0.579  -7.502  0.00  0.00    +0.012 A 
ATOM     30  C   UNL     1      -4.683  -1.850  -8.087  0.00  0.00    +0.024 A 
ATOM     31  C   UNL     1      -4.753  -2.996  -7.279  0.00  0.00    +0.181 A 
ATOM     32  O   UNL     1      -4.723  -4.222  -7.845  0.00  0.00    -0.418 OA
ATOM     33  C   UNL     1      -4.621  -4.377  -9.174  0.00  0.00    +0.338 A 
ATOM     34  O   UNL     1      -4.598  -5.502  -9.640  0.00  0.00    -0.245 OA
ATOM     35  C   UNL     1      -4.541  -3.269 -10.046  0.00  0.00    +0.096 A 
ATOM     36  C   UNL     1      -4.578  -2.010  -9.541  0.00  0.00    -0.033 A 
ATOM     37  C   UNL     1      -4.495  -0.809 -10.448  0.00  0.00    +0.045 C 
ENDBRANCH  25  26
ENDBRANCH  24  25
ENDBRANCH  11  24
TORSDOF 7
