REMARK  Name = ZINC15016969
REMARK  4 active torsions:
REMARK  status: ('A' for Active; 'I' for Inactive)
REMARK    1  A    between atoms: N_6  and  C_7
REMARK    2  A    between atoms: C_7  and  C_9
REMARK    3  A    between atoms: C_7  and  C_18
REMARK    4  A    between atoms: C_27  and  O_28
REMARK                            x       y       z     vdW  Elec       q    Type
REMARK                         _______ _______ _______ _____ _____    ______ ____
ROOT
ATOM      1  C   UNL     1      -2.336  -0.404   0.100  0.00  0.00    +0.136 C 
ENDROOT
BRANCH   1   2
ATOM      2  C   UNL     1      -1.572  -0.533   1.392  0.00  0.00    +0.022 A 
ATOM      3  C   UNL     1      -0.997   0.599   1.965  0.00  0.00    +0.030 A 
ATOM      4  C   UNL     1      -0.301   0.515   3.133  0.00  0.00    +0.051 A 
ATOM      5  C   UNL     1      -0.158  -0.728   3.772  0.00  0.00    +0.022 A 
ATOM      6  C   UNL     1       0.554  -0.854   4.979  0.00  0.00    +0.013 A 
ATOM      7  C   UNL     1       0.652  -2.094   5.543  0.00  0.00    +0.020 A 
ATOM      8  C   UNL     1       0.055  -3.189   4.922  0.00  0.00    +0.111 A 
ATOM      9  N   UNL     1      -0.607  -3.068   3.798  0.00  0.00    -0.251 NA
ATOM     10  C   UNL     1      -0.740  -1.883   3.194  0.00  0.00    +0.114 A 
ATOM     11  C   UNL     1      -1.458  -1.757   1.987  0.00  0.00    +0.148 A 
ATOM     12 CL   UNL     1       0.407   1.940   3.830  0.00  0.00    -0.083 Cl
BRANCH  11  13
ATOM     13  O   UNL     1      -2.030  -2.849   1.416  0.00  0.00    -0.504 OA
ATOM     14  H   UNL     1      -1.454  -3.317   0.796  0.00  0.00    +0.292 HD
ENDBRANCH  11  13
ENDBRANCH   1   2
BRANCH   1  20
ATOM     15  C   UNL     1      -5.954   0.725   1.902  0.00  0.00    +0.005 A 
ATOM     16  C   UNL     1      -6.349   2.055   1.837  0.00  0.00    +0.018 A 
ATOM     17  C   UNL     1      -5.564   2.960   1.151  0.00  0.00    +0.084 A 
ATOM     18  C   UNL     1      -4.036   1.320   0.604  0.00  0.00    +0.097 A 
ATOM     19  C   UNL     1      -4.780   0.353   1.273  0.00  0.00    +0.041 A 
ATOM     20  N   UNL     1      -2.851   0.962  -0.029  0.00  0.00    -0.320 N 
ATOM     21  H   UNL     1      -2.365   1.616  -0.555  0.00  0.00    +0.148 HD
ATOM     22  N   UNL     1      -4.405   2.631   0.521  0.00  0.00    -0.350 N 
ATOM     23  H   UNL     1      -3.844   3.325   0.014  0.00  0.00    +0.166 HD
ENDBRANCH   1  20
BRANCH   1  24
ATOM     24  C   UNL     1      -1.420  -0.706  -1.058  0.00  0.00    -0.019 A 
ATOM     25  C   UNL     1      -0.462   0.215  -1.438  0.00  0.00    +0.009 A 
ATOM     26  C   UNL     1       0.384  -0.060  -2.496  0.00  0.00    +0.050 A 
ATOM     27  C   UNL     1       0.266  -1.256  -3.185  0.00  0.00    +0.166 A 
ATOM     28  C   UNL     1      -0.703  -2.182  -2.806  0.00  0.00    +0.167 A 
ATOM     29  C   UNL     1      -1.543  -1.902  -1.741  0.00  0.00    +0.055 A 
ATOM     30  O   UNL     1      -0.617  -3.266  -3.631  0.00  0.00    -0.453 OA
ATOM     31  C   UNL     1       0.676  -3.172  -4.256  0.00  0.00    +0.466 C 
ATOM     32  O   UNL     1       0.959  -1.760  -4.248  0.00  0.00    -0.453 OA
ENDBRANCH   1  24
TORSDOF 4
