REMARK  Name = ZINC06906360
REMARK  11 active torsions:
REMARK  status: ('A' for Active; 'I' for Inactive)
REMARK    1  A    between atoms: C_1  and  O_2
REMARK    2  A    between atoms: O_2  and  C_3
REMARK    3  A    between atoms: C_5  and  C_13
REMARK    4  A    between atoms: C_7  and  O_11
REMARK    5  A    between atoms: C_8  and  O_9
REMARK    6  A    between atoms: O_9  and  C_10
REMARK    7  A    between atoms: O_11  and  C_12
REMARK    8  A    between atoms: C_15  and  C_27
REMARK    9  A    between atoms: C_17  and  C_22
REMARK   10  A    between atoms: C_17  and  O_26
REMARK   11  A    between atoms: C_27  and  C_29
REMARK                            x       y       z     vdW  Elec       q    Type
REMARK                         _______ _______ _______ _____ _____    ______ ____
ROOT
ATOM      1  C   UNL     1      -4.871   0.264   0.051  0.00  0.00    +0.120 C 
ATOM      2  C   UNL     1      -5.183   0.757  -1.366  0.00  0.00    +0.145 C 
ATOM      3  C   UNL     1      -6.414   1.668  -1.305  0.00  0.00    +0.243 C 
ATOM      4  N   UNL     1      -6.167   2.746  -0.346  0.00  0.00    -0.264 N 
ATOM      5  C   UNL     1      -5.351   2.572   0.705  0.00  0.00    +0.302 C 
ATOM      6  O   UNL     1      -5.189   3.496   1.477  0.00  0.00    -0.253 OA
ATOM      7  N   UNL     1      -4.708   1.418   0.936  0.00  0.00    -0.292 N 
ATOM      8  H   UNL     1      -6.601   3.604  -0.473  0.00  0.00    +0.153 HD
ATOM      9  H   UNL     1      -4.122   1.347   1.707  0.00  0.00    +0.151 HD
ENDROOT
BRANCH   1  12
ATOM     10  C   UNL     1      -1.201  -0.638   0.010  0.00  0.00    +0.165 A 
ATOM     11  C   UNL     1      -2.375   0.101   0.031  0.00  0.00    +0.055 A 
ATOM     12  C   UNL     1      -3.598  -0.543   0.035  0.00  0.00    -0.019 A 
ATOM     13  C   UNL     1      -3.657  -1.924   0.028  0.00  0.00    +0.055 A 
ATOM     14  C   UNL     1      -2.488  -2.670   0.012  0.00  0.00    +0.165 A 
ATOM     15  C   UNL     1      -1.256  -2.027   0.003  0.00  0.00    +0.204 A 
BRANCH  10  17
ATOM     16  C   UNL     1      -0.017   1.425   0.010  0.00  0.00    +0.277 C 
ATOM     17  O   UNL     1       0.002  -0.004   0.002  0.00  0.00    -0.491 OA
ENDBRANCH  10  17
BRANCH  15  18
ATOM     18  O   UNL     1      -0.107  -2.755  -0.013  0.00  0.00    -0.488 OA
ATOM     19  C   UNL     1       0.455  -3.109   1.253  0.00  0.00    +0.277 C 
ENDBRANCH  15  18
BRANCH  14  20
ATOM     20  O   UNL     1      -2.547  -4.028   0.006  0.00  0.00    -0.491 OA
ATOM     21  C   UNL     1      -3.848  -4.621   0.015  0.00  0.00    +0.277 C 
ENDBRANCH  14  20
ENDBRANCH   1  12
BRANCH   3  22
ATOM     22  C   UNL     1      -6.677   2.265  -2.689  0.00  0.00    +0.436 C 
ATOM     23  F   UNL     1      -6.905   1.234  -3.606  0.00  0.00    -0.166 F 
ATOM     24  F   UNL     1      -7.800   3.097  -2.632  0.00  0.00    -0.166 F 
ATOM     25  F   UNL     1      -5.564   3.011  -3.094  0.00  0.00    -0.166 F 
ENDBRANCH   3  22
BRANCH   3  26
ATOM     26  O   UNL     1      -7.550   0.908  -0.889  0.00  0.00    -0.364 OA
ATOM     27  H   UNL     1      -8.367   1.423  -0.829  0.00  0.00    +0.212 HD
ENDBRANCH   3  26
BRANCH   2  28
ATOM     28  C   UNL     1      -5.469  -0.421  -2.261  0.00  0.00    +0.179 C 
ATOM     29  O   UNL     1      -5.960  -1.431  -1.797  0.00  0.00    -0.291 OA
BRANCH  28  30
ATOM     30  C   UNL     1      -5.167  -0.351  -3.639  0.00  0.00    +0.055 A 
ATOM     31  C   UNL     1      -5.345  -1.316  -4.625  0.00  0.00    +0.019 A 
ATOM     32  C   UNL     1      -4.965  -0.981  -5.898  0.00  0.00    +0.008 A 
ATOM     33  C   UNL     1      -4.433   0.249  -6.132  0.00  0.00    +0.046 A 
ATOM     34  S   UNL     1      -4.451   0.994  -4.566  0.00  0.00    -0.094 S 
ENDBRANCH  28  30
ENDBRANCH   2  28
TORSDOF 8
