REMARK  Name = ZINC60358583
REMARK  10 active torsions:
REMARK  status: ('A' for Active; 'I' for Inactive)
REMARK    1  A    between atoms: C_1  and  C_2
REMARK    2  A    between atoms: N_6  and  C_7
REMARK    3  A    between atoms: C_7  and  C_8
REMARK    4  A    between atoms: C_8  and  C_9
REMARK    5  A    between atoms: C_9  and  C_10
REMARK    6  A    between atoms: N_12  and  C_13
REMARK    7  A    between atoms: C_13  and  C_14
REMARK    8  A    between atoms: C_14  and  C_16
REMARK    9  A    between atoms: C_14  and  C_22
REMARK   10  A    between atoms: C_31  and  C_32
REMARK                            x       y       z     vdW  Elec       q    Type
REMARK                         _______ _______ _______ _____ _____    ______ ____
ROOT
ATOM      1  C   UNL     1      -4.420   1.743   8.024  0.00  0.00    +0.069 C 
ENDROOT
BRANCH   1   2
ATOM      2  C   UNL     1      -4.798   0.287   7.928  0.00  0.00    -0.006 A 
ATOM      3  C   UNL     1      -4.251  -0.694   6.993  0.00  0.00    +0.004 A 
ATOM      4  C   UNL     1      -3.293  -0.634   5.976  0.00  0.00    +0.010 A 
ATOM      5  C   UNL     1      -2.993  -1.757   5.260  0.00  0.00    +0.001 A 
ATOM      6  C   UNL     1      -3.630  -2.960   5.534  0.00  0.00    +0.002 A 
ATOM      7  C   UNL     1      -4.577  -3.043   6.531  0.00  0.00    +0.026 A 
ATOM      8  C   UNL     1      -4.899  -1.912   7.275  0.00  0.00    +0.047 A 
ATOM      9  N   UNL     1      -5.779  -1.681   8.309  0.00  0.00    -0.354 N 
ATOM     10  H   UNL     1      -6.360  -2.348   8.707  0.00  0.00    +0.166 HD
ATOM     11  C   UNL     1      -5.707  -0.363   8.696  0.00  0.00    +0.051 A 
BRANCH  11  12
ATOM     12  C   UNL     1      -6.502   0.252   9.781  0.00  0.00    -0.001 A 
ATOM     13  C   UNL     1      -5.890   1.103  10.702  0.00  0.00    +0.010 A 
ATOM     14  C   UNL     1      -6.638   1.674  11.712  0.00  0.00    +0.001 A 
ATOM     15  C   UNL     1      -7.991   1.403  11.813  0.00  0.00    +0.000 A 
ATOM     16  C   UNL     1      -8.603   0.560  10.903  0.00  0.00    +0.001 A 
ATOM     17  C   UNL     1      -7.869  -0.012   9.885  0.00  0.00    +0.010 A 
ENDBRANCH  11  12
ENDBRANCH   1   2
BRANCH   1  18
ATOM     18  C   UNL     1      -4.999   2.491   6.850  0.00  0.00    -0.038 A 
ATOM     19  C   UNL     1      -4.764   2.045   5.563  0.00  0.00    +0.004 A 
ATOM     20  C   UNL     1      -5.295   2.731   4.486  0.00  0.00    +0.000 A 
ATOM     21  C   UNL     1      -6.061   3.862   4.697  0.00  0.00    +0.000 A 
ATOM     22  C   UNL     1      -6.297   4.307   5.985  0.00  0.00    +0.000 A 
ATOM     23  C   UNL     1      -5.770   3.619   7.061  0.00  0.00    +0.004 A 
ENDBRANCH   1  18
BRANCH   1  24
ATOM     24  C   UNL     1      -2.896   1.876   8.011  0.00  0.00    +0.117 C 
BRANCH  24  27
ATOM     25  C   UNL     1      -1.227   3.635   8.252  0.00  0.00    +0.213 C 
ATOM     26  O   UNL     1      -0.364   2.796   8.101  0.00  0.00    -0.276 OA
ATOM     27  N   UNL     1      -2.526   3.277   8.224  0.00  0.00    -0.314 N 
ATOM     28  H   UNL     1      -3.216   3.948   8.345  0.00  0.00    +0.149 HD
BRANCH  25  29
ATOM     29  C   UNL     1      -0.847   5.076   8.471  0.00  0.00    +0.097 C 
BRANCH  29  30
ATOM     30  C   UNL     1       0.678   5.209   8.459  0.00  0.00    +0.031 C 
BRANCH  30  31
ATOM     31  C   UNL     1       1.064   6.673   8.681  0.00  0.00    +0.123 C 
BRANCH  31  37
ATOM     32  C   UNL     1       2.824   7.003   6.152  0.00  0.00    +0.084 C 
ATOM     33  C   UNL     1       3.306   6.944   7.579  0.00  0.00    +0.084 A 
ATOM     34  N   UNL     1       4.550   7.030   7.965  0.00  0.00    -0.350 N 
ATOM     35  C   UNL     1       4.605   6.939   9.302  0.00  0.00    +0.101 A 
ATOM     36  C   UNL     1       3.348   6.791   9.762  0.00  0.00    +0.104 A 
ATOM     37  N   UNL     1       2.523   6.800   8.669  0.00  0.00    -0.336 N 
ATOM     38  H   UNL     1       5.314   7.143   7.378  0.00  0.00    +0.166 HD
ENDBRANCH  31  37
ENDBRANCH  30  31
ENDBRANCH  29  30
ENDBRANCH  25  29
ENDBRANCH  24  27
ENDBRANCH   1  24
TORSDOF 9
