REMARK  Name = ZINC66834390
REMARK  6 active torsions:
REMARK  status: ('A' for Active; 'I' for Inactive)
REMARK    1  A    between atoms: C_1  and  C_2
REMARK    2  A    between atoms: C_2  and  C_4
REMARK    3  A    between atoms: C_2  and  N_22
REMARK    4  A    between atoms: C_4  and  N_6
REMARK    5  A    between atoms: N_15  and  C_16
REMARK    6  A    between atoms: C_23  and  C_25
REMARK                            x       y       z     vdW  Elec       q    Type
REMARK                         _______ _______ _______ _____ _____    ______ ____
ROOT
ATOM      1  N   UNL     1      -2.244  -0.210  -0.975  0.00  0.00    -0.145 NA
ATOM      2  C   UNL     1      -3.459  -0.750  -1.018  0.00  0.00    +0.201 A 
ATOM      3  N   UNL     1      -3.999  -1.552  -0.063  0.00  0.00    -0.326 N 
ATOM      4  C   UNL     1      -5.280  -1.912  -0.469  0.00  0.00    +0.066 A 
ATOM      5  C   UNL     1      -6.268  -2.701   0.103  0.00  0.00    +0.028 A 
ATOM      6  C   UNL     1      -7.470  -2.881  -0.552  0.00  0.00    +0.002 A 
ATOM      7  C   UNL     1      -7.694  -2.277  -1.778  0.00  0.00    +0.002 A 
ATOM      8  C   UNL     1      -6.718  -1.491  -2.356  0.00  0.00    +0.028 A 
ATOM      9  C   UNL     1      -5.506  -1.303  -1.705  0.00  0.00    +0.068 A 
ATOM     10  N   UNL     1      -4.360  -0.582  -2.022  0.00  0.00    -0.309 N 
ATOM     11  H   UNL     1      -3.566  -1.826   0.760  0.00  0.00    +0.169 HD
ENDROOT
BRANCH  10  12
ATOM     12  C   UNL     1      -4.157   0.219  -3.232  0.00  0.00    +0.091 C 
ATOM     13  C   UNL     1      -2.960  -0.329  -4.011  0.00  0.00    +0.025 C 
ATOM     14  C   UNL     1      -2.748   0.507  -5.275  0.00  0.00    +0.002 C 
ATOM     15  C   UNL     1      -2.479   1.962  -4.885  0.00  0.00    +0.000 C 
ATOM     16  C   UNL     1      -3.676   2.510  -4.105  0.00  0.00    +0.002 C 
ATOM     17  C   UNL     1      -3.889   1.674  -2.842  0.00  0.00    +0.025 C 
ENDBRANCH  10  12
BRANCH   1  18
ATOM     18  C   UNL     1      -1.407  -0.536   0.005  0.00  0.00    +0.259 C 
ATOM     19  O   UNL     1      -1.783  -1.252   0.913  0.00  0.00    -0.272 OA
BRANCH  18  21
ATOM     20  C   UNL     1      -0.008   1.511   0.011  0.00  0.00    +0.038 C 
ATOM     21  C   UNL     1       0.009  -0.019  -0.010  0.00  0.00    +0.158 C 
BRANCH  21  22
ATOM     22  N   UNL     1       0.723  -0.516   1.169  0.00  0.00    -0.304 N 
ATOM     23  C   UNL     1       2.065  -0.630   1.145  0.00  0.00    +0.217 C 
ATOM     24  O   UNL     1       2.682  -0.321   0.147  0.00  0.00    -0.275 OA
ATOM     25  H   UNL     1       0.229  -0.763   1.966  0.00  0.00    +0.149 HD
BRANCH  23  26
ATOM     26  C   UNL     1       2.800  -1.141   2.357  0.00  0.00    +0.079 C 
ATOM     27  C   UNL     1       2.539  -0.210   3.545  0.00  0.00    +0.041 C 
ATOM     28  C   UNL     1       3.351  -0.693   4.750  0.00  0.00    +0.160 C 
ATOM     29  O   UNL     1       4.737  -0.729   4.404  0.00  0.00    -0.380 OA
ATOM     30  C   UNL     1       5.048  -1.619   3.330  0.00  0.00    +0.160 C 
ATOM     31  C   UNL     1       4.304  -1.173   2.069  0.00  0.00    +0.041 C 
ENDBRANCH  23  26
ENDBRANCH  21  22
ENDBRANCH  18  21
ENDBRANCH   1  18
TORSDOF 5
