REMARK  Name = ZINC12362417
REMARK  6 active torsions:
REMARK  status: ('A' for Active; 'I' for Inactive)
REMARK    1  A    between atoms: C_1  and  C_2
REMARK    2  A    between atoms: C_2  and  C_26
REMARK    3  A    between atoms: N_3  and  N_4
REMARK    4  A    between atoms: C_5  and  C_7
REMARK    5  A    between atoms: C_8  and  C_18
REMARK    6  A    between atoms: C_18  and  N_19
REMARK                            x       y       z     vdW  Elec       q    Type
REMARK                         _______ _______ _______ _____ _____    ______ ____
ROOT
ATOM      1  C   UNL     1       0.046   0.085   4.784  0.00  0.00    +0.170 A 
ATOM      2  C   UNL     1       0.071  -0.482   6.027  0.00  0.00    +0.063 A 
ATOM      3  N   UNL     1       0.064   0.533   6.919  0.00  0.00    -0.194 N 
ATOM      4  N   UNL     1       0.034   1.723   6.178  0.00  0.00    -0.058 NA
ATOM      5  N   UNL     1       0.030   1.422   4.926  0.00  0.00    -0.124 NA
ATOM      6  C   UNL     1       0.082   0.418   8.314  0.00  0.00    +0.240 A 
ATOM      7  C   UNL     1       0.067   1.532   9.266  0.00  0.00    +0.206 A 
ATOM      8  N   UNL     1       0.091   1.039  10.474  0.00  0.00    -0.032 NA
ATOM      9  O   UNL     1       0.121  -0.373  10.366  0.00  0.00    -0.239 OA
ATOM     10  N   UNL     1       0.109  -0.697   8.987  0.00  0.00    -0.027 NA
ATOM     11  N   UNL     1       0.034   2.883   8.939  0.00  0.00    -0.337 N 
ATOM     12  H   UNL     1       0.018   3.156   8.008  0.00  0.00    +0.144 HD
ATOM     13  H   UNL     1       0.027   3.552   9.641  0.00  0.00    +0.144 HD
ENDROOT
BRANCH   1  15
ATOM     14  N   UNL     1       0.024   0.035   2.339  0.00  0.00    -0.201 N 
ATOM     15  C   UNL     1       0.044  -0.645   3.503  0.00  0.00    +0.285 C 
ATOM     16  O   UNL     1       0.060  -1.861   3.496  0.00  0.00    -0.267 OA
ATOM     17  H   UNL     1       0.011   1.005   2.345  0.00  0.00    +0.178 HD
BRANCH  14  20
ATOM     18  C   UNL     1      -0.018   1.503   0.010  0.00  0.00    +0.068 C 
ATOM     19  C   UNL     1       0.002  -0.004   0.002  0.00  0.00    +0.063 C 
ATOM     20  N   UNL     1       0.022  -0.659   1.122  0.00  0.00    -0.184 NA
BRANCH  19  21
ATOM     21  C   UNL     1      -0.000  -0.735  -1.279  0.00  0.00    -0.002 A 
ATOM     22  C   UNL     1      -0.015  -0.033  -2.487  0.00  0.00    +0.011 A 
ATOM     23  C   UNL     1      -0.017  -0.722  -3.681  0.00  0.00    +0.016 A 
ATOM     24  C   UNL     1      -0.005  -2.106  -3.685  0.00  0.00    +0.018 A 
ATOM     25  C   UNL     1       0.010  -2.808  -2.492  0.00  0.00    +0.016 A 
ATOM     26  C   UNL     1       0.019  -2.131  -1.290  0.00  0.00    +0.011 A 
ATOM     27 BR   UNL     1      -0.009  -3.043  -5.328  0.00  0.00    -0.050 Br
ENDBRANCH  19  21
ENDBRANCH  14  20
ENDBRANCH   1  15
BRANCH   2  28
ATOM     28  C   UNL     1       0.101  -1.955   6.341  0.00  0.00    -0.020 C 
BRANCH  28  29
ATOM     29  N   UNL     1      -1.274  -2.459   6.460  0.00  0.00    +0.383 N 
ATOM     30  C   UNL     1      -1.945  -1.747   7.565  0.00  0.00    -0.078 C 
ATOM     31  C   UNL     1      -3.433  -1.786   7.320  0.00  0.00    -0.019 C 
ATOM     32  C   UNL     1      -4.100  -2.945   8.085  0.00  0.00    -0.002 C 
ATOM     33  C   UNL     1      -3.247  -4.229   8.036  0.00  0.00    -0.002 C 
ATOM     34  C   UNL     1      -2.642  -4.465   6.676  0.00  0.00    -0.019 C 
ATOM     35  C   UNL     1      -1.231  -3.843   6.637  0.00  0.00    -0.078 C 
ATOM     36  H   UNL     1      -1.766  -2.258   5.602  0.00  0.00    -0.081 HD
ENDBRANCH  28  29
ENDBRANCH   2  28
TORSDOF 5
