REMARK  Name = ZINC04002665
REMARK  6 active torsions:
REMARK  status: ('A' for Active; 'I' for Inactive)
REMARK    1  A    between atoms: C_1  and  C_2
REMARK    2  A    between atoms: C_2  and  C_3
REMARK    3  A    between atoms: C_3  and  C_4
REMARK    4  A    between atoms: C_4  and  C_5
REMARK    5  A    between atoms: C_7  and  C_12
REMARK    6  A    between atoms: C_8  and  C_10
REMARK                            x       y       z     vdW  Elec       q    Type
REMARK                         _______ _______ _______ _____ _____    ______ ____
ROOT
ATOM      1  C   UNL     1      -2.826  -2.585   0.015  0.00  0.00    +0.132 A 
ATOM      2  N   UNL     1      -3.530  -2.848   1.103  0.00  0.00    -0.219 NA
ATOM      3  C   UNL     1      -4.756  -3.299   0.726  0.00  0.00    +0.178 A 
ATOM      4  C   UNL     1      -4.767  -3.298  -0.666  0.00  0.00    +0.178 A 
ATOM      5  N   UNL     1      -3.549  -2.842  -1.062  0.00  0.00    -0.219 NA
ENDROOT
BRANCH   4   6
ATOM      6  C   UNL     1      -5.850  -3.695  -1.515  0.00  0.00    +0.122 C 
ATOM      7  N   UNL     1      -6.709  -4.009  -2.188  0.00  0.00    -0.189 NA
ENDBRANCH   4   6
BRANCH   3   8
ATOM      8  C   UNL     1      -5.826  -3.696   1.591  0.00  0.00    +0.122 C 
ATOM      9  N   UNL     1      -6.674  -4.012   2.277  0.00  0.00    -0.189 NA
ENDBRANCH   3   8
BRANCH   1  10
ATOM     10  C   UNL     1      -1.413  -2.063   0.004  0.00  0.00    +0.076 C 
BRANCH  10  11
ATOM     11  C   UNL     1      -1.433  -0.534   0.013  0.00  0.00    +0.007 C 
BRANCH  11  13
ATOM     12  C   UNL     1      -0.019   1.526   0.010  0.00  0.00    +0.004 C 
ATOM     13  C   UNL     1       0.002  -0.004   0.002  0.00  0.00    -0.003 C 
ENDBRANCH  11  13
ENDBRANCH  10  11
ENDBRANCH   1  10
TORSDOF 5
