REMARK  Name = ZINC64871177
REMARK  6 active torsions:
REMARK  status: ('A' for Active; 'I' for Inactive)
REMARK    1  A    between atoms: C_1  and  C_2
REMARK    2  A    between atoms: C_2  and  C_3
REMARK    3  A    between atoms: C_6  and  C_9
REMARK    4  A    between atoms: C_12  and  C_16
REMARK    5  A    between atoms: N_26  and  C_29
REMARK    6  A    between atoms: C_29  and  C_30
REMARK                            x       y       z     vdW  Elec       q    Type
REMARK                         _______ _______ _______ _____ _____    ______ ____
ROOT
ATOM      1  C   UNL     1      -6.790  -5.039  -1.452  0.00  0.00    -0.000 A 
ATOM      2  C   UNL     1      -5.604  -5.558  -1.948  0.00  0.00    +0.008 A 
ATOM      3  C   UNL     1      -5.603  -6.735  -2.666  0.00  0.00    +0.016 A 
ATOM      4  C   UNL     1      -6.804  -7.403  -2.891  0.00  0.00    +0.063 A 
ATOM      5  C   UNL     1      -8.006  -6.876  -2.388  0.00  0.00    +0.056 A 
ATOM      6  C   UNL     1      -7.987  -5.694  -1.663  0.00  0.00    +0.034 A 
ATOM      7  N   UNL     1      -9.188  -7.563  -2.626  0.00  0.00    -0.307 N 
ATOM      8  H   UNL     1     -10.025  -7.212  -2.285  0.00  0.00    +0.170 HD
ATOM      9  C   UNL     1      -9.184  -8.711  -3.326  0.00  0.00    +0.330 A 
ATOM     10  O   UNL     1     -10.241  -9.282  -3.514  0.00  0.00    -0.246 OA
ATOM     11  N   UNL     1      -8.063  -9.253  -3.827  0.00  0.00    -0.256 N 
ATOM     12  C   UNL     1      -6.860  -8.665  -3.651  0.00  0.00    +0.265 A 
ATOM     13  O   UNL     1      -5.849  -9.163  -4.108  0.00  0.00    -0.267 OA
ENDROOT
BRANCH   1  16
ATOM     14  C   UNL     1      -5.419  -2.005   0.043  0.00  0.00    +0.180 C 
ATOM     15  N   UNL     1      -5.663  -2.879  -1.136  0.00  0.00    -0.265 NA
ATOM     16  C   UNL     1      -6.772  -3.752  -0.670  0.00  0.00    +0.242 C 
ATOM     17  O   UNL     1      -6.481  -4.009   0.716  0.00  0.00    -0.274 OA
ATOM     18  N   UNL     1      -5.633  -2.906   1.200  0.00  0.00    -0.177 NA
ATOM     19  H   UNL     1      -5.943  -2.335  -1.938  0.00  0.00    +0.127 HD
ATOM     20  H   UNL     1      -4.755  -3.254   1.554  0.00  0.00    +0.156 HD
BRANCH  14  24
ATOM     21  C   UNL     1      -1.412  -0.526   0.013  0.00  0.00    -0.048 A 
ATOM     22  C   UNL     1      -2.051  -0.766   1.215  0.00  0.00    +0.004 A 
ATOM     23  C   UNL     1      -3.348  -1.244   1.225  0.00  0.00    +0.007 A 
ATOM     24  C   UNL     1      -4.006  -1.482   0.032  0.00  0.00    -0.014 A 
ATOM     25  C   UNL     1      -3.367  -1.241  -1.170  0.00  0.00    +0.007 A 
ATOM     26  C   UNL     1      -2.072  -0.758  -1.179  0.00  0.00    +0.004 A 
BRANCH  21  28
ATOM     27  C   UNL     1      -0.019   1.526   0.010  0.00  0.00    +0.009 C 
ATOM     28  C   UNL     1       0.002  -0.004   0.002  0.00  0.00    +0.032 C 
ENDBRANCH  21  28
ENDBRANCH  14  24
ENDBRANCH   1  16
BRANCH  11  29
ATOM     29  C   UNL     1      -8.146 -10.508  -4.579  0.00  0.00    +0.165 C 
BRANCH  29  30
ATOM     30  C   UNL     1      -8.357 -10.205  -6.040  0.00  0.00    -0.027 A 
ATOM     31  C   UNL     1      -9.639 -10.082  -6.542  0.00  0.00    +0.007 A 
ATOM     32  C   UNL     1      -9.834  -9.805  -7.881  0.00  0.00    +0.020 A 
ATOM     33  C   UNL     1      -8.745  -9.649  -8.720  0.00  0.00    +0.041 A 
ATOM     34  C   UNL     1      -7.461  -9.772  -8.218  0.00  0.00    +0.020 A 
ATOM     35  C   UNL     1      -7.268 -10.044  -6.877  0.00  0.00    +0.007 A 
ATOM     36 CL   UNL     1      -8.988  -9.301 -10.404  0.00  0.00    -0.084 Cl
ENDBRANCH  29  30
ENDBRANCH  11  29
TORSDOF 5
