REMARK  Name = ZINC39354547
REMARK  5 active torsions:
REMARK  status: ('A' for Active; 'I' for Inactive)
REMARK    1  A    between atoms: C_4  and  C_7
REMARK    2  A    between atoms: C_11  and  N_14
REMARK    3  A    between atoms: C_15  and  C_17
REMARK    4  A    between atoms: C_17  and  S_18
REMARK    5  A    between atoms: S_18  and  C_19
REMARK                            x       y       z     vdW  Elec       q    Type
REMARK                         _______ _______ _______ _____ _____    ______ ____
ROOT
ATOM      1  N   UNL     1       5.993  -3.348   0.616  0.00  0.00    -0.283 N 
ATOM      2  C   UNL     1       6.623  -4.429   0.116  0.00  0.00    +0.225 C 
ATOM      3  O   UNL     1       5.983  -5.317  -0.406  0.00  0.00    -0.275 OA
ATOM      4  H   UNL     1       6.505  -2.638   1.033  0.00  0.00    +0.152 HD
ENDROOT
BRANCH   1   8
ATOM      5  C   UNL     1       3.711  -0.707  -0.038  0.00  0.00    +0.189 C 
ATOM      6  N   UNL     1       3.733  -1.747  -1.091  0.00  0.00    -0.293 N 
ATOM      7  N   UNL     1       4.100  -2.878  -0.839  0.00  0.00    -0.181 NA
ATOM      8  C   UNL     1       4.534  -3.245   0.529  0.00  0.00    +0.273 C 
ATOM      9  S   UNL     1       3.905  -1.775   1.459  0.00  0.00    -0.083 S 
ATOM     10  H   UNL     1       3.452  -1.524  -1.992  0.00  0.00    +0.184 HD
BRANCH   5  14
ATOM     11  C   UNL     1      -0.017   1.378   0.010  0.00  0.00    +0.000 A 
ATOM     12  C   UNL     1       1.171   2.086   0.002  0.00  0.00    +0.000 A 
ATOM     13  C   UNL     1       2.377   1.411  -0.013  0.00  0.00    +0.006 A 
ATOM     14  C   UNL     1       2.396   0.029  -0.020  0.00  0.00    -0.014 A 
ATOM     15  C   UNL     1       1.208  -0.679  -0.012  0.00  0.00    +0.006 A 
ATOM     16  C   UNL     1       0.002  -0.004   0.002  0.00  0.00    +0.000 A 
ENDBRANCH   5  14
ENDBRANCH   1   8
BRANCH   2  17
ATOM     17  C   UNL     1       8.124  -4.535   0.206  0.00  0.00    +0.173 C 
BRANCH  17  18
ATOM     18  S   UNL     1       8.667  -6.093  -0.549  0.00  0.00    -0.079 S 
BRANCH  18  19
ATOM     19  C   UNL     1      10.419  -6.067  -0.367  0.00  0.00    +0.168 A 
ATOM     20  N   UNL     1      11.103  -5.106   0.204  0.00  0.00    -0.222 NA
ATOM     21  C   UNL     1      12.427  -5.408   0.173  0.00  0.00    +0.091 A 
ATOM     22  C   UNL     1      13.572  -4.749   0.629  0.00  0.00    +0.050 A 
ATOM     23  C   UNL     1      14.811  -5.324   0.447  0.00  0.00    +0.043 A 
ATOM     24  C   UNL     1      14.929  -6.553  -0.187  0.00  0.00    +0.022 A 
ATOM     25  C   UNL     1      13.808  -7.216  -0.643  0.00  0.00    +0.029 A 
ATOM     26  C   UNL     1      12.554  -6.651  -0.467  0.00  0.00    +0.067 A 
ATOM     27  N   UNL     1      11.267  -7.049  -0.794  0.00  0.00    -0.333 N 
ATOM     28 CL   UNL     1      16.233  -4.506   1.012  0.00  0.00    -0.083 Cl
ATOM     29  H   UNL     1      11.016  -7.871  -1.245  0.00  0.00    +0.168 HD
ENDBRANCH  18  19
ENDBRANCH  17  18
ENDBRANCH   2  17
TORSDOF 5
