REMARK  Name = ZINC16941948
REMARK  9 active torsions:
REMARK  status: ('A' for Active; 'I' for Inactive)
REMARK    1  A    between atoms: C_1  and  C_2
REMARK    2  A    between atoms: C_3  and  C_10
REMARK    3  A    between atoms: N_8  and  N_9
REMARK    4  A    between atoms: C_10  and  C_26
REMARK    5  A    between atoms: N_11  and  N_12
REMARK    6  A    between atoms: C_16  and  C_20
REMARK    7  A    between atoms: C_17  and  C_19
REMARK    8  A    between atoms: C_20  and  C_25
REMARK    9  A    between atoms: N_21  and  N_22
REMARK                            x       y       z     vdW  Elec       q    Type
REMARK                         _______ _______ _______ _____ _____    ______ ____
ROOT
ATOM      1  N   UNL     1       3.768   2.916   0.318  0.00  0.00    -0.205 N 
ATOM      2  C   UNL     1       2.448   2.887   0.731  0.00  0.00    +0.235 A 
ATOM      3  N   UNL     1       1.811   4.033   0.929  0.00  0.00    -0.221 NA
ATOM      4  C   UNL     1       0.551   4.048   1.323  0.00  0.00    +0.126 A 
ATOM      5  C   UNL     1      -0.113   2.830   1.525  0.00  0.00    +0.037 A 
ATOM      6  C   UNL     1       0.599   1.643   1.308  0.00  0.00    +0.052 A 
ATOM      7  N   UNL     1       1.858   1.714   0.915  0.00  0.00    -0.218 NA
ATOM      8  C   UNL     1      -0.063   0.306   1.515  0.00  0.00    +0.066 C 
ATOM      9  H   UNL     1       4.248   2.087   0.169  0.00  0.00    +0.177 HD
ENDROOT
BRANCH   1  11
ATOM     10  C   UNL     1       5.651   4.172  -0.270  0.00  0.00    +0.067 C 
ATOM     11  N   UNL     1       4.412   4.144   0.117  0.00  0.00    -0.184 NA
ATOM     12  C   UNL     1       6.396   2.883  -0.503  0.00  0.00    +0.068 C 
BRANCH  10  15
ATOM     13  C   UNL     1       4.162   6.673  -0.016  0.00  0.00    +0.066 C 
ATOM     14  C   UNL     1       5.628   6.671  -0.364  0.00  0.00    +0.052 A 
ATOM     15  C   UNL     1       6.329   5.464  -0.482  0.00  0.00    +0.037 A 
ATOM     16  C   UNL     1       7.691   5.517  -0.801  0.00  0.00    +0.126 A 
ATOM     17  N   UNL     1       8.260   6.694  -0.988  0.00  0.00    -0.221 NA
ATOM     18  C   UNL     1       7.561   7.814  -0.868  0.00  0.00    +0.229 A 
ATOM     19  N   UNL     1       6.272   7.807  -0.562  0.00  0.00    -0.218 NA
ATOM     20  N   UNL     1       8.197   9.027  -1.066  0.00  0.00    -0.252 N 
ATOM     21  H   UNL     1       7.700   9.855  -0.981  0.00  0.00    +0.169 HD
BRANCH  20  22
ATOM     22  N   UNL     1       9.526   9.057  -1.382  0.00  0.00    -0.254 NA
ATOM     23  H   UNL     1       9.849  10.007  -1.496  0.00  0.00    +0.140 HD
ATOM     24  H   UNL     1      10.074   8.570  -0.689  0.00  0.00    +0.140 HD
ENDBRANCH  20  22
ENDBRANCH  10  15
ENDBRANCH   1  11
BRANCH   5  25
ATOM     25  C   UNL     1      -1.522   2.799   1.958  0.00  0.00    +0.069 C 
ATOM     26  N   UNL     1      -2.086   1.668   2.251  0.00  0.00    -0.176 NA
ATOM     27  C   UNL     1      -2.307   4.081   2.062  0.00  0.00    +0.068 C 
BRANCH  26  28
ATOM     28  N   UNL     1      -3.424   1.638   2.663  0.00  0.00    -0.248 N 
ATOM     29  C   UNL     1      -4.022   0.438   2.974  0.00  0.00    +0.187 C 
ATOM     30  N   UNL     1      -5.337   0.409   3.378  0.00  0.00    -0.370 N 
ATOM     31  H   UNL     1      -3.930   2.463   2.730  0.00  0.00    +0.192 HD
ATOM     32  H   UNL     1      -3.676  -1.566   3.082  0.00  0.00    +0.159 HD
ATOM     33  H   UNL     1      -5.842   1.234   3.445  0.00  0.00    +0.159 HD
ATOM     34  H   UNL     1      -5.758  -0.437   3.597  0.00  0.00    +0.159 HD
ATOM     35  N   UNL     1      -3.278  -0.653   2.863  0.00  0.00    -0.370 N 
ATOM     36  H   UNL     1      -2.301  -0.579   2.557  0.00  0.00    +0.159 HD
ENDBRANCH  26  28
ENDBRANCH   5  25
TORSDOF 5
