REMARK  Name = ZINC04150010
REMARK  8 active torsions:
REMARK  status: ('A' for Active; 'I' for Inactive)
REMARK    1  A    between atoms: C_1  and  C_2
REMARK    2  A    between atoms: N_9  and  S_10
REMARK    3  A    between atoms: S_10  and  C_13
REMARK    4  A    between atoms: C_21  and  C_42
REMARK    5  A    between atoms: C_24  and  O_41
REMARK    6  A    between atoms: C_26  and  C_30
REMARK    7  A    between atoms: C_30  and  C_32
REMARK    8  A    between atoms: C_30  and  C_33
REMARK                            x       y       z     vdW  Elec       q    Type
REMARK                         _______ _______ _______ _____ _____    ______ ____
ROOT
ATOM      1  C   UNL     1       4.110   0.809   0.787  0.00  0.00    +0.014 C 
ATOM      2  C   UNL     1       2.752   0.105   0.728  0.00  0.00    +0.042 C 
ATOM      3  C   UNL     1       2.956  -1.399   0.844  0.00  0.00    +0.057 A 
ATOM      4  C   UNL     1       2.232  -2.250   0.073  0.00  0.00    +0.015 A 
ATOM      5  S   UNL     1       2.824  -3.840   0.585  0.00  0.00    -0.056 S 
ATOM      6  C   UNL     1       3.970  -3.272   1.762  0.00  0.00    +0.178 A 
ATOM      7  N   UNL     1       3.823  -1.966   1.682  0.00  0.00    -0.228 NA
ATOM      8  N   UNL     1       4.819  -4.005   2.576  0.00  0.00    -0.194 N 
ATOM      9  C   UNL     1       1.201  -1.903  -0.945  0.00  0.00    +0.051 C 
ATOM     10  C   UNL     1       0.809  -0.434  -0.770  0.00  0.00    -0.022 C 
ATOM     11  C   UNL     1       2.068   0.426  -0.605  0.00  0.00    +0.033 C 
ATOM     12  C   UNL     1       1.624   1.899  -0.565  0.00  0.00    +0.123 C 
ATOM     13  C   UNL     1       0.726   2.105   0.658  0.00  0.00    +0.029 C 
ATOM     14  C   UNL     1      -0.509   1.210   0.558  0.00  0.00    +0.007 C 
ATOM     15  C   UNL     1      -0.080  -0.257   0.460  0.00  0.00    +0.008 C 
ATOM     16  C   UNL     1       0.052   0.039  -2.013  0.00  0.00    +0.012 C 
ATOM     17  H   UNL     1       5.412  -3.550   3.194  0.00  0.00    +0.176 HD
ENDROOT
BRANCH   8  18
ATOM     18  S   UNL     1       4.822  -5.659   2.494  0.00  0.00    +0.074 S 
ATOM     19  O   UNL     1       5.804  -6.111   3.416  0.00  0.00    -0.150 OA
ATOM     20  O   UNL     1       3.464  -6.072   2.564  0.00  0.00    -0.150 OA
BRANCH  18  21
ATOM     21  C   UNL     1       5.399  -6.100   0.888  0.00  0.00    +0.109 A 
ATOM     22  C   UNL     1       4.500  -6.260  -0.150  0.00  0.00    +0.030 A 
ATOM     23  C   UNL     1       4.952  -6.600  -1.410  0.00  0.00    +0.022 A 
ATOM     24  C   UNL     1       6.305  -6.792  -1.631  0.00  0.00    +0.041 A 
ATOM     25  C   UNL     1       7.204  -6.638  -0.591  0.00  0.00    +0.022 A 
ATOM     26  C   UNL     1       6.750  -6.292   0.668  0.00  0.00    +0.030 A 
ATOM     27 CL   UNL     1       6.873  -7.227  -3.213  0.00  0.00    -0.084 Cl
ENDBRANCH  18  21
ENDBRANCH   8  18
BRANCH  13  28
ATOM     28  C   UNL     1       0.288   3.570   0.724  0.00  0.00    +0.078 C 
ATOM     29  C   UNL     1       1.523   4.467   0.824  0.00  0.00    +0.017 C 
BRANCH  28  30
ATOM     30  C   UNL     1      -0.584   3.779   1.935  0.00  0.00    +0.219 C 
ATOM     31  O   UNL     1      -0.418   3.100   2.927  0.00  0.00    -0.275 OA
ATOM     32  N   UNL     1      -1.549   4.719   1.917  0.00  0.00    -0.300 N 
ATOM     33  C   UNL     1      -1.663   5.615   0.765  0.00  0.00    +0.118 C 
ATOM     34  C   UNL     1      -2.990   5.339   0.038  0.00  0.00    +0.088 C 
ATOM     35  S   UNL     1      -4.355   5.558   1.219  0.00  0.00    -0.158 S 
ATOM     36  C   UNL     1      -3.886   4.471   2.599  0.00  0.00    +0.088 C 
ATOM     37  C   UNL     1      -2.467   4.836   3.050  0.00  0.00    +0.118 C 
ENDBRANCH  28  30
ENDBRANCH  13  28
BRANCH  12  38
ATOM     38  O   UNL     1       0.895   2.213  -1.753  0.00  0.00    -0.391 OA
ATOM     39  H   UNL     1       0.584   3.127  -1.794  0.00  0.00    +0.210 HD
ENDBRANCH  12  38
TORSDOF 5
