REMARK  Name = ZINC02279266
REMARK  9 active torsions:
REMARK  status: ('A' for Active; 'I' for Inactive)
REMARK    1  A    between atoms: C_1  and  C_2
REMARK    2  A    between atoms: C_2  and  C_30
REMARK    3  A    between atoms: C_6  and  C_20
REMARK    4  A    between atoms: N_9  and  C_10
REMARK    5  A    between atoms: C_10  and  C_11
REMARK    6  A    between atoms: C_11  and  O_12
REMARK    7  A    between atoms: C_14  and  C_18
REMARK    8  A    between atoms: C_14  and  C_19
REMARK    9  A    between atoms: C_25  and  O_26
REMARK                            x       y       z     vdW  Elec       q    Type
REMARK                         _______ _______ _______ _____ _____    ______ ____
ROOT
ATOM      1  C   UNL     1      -2.503   5.970   0.793  0.00  0.00    +0.011 C 
ATOM      2  C   UNL     1      -2.891   4.562   0.339  0.00  0.00    -0.023 C 
ATOM      3  C   UNL     1      -1.627   3.739   0.077  0.00  0.00    +0.058 C 
ATOM      4  C   UNL     1      -0.831   3.614   1.351  0.00  0.00    +0.019 C 
ATOM      5  C   UNL     1      -1.439   3.593   2.558  0.00  0.00    +0.024 C 
ATOM      6  C   UNL     1      -0.632   3.454   3.822  0.00  0.00    +0.092 C 
ATOM      7  C   UNL     1       0.815   3.799   3.588  0.00  0.00    +0.024 C 
ATOM      8  C   UNL     1       1.327   3.803   2.340  0.00  0.00    +0.019 C 
ATOM      9  N   UNL     1       0.530   3.511   1.268  0.00  0.00    -0.304 N 
ATOM     10  C   UNL     1       2.781   4.123   2.096  0.00  0.00    +0.058 C 
ATOM     11  C   UNL     1       3.279   5.100   3.164  0.00  0.00    -0.023 C 
ATOM     12  C   UNL     1       3.069   4.464   4.542  0.00  0.00    +0.086 C 
ATOM     13  C   UNL     1       1.616   4.110   4.702  0.00  0.00    +0.162 C 
ATOM     14  O   UNL     1       1.125   4.093   5.813  0.00  0.00    -0.292 OA
ATOM     15  C   UNL     1       2.487   6.406   3.074  0.00  0.00    +0.011 C 
ATOM     16  C   UNL     1       4.767   5.381   2.949  0.00  0.00    +0.011 C 
ATOM     17  C   UNL     1      -2.837   3.707   2.666  0.00  0.00    +0.162 C 
ATOM     18  O   UNL     1      -3.353   3.685   3.766  0.00  0.00    -0.292 OA
ATOM     19  C   UNL     1      -3.702   3.871   1.440  0.00  0.00    +0.086 C 
ATOM     20  C   UNL     1      -3.726   4.642  -0.941  0.00  0.00    +0.011 C 
ENDROOT
BRANCH   6  21
ATOM     21  C   UNL     1      -0.728   2.033   4.314  0.00  0.00    +0.006 A 
ATOM     22  C   UNL     1      -0.255   0.997   3.531  0.00  0.00    +0.008 A 
ATOM     23  C   UNL     1      -0.341  -0.307   3.982  0.00  0.00    +0.001 A 
ATOM     24  C   UNL     1      -0.901  -0.578   5.217  0.00  0.00    +0.004 A 
ATOM     25  C   UNL     1      -1.376   0.454   6.003  0.00  0.00    +0.046 A 
ATOM     26  C   UNL     1      -1.285   1.764   5.555  0.00  0.00    +0.121 A 
BRANCH  26  27
ATOM     27  O   UNL     1      -1.746   2.781   6.329  0.00  0.00    -0.506 OA
ATOM     28  H   UNL     1      -2.676   3.000   6.178  0.00  0.00    +0.292 HD
ENDBRANCH  26  27
ENDBRANCH   6  21
BRANCH   9  29
ATOM     29  C   UNL     1       1.145   3.085   0.008  0.00  0.00    +0.138 C 
BRANCH  29  30
ATOM     30  C   UNL     1       1.286   1.562  -0.002  0.00  0.00    +0.175 C 
BRANCH  30  31
ATOM     31  O   UNL     1      -0.011   0.963   0.007  0.00  0.00    -0.393 OA
ATOM     32  H   UNL     1       0.002  -0.004   0.002  0.00  0.00    +0.209 HD
ENDBRANCH  30  31
ENDBRANCH  29  30
ENDBRANCH   9  29
TORSDOF 5
