REMARK  Name = ZINC30823022
REMARK  4 active torsions:
REMARK  status: ('A' for Active; 'I' for Inactive)
REMARK    1  A    between atoms: C_8  and  S_10
REMARK    2  A    between atoms: S_10  and  C_11
REMARK    3  A    between atoms: C_11  and  C_12
REMARK    4  A    between atoms: C_24  and  C_26
REMARK                            x       y       z     vdW  Elec       q    Type
REMARK                         _______ _______ _______ _____ _____    ______ ____
ROOT
ATOM      1  C   UNL     1      -0.841   2.041  -3.307  0.00  0.00    +0.231 C 
ATOM      2  O   UNL     1      -0.018   2.197  -4.183  0.00  0.00    -0.274 OA
ATOM      3  N   UNL     1      -0.625   2.554  -2.079  0.00  0.00    -0.254 N 
ATOM      4  C   UNL     1      -1.579   2.369  -1.081  0.00  0.00    +0.058 A 
ATOM      5  C   UNL     1      -2.833   2.954  -1.165  0.00  0.00    +0.025 A 
ATOM      6  C   UNL     1      -3.731   2.796  -0.125  0.00  0.00    +0.002 A 
ATOM      7  C   UNL     1      -3.384   2.061   0.995  0.00  0.00    +0.002 A 
ATOM      8  C   UNL     1      -2.142   1.455   1.073  0.00  0.00    +0.025 A 
ATOM      9  C   UNL     1      -1.252   1.594   0.017  0.00  0.00    +0.053 A 
ATOM     10  N   UNL     1      -0.011   0.966   0.007  0.00  0.00    -0.316 N 
ATOM     11  C   UNL     1       1.183   1.612  -0.001  0.00  0.00    +0.017 C 
ATOM     12  C   UNL     1       1.505   2.639  -0.802  0.00  0.00    +0.040 C 
ATOM     13  C   UNL     1       0.595   3.289  -1.819  0.00  0.00    +0.182 C 
ATOM     14  C   UNL     1       2.800   3.206  -0.752  0.00  0.00    +0.163 C 
ATOM     15  O   UNL     1       3.056   4.146  -1.480  0.00  0.00    -0.292 OA
ATOM     16  C   UNL     1       3.869   2.692   0.165  0.00  0.00    +0.080 C 
ATOM     17  C   UNL     1       3.603   1.209   0.446  0.00  0.00    +0.014 C 
ATOM     18  C   UNL     1       2.190   1.089   1.013  0.00  0.00    +0.051 C 
ATOM     19  H   UNL     1       0.049  -0.133   0.006  0.00  0.00    +0.152 HD
ENDROOT
BRANCH  13  20
ATOM     20  C   UNL     1       0.230   4.665  -1.325  0.00  0.00    +0.130 A 
ATOM     21  C   UNL     1       0.794   5.819  -1.723  0.00  0.00    +0.047 A 
ATOM     22  C   UNL     1       0.150   6.857  -1.010  0.00  0.00    +0.041 A 
ATOM     23  C   UNL     1      -0.763   6.273  -0.213  0.00  0.00    +0.195 A 
ATOM     24  O   UNL     1      -0.711   4.946  -0.408  0.00  0.00    -0.466 OA
ENDBRANCH  13  20
BRANCH   1  25
ATOM     25  C   UNL     1      -2.107   1.274  -3.590  0.00  0.00    +0.175 C 
BRANCH  25  26
ATOM     26  S   UNL     1      -2.103   0.719  -5.313  0.00  0.00    -0.058 S 
BRANCH  26  34
ATOM     27  C   UNL     1      -7.671  -2.095  -4.832  0.00  0.00    +0.002 A 
ATOM     28  C   UNL     1      -7.457  -2.412  -6.164  0.00  0.00    +0.004 A 
ATOM     29  C   UNL     1      -6.304  -2.004  -6.804  0.00  0.00    +0.048 A 
ATOM     30  C   UNL     1      -5.352  -1.272  -6.113  0.00  0.00    +0.156 A 
ATOM     31  C   UNL     1      -5.564  -0.949  -4.765  0.00  0.00    +0.110 A 
ATOM     32  C   UNL     1      -6.734  -1.368  -4.129  0.00  0.00    +0.031 A 
ATOM     33  N   UNL     1      -4.475  -0.243  -4.357  0.00  0.00    -0.203 NA
ATOM     34  C   UNL     1      -3.650  -0.123  -5.367  0.00  0.00    +0.258 A 
ATOM     35  O   UNL     1      -4.154  -0.742  -6.449  0.00  0.00    -0.431 OA
ENDBRANCH  26  34
ENDBRANCH  25  26
ENDBRANCH   1  25
TORSDOF 4
