REMARK  Name = ZINC21817881
REMARK  8 active torsions:
REMARK  status: ('A' for Active; 'I' for Inactive)
REMARK    1  A    between atoms: C_1  and  C_2
REMARK    2  A    between atoms: C_2  and  C_3
REMARK    3  A    between atoms: C_2  and  N_4
REMARK    4  A    between atoms: N_4  and  C_5
REMARK    5  A    between atoms: C_5  and  C_7
REMARK    6  A    between atoms: C_5  and  C_13
REMARK    7  A    between atoms: N_15  and  C_16
REMARK    8  A    between atoms: C_19  and  N_23
REMARK                            x       y       z     vdW  Elec       q    Type
REMARK                         _______ _______ _______ _____ _____    ______ ____
ROOT
ATOM      1  C   UNL     1       1.196   1.434  -0.034  0.00  0.00    +0.207 C 
ATOM      2  O   UNL     1       1.326   2.638  -0.105  0.00  0.00    -0.277 OA
ATOM      3  N   UNL     1      -0.036   0.891   0.011  0.00  0.00    -0.286 N 
ATOM      4  H   UNL     1      -0.156  -0.203   0.009  0.00  0.00    +0.155 HD
ENDROOT
BRANCH   3   5
ATOM      5  C   UNL     1      -1.164   1.718   0.060  0.00  0.00    +0.048 A 
ATOM      6  C   UNL     1      -1.167   2.931  -0.616  0.00  0.00    +0.026 A 
ATOM      7  C   UNL     1      -2.282   3.745  -0.566  0.00  0.00    +0.034 A 
ATOM      8  C   UNL     1      -3.395   3.353   0.155  0.00  0.00    +0.127 A 
ATOM      9  C   UNL     1      -3.396   2.145   0.828  0.00  0.00    +0.049 A 
ATOM     10  C   UNL     1      -2.286   1.324   0.779  0.00  0.00    +0.041 A 
ATOM     11 BR   UNL     1      -2.291  -0.331   1.694  0.00  0.00    -0.048 Br
BRANCH   8  12
ATOM     12  N   UNL     1      -4.588   4.227   0.205  0.00  0.00    +0.056 N 
ATOM     13  O   UNL     1      -4.589   5.291  -0.388  0.00  0.00    -0.126 OA
ATOM     14  O   UNL     1      -5.570   3.883   0.839  0.00  0.00    -0.126 OA
ENDBRANCH   8  12
ENDBRANCH   3   5
BRANCH   1  15
ATOM     15  C   UNL     1       2.413   0.546   0.004  0.00  0.00    +0.047 C 
BRANCH  15  16
ATOM     16  C   UNL     1       2.732   0.070  -1.390  0.00  0.00    -0.053 A 
ATOM     17  C   UNL     1       3.308   0.936  -2.301  0.00  0.00    +0.002 A 
ATOM     18  C   UNL     1       3.604   0.498  -3.578  0.00  0.00    +0.000 A 
ATOM     19  C   UNL     1       3.316  -0.803  -3.947  0.00  0.00    +0.000 A 
ATOM     20  C   UNL     1       2.735  -1.667  -3.038  0.00  0.00    +0.000 A 
ATOM     21  C   UNL     1       2.443  -1.230  -1.759  0.00  0.00    +0.002 A 
ENDBRANCH  15  16
BRANCH  15  22
ATOM     22  N   UNL     1       3.555   1.302   0.536  0.00  0.00    +0.391 N 
ATOM     23  H   UNL     1       3.201   1.944   1.356  0.00  0.00    -0.084 HD
ATOM     24  H   UNL     1       3.969   1.928  -0.268  0.00  0.00    -0.084 HD
BRANCH  22  26
ATOM     25  C   UNL     1       5.931   1.143   1.105  0.00  0.00    -0.014 C 
ATOM     26  C   UNL     1       4.597   0.397   1.039  0.00  0.00    -0.077 C 
ATOM     27  C   UNL     1       4.217  -0.093   2.438  0.00  0.00    -0.014 C 
ENDBRANCH  22  26
ENDBRANCH  15  22
ENDBRANCH   1  15
TORSDOF 6
