REMARK  Name = ZINC02968177
REMARK  11 active torsions:
REMARK  status: ('A' for Active; 'I' for Inactive)
REMARK    1  A    between atoms: C_1  and  C_2
REMARK    2  A    between atoms: C_2  and  C_3
REMARK    3  A    between atoms: C_3  and  C_5
REMARK    4  A    between atoms: C_3  and  N_6
REMARK    5  A    between atoms: C_7  and  C_9
REMARK    6  A    between atoms: C_9  and  S_10
REMARK    7  A    between atoms: S_10  and  C_11
REMARK    8  A    between atoms: C_21  and  C_26
REMARK    9  A    between atoms: C_26  and  C_27
REMARK   10  A    between atoms: N_29  and  C_30
REMARK   11  A    between atoms: C_30  and  C_31
REMARK                            x       y       z     vdW  Elec       q    Type
REMARK                         _______ _______ _______ _____ _____    ______ ____
ROOT
ATOM      1  C   UNL     1      -0.050   0.912   7.625  0.00  0.00    +0.169 C 
ATOM      2  N   UNL     1      -1.325   1.079   7.398  0.00  0.00    -0.225 NA
ATOM      3  C   UNL     1      -2.194   1.425   8.381  0.00  0.00    +0.077 A 
ATOM      4  C   UNL     1      -3.555   1.599   8.118  0.00  0.00    +0.028 A 
ATOM      5  C   UNL     1      -4.408   1.950   9.141  0.00  0.00    +0.002 A 
ATOM      6  C   UNL     1      -3.933   2.135  10.431  0.00  0.00    +0.001 A 
ATOM      7  C   UNL     1      -2.592   1.970  10.713  0.00  0.00    +0.013 A 
ATOM      8  C   UNL     1      -1.716   1.614   9.694  0.00  0.00    +0.041 A 
ATOM      9  C   UNL     1      -0.271   1.426   9.948  0.00  0.00    +0.139 C 
ATOM     10  N   UNL     1       0.413   1.537  11.052  0.00  0.00    -0.255 NA
ATOM     11  C   UNL     1       1.819   1.239  10.742  0.00  0.00    +0.202 C 
ATOM     12  C   UNL     1       1.810   0.937   9.259  0.00  0.00    +0.252 C 
ATOM     13  O   UNL     1       2.758   0.637   8.566  0.00  0.00    -0.272 OA
ATOM     14  N   UNL     1       0.521   1.067   8.871  0.00  0.00    -0.200 N 
ENDROOT
BRANCH   1  15
ATOM     15  S   UNL     1       0.990   0.463   6.275  0.00  0.00    -0.080 S 
BRANCH  15  16
ATOM     16  C   UNL     1      -0.142   0.370   4.861  0.00  0.00    +0.172 C 
BRANCH  16  18
ATOM     17  N   UNL     1      -0.008  -0.140   2.444  0.00  0.00    -0.312 N 
ATOM     18  C   UNL     1       0.630  -0.011   3.624  0.00  0.00    +0.224 C 
ATOM     19  O   UNL     1       1.826  -0.202   3.690  0.00  0.00    -0.275 OA
ATOM     20  H   UNL     1      -0.965   0.013   2.391  0.00  0.00    +0.149 HD
BRANCH  17  21
ATOM     21  C   UNL     1       0.742  -0.511   1.242  0.00  0.00    +0.070 C 
ATOM     22  C   UNL     1       0.872  -2.034   1.171  0.00  0.00    +0.028 C 
BRANCH  21  24
ATOM     23  C   UNL     1      -0.019   1.526   0.010  0.00  0.00    +0.005 C 
ATOM     24  C   UNL     1       0.002  -0.004   0.002  0.00  0.00    +0.018 C 
ENDBRANCH  21  24
ENDBRANCH  17  21
ENDBRANCH  16  18
ENDBRANCH  15  16
ENDBRANCH   1  15
BRANCH  11  25
ATOM     25  C   UNL     1       2.703   2.452  11.041  0.00  0.00    +0.132 C 
BRANCH  25  26
ATOM     26  C   UNL     1       2.713   2.712  12.525  0.00  0.00    +0.216 C 
ATOM     27  O   UNL     1       2.077   1.998  13.271  0.00  0.00    -0.276 OA
ATOM     28  N   UNL     1       3.430   3.738  13.024  0.00  0.00    -0.311 N 
ATOM     29  H   UNL     1       3.940   4.309  12.428  0.00  0.00    +0.149 HD
BRANCH  28  30
ATOM     30  C   UNL     1       3.441   3.991  14.467  0.00  0.00    +0.139 C 
BRANCH  30  31
ATOM     31  C   UNL     1       4.312   5.185  14.762  0.00  0.00    -0.030 A 
ATOM     32  C   UNL     1       5.661   5.013  15.011  0.00  0.00    +0.005 A 
ATOM     33  C   UNL     1       6.459   6.108  15.280  0.00  0.00    +0.000 A 
ATOM     34  C   UNL     1       5.909   7.376  15.301  0.00  0.00    +0.000 A 
ATOM     35  C   UNL     1       4.561   7.549  15.052  0.00  0.00    +0.000 A 
ATOM     36  C   UNL     1       3.763   6.454  14.777  0.00  0.00    +0.005 A 
ENDBRANCH  30  31
ENDBRANCH  28  30
ENDBRANCH  25  26
ENDBRANCH  11  25
TORSDOF 9
