REMARK  Name = ZINC37056489
REMARK  5 active torsions:
REMARK  status: ('A' for Active; 'I' for Inactive)
REMARK    1  A    between atoms: C_1  and  C_2
REMARK    2  A    between atoms: C_2  and  C_4
REMARK    3  A    between atoms: C_2  and  N_13
REMARK    4  A    between atoms: C_9  and  N_10
REMARK    5  A    between atoms: N_13  and  C_14
REMARK                            x       y       z     vdW  Elec       q    Type
REMARK                         _______ _______ _______ _____ _____    ______ ____
ROOT
ATOM      1  C   UNL     1       0.037   1.519  -0.141  0.00  0.00    +0.033 C 
ATOM      2  C   UNL     1       0.002  -0.004   0.002  0.00  0.00    +0.100 C 
ENDROOT
BRANCH   2   3
ATOM      3  C   UNL     1       0.741  -0.408   1.252  0.00  0.00    +0.003 A 
ATOM      4  C   UNL     1       0.040  -0.691   2.409  0.00  0.00    +0.008 A 
ATOM      5  C   UNL     1       0.718  -1.062   3.555  0.00  0.00    +0.000 A 
ATOM      6  C   UNL     1       2.097  -1.151   3.544  0.00  0.00    +0.002 A 
ATOM      7  C   UNL     1       2.799  -0.869   2.387  0.00  0.00    +0.033 A 
ATOM      8  C   UNL     1       2.120  -0.502   1.239  0.00  0.00    +0.131 A 
BRANCH   8   9
ATOM      9  N   UNL     1       2.871  -0.205  -0.002  0.00  0.00    +0.057 N 
ATOM     10  O   UNL     1       4.077  -0.287  -0.013  0.00  0.00    -0.126 OA
ATOM     11  O   UNL     1       2.278   0.119  -1.004  0.00  0.00    -0.126 OA
ENDBRANCH   8   9
ENDBRANCH   2   3
BRANCH   2  12
ATOM     12  N   UNL     1      -1.389  -0.455   0.090  0.00  0.00    -0.335 N 
ATOM     13  H   UNL     1      -1.808  -0.569   0.958  0.00  0.00    +0.147 HD
BRANCH  12  14
ATOM     14  C   UNL     1      -2.114  -0.719  -1.077  0.00  0.00    +0.063 A 
ATOM     15  C   UNL     1      -1.515  -0.561  -2.319  0.00  0.00    +0.027 A 
ATOM     16  C   UNL     1      -2.232  -0.824  -3.470  0.00  0.00    +0.022 A 
ATOM     17  C   UNL     1      -3.548  -1.244  -3.387  0.00  0.00    +0.044 A 
ATOM     18  C   UNL     1      -4.150  -1.403  -2.151  0.00  0.00    +0.060 A 
ATOM     19  C   UNL     1      -3.435  -1.147  -0.995  0.00  0.00    +0.145 A 
ATOM     20  F   UNL     1      -4.020  -1.308   0.212  0.00  0.00    -0.204 F 
ATOM     21 CL   UNL     1      -4.446  -1.571  -4.836  0.00  0.00    -0.083 Cl
ENDBRANCH  12  14
ENDBRANCH   2  12
TORSDOF 4
