REMARK  Name = ZINC63514074
REMARK  7 active torsions:
REMARK  status: ('A' for Active; 'I' for Inactive)
REMARK    1  A    between atoms: C_1  and  C_2
REMARK    2  A    between atoms: C_4  and  C_12
REMARK    3  A    between atoms: C_12  and  C_13
REMARK    4  A    between atoms: C_13  and  N_14
REMARK    5  A    between atoms: C_24  and  C_29
REMARK    6  A    between atoms: C_24  and  C_33
REMARK    7  A    between atoms: C_26  and  C_28
REMARK                            x       y       z     vdW  Elec       q    Type
REMARK                         _______ _______ _______ _____ _____    ______ ____
ROOT
ATOM      1  N   UNL     1       0.607  -0.882  -4.553  0.00  0.00    -0.264 N 
ATOM      2  C   UNL     1      -0.099  -1.754  -5.486  0.00  0.00    +0.178 C 
ATOM      3  C   UNL     1      -1.038  -0.884  -6.340  0.00  0.00    +0.159 C 
ATOM      4  C   UNL     1      -0.232   0.230  -6.942  0.00  0.00    +0.250 C 
ATOM      5  O   UNL     1      -0.489   0.666  -8.186  0.00  0.00    -0.273 OA
ATOM      6  N   UNL     1       0.727   0.769  -6.230  0.00  0.00    -0.128 NA
ATOM      7  C   UNL     1       1.015   0.332  -4.987  0.00  0.00    +0.330 C 
ATOM      8  O   UNL     1       1.665   1.041  -4.242  0.00  0.00    -0.250 OA
ATOM      9  C   UNL     1      -1.669  -1.786  -7.397  0.00  0.00    +0.244 C 
ATOM     10  N   UNL     1      -2.235  -2.967  -6.743  0.00  0.00    -0.356 N 
ATOM     11  C   UNL     1      -1.895  -3.378  -5.576  0.00  0.00    +0.067 C 
ATOM     12  N   UNL     1      -0.935  -2.750  -4.809  0.00  0.00    -0.315 N 
ATOM     13  C   UNL     1      -2.563  -4.609  -5.021  0.00  0.00    +0.080 C 
ATOM     14  H   UNL     1      -0.824  -2.949  -3.866  0.00  0.00    +0.149 HD
ATOM     15  H   UNL     1      -2.910  -3.472  -7.223  0.00  0.00    +0.162 HD
ENDROOT
BRANCH   9  16
ATOM     16  C   UNL     1      -2.779  -1.023  -8.123  0.00  0.00    +0.422 C 
ATOM     17  F   UNL     1      -2.215   0.004  -8.888  0.00  0.00    -0.168 F 
ATOM     18  F   UNL     1      -3.477  -1.900  -8.960  0.00  0.00    -0.168 F 
ATOM     19  F   UNL     1      -3.659  -0.474  -7.184  0.00  0.00    -0.168 F 
ENDBRANCH   9  16
BRANCH   9  20
ATOM     20  C   UNL     1      -0.602  -2.220  -8.403  0.00  0.00    +0.422 C 
ATOM     21  F   UNL     1       0.347  -3.022  -7.760  0.00  0.00    -0.168 F 
ATOM     22  F   UNL     1      -1.203  -2.946  -9.437  0.00  0.00    -0.168 F 
ATOM     23  F   UNL     1       0.027  -1.088  -8.933  0.00  0.00    -0.168 F 
ENDBRANCH   9  20
BRANCH   1  24
ATOM     24  C   UNL     1       0.864  -1.309  -3.176  0.00  0.00    +0.115 C 
BRANCH  24  25
ATOM     25  C   UNL     1      -0.307  -0.888  -2.285  0.00  0.00    +0.052 C 
BRANCH  25  28
ATOM     26  C   UNL     1      -1.146   0.380   0.578  0.00  0.00    +0.035 C 
ATOM     27  C   UNL     1      -0.940  -1.116   0.332  0.00  0.00    +0.103 C 
ATOM     28  C   UNL     1      -0.043  -1.328  -0.868  0.00  0.00    -0.037 C 
ATOM     29  C   UNL     1       1.043  -1.992  -0.411  0.00  0.00    -0.001 A 
ATOM     30  C   UNL     1       2.257  -2.486  -1.072  0.00  0.00    +0.010 A 
ATOM     31  C   UNL     1       3.189  -3.130  -0.335  0.00  0.00    +0.001 A 
ATOM     32  C   UNL     1       3.026  -3.338   1.042  0.00  0.00    +0.002 A 
ATOM     33  C   UNL     1       1.938  -2.914   1.719  0.00  0.00    +0.026 A 
ATOM     34  C   UNL     1       0.894  -2.225   1.043  0.00  0.00    +0.043 A 
ATOM     35  N   UNL     1      -0.242  -1.724   1.470  0.00  0.00    -0.378 N 
ATOM     36  H   UNL     1      -0.566  -1.751   2.384  0.00  0.00    +0.160 HD
ENDBRANCH  25  28
ENDBRANCH  24  25
ENDBRANCH   1  24
TORSDOF 5
