REMARK  Name = ZINC38742925
REMARK  3 active torsions:
REMARK  status: ('A' for Active; 'I' for Inactive)
REMARK    1  A    between atoms: C_4  and  C_7
REMARK    2  A    between atoms: C_9  and  C_13
REMARK    3  A    between atoms: C_21  and  C_23
REMARK                            x       y       z     vdW  Elec       q    Type
REMARK                         _______ _______ _______ _____ _____    ______ ____
ROOT
ATOM      1  C   UNL     1       5.763  -2.987  -1.332  0.00  0.00    +0.206 C 
ATOM      2  N   UNL     1       5.054  -4.286  -1.430  0.00  0.00    -0.231 NA
ATOM      3  N   UNL     1       6.080  -5.335  -1.309  0.00  0.00    -0.224 NA
ATOM      4  C   UNL     1       7.165  -4.654  -0.572  0.00  0.00    +0.240 C 
ATOM      5  N   UNL     1       7.203  -3.324  -1.267  0.00  0.00    -0.206 N 
ATOM      6  N   UNL     1       8.468  -2.938  -1.656  0.00  0.00    -0.173 NA
ATOM      7  C   UNL     1       9.472  -3.763  -1.716  0.00  0.00    +0.125 C 
ATOM      8  S   UNL     1       8.809  -5.316  -1.033  0.00  0.00    -0.063 S 
ATOM      9  H   UNL     1       4.559  -4.363  -2.306  0.00  0.00    +0.143 HD
ATOM     10  H   UNL     1       5.731  -6.125  -0.788  0.00  0.00    +0.144 HD
ENDROOT
BRANCH   7  11
ATOM     11  C   UNL     1      10.839  -3.500  -2.214  0.00  0.00    +0.010 A 
ATOM     12  C   UNL     1      11.794  -4.518  -2.209  0.00  0.00    +0.012 A 
ATOM     13  C   UNL     1      13.068  -4.268  -2.675  0.00  0.00    +0.022 A 
ATOM     14  C   UNL     1      13.401  -3.009  -3.147  0.00  0.00    +0.059 A 
ATOM     15  C   UNL     1      12.457  -1.994  -3.155  0.00  0.00    +0.060 A 
ATOM     16  C   UNL     1      11.178  -2.235  -2.696  0.00  0.00    +0.032 A 
ATOM     17 CL   UNL     1      12.883  -0.420  -3.749  0.00  0.00    -0.082 Cl
ATOM     18 CL   UNL     1      15.006  -2.701  -3.731  0.00  0.00    -0.082 Cl
ENDBRANCH   7  11
BRANCH   1  21
ATOM     19  C   UNL     1       3.699  -0.689  -0.037  0.00  0.00    +0.091 C 
ATOM     20  C   UNL     1       3.832  -2.029  -0.051  0.00  0.00    +0.034 C 
ATOM     21  C   UNL     1       5.335  -2.245  -0.065  0.00  0.00    +0.190 C 
ATOM     22  N   UNL     1       5.871  -0.874  -0.056  0.00  0.00    -0.176 NA
ATOM     23  N   UNL     1       4.919  -0.090  -0.047  0.00  0.00    -0.154 NA
BRANCH  19  27
ATOM     24  C   UNL     1      -0.017   1.379   0.010  0.00  0.00    +0.000 A 
ATOM     25  C   UNL     1       1.169   2.092   0.002  0.00  0.00    +0.001 A 
ATOM     26  C   UNL     1       2.377   1.426  -0.013  0.00  0.00    +0.010 A 
ATOM     27  C   UNL     1       2.402   0.033  -0.021  0.00  0.00    +0.002 A 
ATOM     28  C   UNL     1       1.205  -0.680  -0.013  0.00  0.00    +0.010 A 
ATOM     29  C   UNL     1       0.002  -0.004   0.002  0.00  0.00    +0.001 A 
ENDBRANCH  19  27
ENDBRANCH   1  21
TORSDOF 3
