REMARK  Name = ZINC03026170
REMARK  4 active torsions:
REMARK  status: ('A' for Active; 'I' for Inactive)
REMARK    1  A    between atoms: C_12  and  C_28
REMARK    2  A    between atoms: N_14  and  N_15
REMARK    3  A    between atoms: C_16  and  C_18
REMARK    4  A    between atoms: C_21  and  N_24
REMARK                            x       y       z     vdW  Elec       q    Type
REMARK                         _______ _______ _______ _____ _____    ______ ____
ROOT
ATOM      1  C   UNL     1      -0.017   1.373   0.010  0.00  0.00    +0.001 A 
ATOM      2  C   UNL     1       1.166   2.098   0.002  0.00  0.00    +0.001 A 
ATOM      3  C   UNL     1       2.385   1.452  -0.013  0.00  0.00    +0.009 A 
ATOM      4  C   UNL     1       2.430   0.059  -0.021  0.00  0.00    -0.007 A 
ATOM      5  C   UNL     1       1.227  -0.685  -0.013  0.00  0.00    -0.017 A 
ATOM      6  C   UNL     1       0.002  -0.004   0.002  0.00  0.00    +0.008 A 
ATOM      7  C   UNL     1       1.268  -2.098  -0.021  0.00  0.00    +0.012 A 
ATOM      8  C   UNL     1       2.436  -2.789  -0.036  0.00  0.00    +0.047 A 
ATOM      9  C   UNL     1       3.670  -2.137  -0.045  0.00  0.00    +0.138 A 
ATOM     10  C   UNL     1       3.704  -0.669  -0.038  0.00  0.00    +0.026 A 
ATOM     11  C   UNL     1       4.927  -0.015  -0.046  0.00  0.00    +0.028 A 
ATOM     12  C   UNL     1       6.106  -0.800  -0.062  0.00  0.00    +0.069 A 
ATOM     13  C   UNL     1       6.011  -2.202  -0.069  0.00  0.00    +0.222 A 
ATOM     14  N   UNL     1       7.127  -2.930  -0.084  0.00  0.00    -0.273 N 
ATOM     15  O   UNL     1       4.820  -2.827  -0.060  0.00  0.00    -0.437 OA
ATOM     16  H   UNL     1       7.992  -2.491  -0.089  0.00  0.00    +0.188 HD
ENDROOT
BRANCH  12  17
ATOM     17  C   UNL     1       7.425  -0.150  -0.072  0.00  0.00    +0.115 A 
ATOM     18  N   UNL     1       8.622  -0.705  -0.093  0.00  0.00    -0.239 NA
ATOM     19  C   UNL     1       9.749   0.010  -0.100  0.00  0.00    +0.079 A 
ATOM     20  C   UNL     1      11.088  -0.463  -0.121  0.00  0.00    +0.029 A 
ATOM     21  C   UNL     1      12.131   0.406  -0.124  0.00  0.00    +0.002 A 
ATOM     22  C   UNL     1      11.937   1.783  -0.107  0.00  0.00    +0.001 A 
ATOM     23  C   UNL     1      10.651   2.288  -0.087  0.00  0.00    +0.017 A 
ATOM     24  C   UNL     1       9.585   1.421  -0.083  0.00  0.00    +0.040 A 
ATOM     25  S   UNL     1       7.817   1.594  -0.067  0.00  0.00    -0.067 S 
ENDBRANCH  12  17
BRANCH  14  26
ATOM     26  N   UNL     1       7.058  -4.218  -0.090  0.00  0.00    -0.223 N 
ATOM     27  C   UNL     1       8.187  -4.954  -0.105  0.00  0.00    +0.262 C 
ATOM     28  O   UNL     1       9.270  -4.404  -0.112  0.00  0.00    -0.269 OA
ATOM     29  H   UNL     1       6.193  -4.657  -0.085  0.00  0.00    +0.175 HD
BRANCH  27  30
ATOM     30  C   UNL     1       8.107  -6.428  -0.113  0.00  0.00    +0.038 A 
ATOM     31  C   UNL     1       6.863  -7.064  -0.111  0.00  0.00    +0.015 A 
ATOM     32  C   UNL     1       6.796  -8.441  -0.118  0.00  0.00    +0.033 A 
ATOM     33  C   UNL     1       7.958  -9.194  -0.128  0.00  0.00    +0.126 A 
ATOM     34  C   UNL     1       9.193  -8.571  -0.130  0.00  0.00    +0.033 A 
ATOM     35  C   UNL     1       9.275  -7.194  -0.128  0.00  0.00    +0.015 A 
BRANCH  33  36
ATOM     36  N   UNL     1       7.878 -10.672  -0.136  0.00  0.00    +0.056 N 
ATOM     37  O   UNL     1       6.703 -11.268  -0.133  0.00  0.00    -0.126 OA
ATOM     38  O   UNL     1       8.981 -11.391  -0.145  0.00  0.00    -0.126 OA
ENDBRANCH  33  36
ENDBRANCH  27  30
ENDBRANCH  14  26
TORSDOF 4
