REMARK  Name = ZINC36056961
REMARK  8 active torsions:
REMARK  status: ('A' for Active; 'I' for Inactive)
REMARK    1  A    between atoms: C_1  and  C_2
REMARK    2  A    between atoms: C_2  and  C_3
REMARK    3  A    between atoms: C_2  and  C_4
REMARK    4  A    between atoms: C_2  and  C_5
REMARK    5  A    between atoms: C_15  and  C_16
REMARK    6  A    between atoms: C_15  and  O_20
REMARK    7  A    between atoms: C_23  and  C_26
REMARK    8  A    between atoms: C_26  and  N_28
REMARK                            x       y       z     vdW  Elec       q    Type
REMARK                         _______ _______ _______ _____ _____    ______ ____
ROOT
ATOM      1  C   UNL     1       0.718  -0.497  -1.257  0.00  0.00    +0.041 C 
ATOM      2  C   UNL     1       0.777  -2.034  -1.261  0.00  0.00    +0.010 C 
ATOM      3  C   UNL     1       1.681  -2.525  -2.390  0.00  0.00    +0.001 C 
ATOM      4  C   UNL     1       3.126  -2.058  -2.188  0.00  0.00    +0.014 C 
ATOM      5  C   UNL     1       3.158  -0.531  -2.281  0.00  0.00    +0.097 C 
ATOM      6  C   UNL     1       2.151  -0.009  -1.264  0.00  0.00    +0.049 C 
ATOM      7  N   UNL     1       2.716   0.815  -0.494  0.00  0.00    -0.183 NA
ATOM      8  N   UNL     1       4.087   0.961  -0.711  0.00  0.00    -0.160 N 
ATOM      9  C   UNL     1       4.500   0.044  -1.815  0.00  0.00    +0.258 C 
ATOM     10  C   UNL     1       4.928   1.817  -0.019  0.00  0.00    +0.184 A 
ATOM     11  N   UNL     1       4.643   2.650   0.962  0.00  0.00    -0.221 NA
ATOM     12  C   UNL     1       5.588   3.410   1.520  0.00  0.00    +0.101 A 
ATOM     13  C   UNL     1       6.877   3.316   1.057  0.00  0.00    +0.078 A 
ATOM     14  S   UNL     1       6.684   2.078  -0.219  0.00  0.00    -0.058 S 
ENDROOT
BRANCH   1  16
ATOM     15  C   UNL     1      -0.019   1.526   0.010  0.00  0.00    +0.011 C 
ATOM     16  C   UNL     1       0.002  -0.004   0.002  0.00  0.00    -0.030 C 
ATOM     17  C   UNL     1       0.742  -0.511   1.242  0.00  0.00    +0.011 C 
ATOM     18  C   UNL     1      -1.433  -0.534   0.013  0.00  0.00    +0.011 C 
ENDBRANCH   1  16
BRANCH   9  19
ATOM     19  C   UNL     1       5.178   0.819  -2.947  0.00  0.00    +0.438 C 
ATOM     20  F   UNL     1       4.351   1.872  -3.352  0.00  0.00    -0.166 F 
ATOM     21  F   UNL     1       6.399   1.332  -2.495  0.00  0.00    -0.166 F 
ATOM     22  F   UNL     1       5.405  -0.039  -4.029  0.00  0.00    -0.166 F 
ENDBRANCH   9  19
BRANCH   9  23
ATOM     23  O   UNL     1       5.354  -0.994  -1.331  0.00  0.00    -0.363 OA
ATOM     24  H   UNL     1       6.216  -0.684  -1.024  0.00  0.00    +0.212 HD
ENDBRANCH   9  23
BRANCH  12  25
ATOM     25  C   UNL     1       5.253   4.334   2.613  0.00  0.00    +0.096 C 
ATOM     26  S   UNL     1       3.641   4.441   3.180  0.00  0.00    -0.034 S 
BRANCH  25  27
ATOM     27  N   UNL     1       6.215   5.097   3.169  0.00  0.00    -0.351 N 
ATOM     28  H   UNL     1       7.128   5.036   2.848  0.00  0.00    +0.143 HD
ATOM     29  H   UNL     1       5.994   5.707   3.891  0.00  0.00    +0.143 HD
ENDBRANCH  25  27
ENDBRANCH  12  25
TORSDOF 5
