REMARK  Name = ZINC14479337
REMARK  10 active torsions:
REMARK  status: ('A' for Active; 'I' for Inactive)
REMARK    1  A    between atoms: C_1  and  C_2
REMARK    2  A    between atoms: C_5  and  N_9
REMARK    3  A    between atoms: C_6  and  C_8
REMARK    4  A    between atoms: N_9  and  S_10
REMARK    5  A    between atoms: S_10  and  C_13
REMARK    6  A    between atoms: C_26  and  C_29
REMARK    7  A    between atoms: C_32  and  O_37
REMARK    8  A    between atoms: C_33  and  O_35
REMARK    9  A    between atoms: O_35  and  C_36
REMARK   10  A    between atoms: O_37  and  C_38
REMARK                            x       y       z     vdW  Elec       q    Type
REMARK                         _______ _______ _______ _____ _____    ______ ____
ROOT
ATOM      1  C   UNL     1      -3.659   4.090  -0.622  0.00  0.00    +0.109 A 
ATOM      2  C   UNL     1      -3.546   5.018   0.398  0.00  0.00    +0.030 A 
ATOM      3  C   UNL     1      -3.133   6.304   0.110  0.00  0.00    +0.025 A 
ATOM      4  C   UNL     1      -2.845   6.665  -1.201  0.00  0.00    +0.031 A 
ATOM      5  C   UNL     1      -2.962   5.739  -2.226  0.00  0.00    -0.018 A 
ATOM      6  C   UNL     1      -3.372   4.448  -1.923  0.00  0.00    +0.034 A 
ATOM      7  C   UNL     1      -2.659   6.081  -3.651  0.00  0.00    +0.049 C 
ATOM      8  C   UNL     1      -3.924   6.236  -4.461  0.00  0.00    -0.023 C 
ATOM      9  C   UNL     1      -3.792   7.174  -5.351  0.00  0.00    -0.030 C 
ATOM     10  C   UNL     1      -2.417   7.805  -5.251  0.00  0.00    +0.033 C 
ATOM     11  C   UNL     1      -1.960   7.445  -3.807  0.00  0.00    +0.029 C 
ATOM     12  C   UNL     1      -2.594   8.469  -2.861  0.00  0.00    +0.105 C 
ATOM     13  N   UNL     1      -2.469   7.983  -1.482  0.00  0.00    -0.336 N 
ATOM     14  H   UNL     1      -2.123   8.558  -0.782  0.00  0.00    +0.147 HD
ENDROOT
BRANCH  12  15
ATOM     15  C   UNL     1      -1.883   9.790  -2.996  0.00  0.00    -0.023 A 
ATOM     16  C   UNL     1      -0.680   9.996  -2.347  0.00  0.00    +0.009 A 
ATOM     17  C   UNL     1      -0.022  11.205  -2.473  0.00  0.00    +0.050 A 
ATOM     18  C   UNL     1      -0.573  12.218  -3.242  0.00  0.00    +0.162 A 
ATOM     19  C   UNL     1      -1.786  12.012  -3.891  0.00  0.00    +0.162 A 
ATOM     20  C   UNL     1      -2.439  10.796  -3.765  0.00  0.00    +0.055 A 
BRANCH  19  21
ATOM     21  O   UNL     1      -2.331  13.003  -4.646  0.00  0.00    -0.491 OA
ATOM     22  C   UNL     1      -3.579  12.721  -5.283  0.00  0.00    +0.277 C 
ENDBRANCH  19  21
BRANCH  18  23
ATOM     23  O   UNL     1       0.071  13.409  -3.362  0.00  0.00    -0.491 OA
ATOM     24  C   UNL     1       1.313  13.549  -2.668  0.00  0.00    +0.277 C 
ENDBRANCH  18  23
ENDBRANCH  12  15
BRANCH   1  25
ATOM     25  S   UNL     1      -4.180   2.447  -0.258  0.00  0.00    +0.072 S 
ATOM     26  O   UNL     1      -4.737   1.923  -1.456  0.00  0.00    -0.150 OA
ATOM     27  O   UNL     1      -4.912   2.513   0.957  0.00  0.00    -0.150 OA
BRANCH  25  28
ATOM     28  N   UNL     1      -2.817   1.560   0.057  0.00  0.00    -0.216 N 
ATOM     29  H   UNL     1      -2.600   0.792  -0.494  0.00  0.00    +0.174 HD
BRANCH  28  34
ATOM     30  C   UNL     1       0.580   3.026   4.354  0.00  0.00    +0.044 C 
ATOM     31  C   UNL     1      -0.323   2.634   3.213  0.00  0.00    -0.050 A 
ATOM     32  C   UNL     1      -1.692   2.795   3.330  0.00  0.00    +0.005 A 
ATOM     33  C   UNL     1      -2.522   2.436   2.287  0.00  0.00    +0.025 A 
ATOM     34  C   UNL     1      -1.981   1.919   1.117  0.00  0.00    +0.051 A 
ATOM     35  C   UNL     1      -0.606   1.754   1.005  0.00  0.00    -0.028 A 
ATOM     36  C   UNL     1       0.219   2.115   2.052  0.00  0.00    +0.008 A 
ATOM     37  C   UNL     1      -0.015   1.189  -0.261  0.00  0.00    +0.046 C 
ENDBRANCH  28  34
ENDBRANCH  25  28
ENDBRANCH   1  25
TORSDOF 6
