REMARK  Name = ZINC54108310
REMARK  4 active torsions:
REMARK  status: ('A' for Active; 'I' for Inactive)
REMARK    1  A    between atoms: C_1  and  C_2
REMARK    2  A    between atoms: C_2  and  C_3
REMARK    3  A    between atoms: C_3  and  C_4
REMARK    4  A    between atoms: N_8  and  C_9
REMARK                            x       y       z     vdW  Elec       q    Type
REMARK                         _______ _______ _______ _____ _____    ______ ____
ROOT
ATOM      1  C   UNL     1       2.876  -2.397  -0.013  0.00  0.00    +0.051 A 
ATOM      2  C   UNL     1       2.753  -1.697  -1.218  0.00  0.00    +0.028 A 
ATOM      3  C   UNL     1       3.852  -1.280  -1.901  0.00  0.00    +0.030 A 
ATOM      4  C   UNL     1       5.136  -1.551  -1.394  0.00  0.00    +0.071 A 
ATOM      5  C   UNL     1       5.261  -2.260  -0.173  0.00  0.00    +0.002 A 
ATOM      6  C   UNL     1       4.108  -2.673   0.512  0.00  0.00    +0.036 A 
ATOM      7  C   UNL     1       6.548  -2.529   0.331  0.00  0.00    +0.011 A 
ATOM      8  C   UNL     1       7.625  -2.092  -0.386  0.00  0.00    +0.020 A 
ATOM      9  C   UNL     1       7.431  -1.401  -1.580  0.00  0.00    +0.111 A 
ATOM     10  N   UNL     1       6.232  -1.151  -2.046  0.00  0.00    -0.255 NA
ENDROOT
BRANCH   1  15
ATOM     11  C   UNL     1       0.762  -2.018   1.233  0.00  0.00    +0.139 A 
ATOM     12  N   UNL     1      -0.134  -2.805   1.757  0.00  0.00    -0.133 NA
ATOM     13  N   UNL     1       0.193  -4.034   1.570  0.00  0.00    -0.121 NA
ATOM     14  C   UNL     1       1.325  -4.100   0.909  0.00  0.00    +0.207 A 
ATOM     15  N   UNL     1       1.724  -2.814   0.668  0.00  0.00    -0.274 N 
ATOM     16  S   UNL     1       2.170  -5.567   0.421  0.00  0.00    -0.009 SA
BRANCH  11  17
ATOM     17  C   UNL     1       0.742  -0.511   1.242  0.00  0.00    +0.076 C 
BRANCH  17  19
ATOM     18  C   UNL     1      -0.019   1.526   0.010  0.00  0.00    +0.004 C 
ATOM     19  C   UNL     1       0.002  -0.004   0.002  0.00  0.00    +0.004 C 
ENDBRANCH  17  19
ENDBRANCH  11  17
ENDBRANCH   1  15
TORSDOF 3
