REMARK  Name = ZINC09244434
REMARK  6 active torsions:
REMARK  status: ('A' for Active; 'I' for Inactive)
REMARK    1  A    between atoms: C_3  and  C_6
REMARK    2  A    between atoms: C_6  and  N_7
REMARK    3  A    between atoms: C_10  and  C_22
REMARK    4  A    between atoms: N_14  and  N_15
REMARK    5  A    between atoms: C_22  and  C_23
REMARK    6  A    between atoms: N_25  and  C_26
REMARK                            x       y       z     vdW  Elec       q    Type
REMARK                         _______ _______ _______ _____ _____    ______ ____
ROOT
ATOM      1  N   UNL     1       4.104   0.594   1.351  0.00  0.00    -0.241 N 
ATOM      2  C   UNL     1       4.346   1.747   1.950  0.00  0.00    +0.235 C 
ATOM      3  O   UNL     1       4.169   2.811   1.396  0.00  0.00    -0.274 OA
ATOM      4  C   UNL     1       4.861   1.656   3.378  0.00  0.00    +0.149 C 
ATOM      5  S   UNL     1       4.900  -0.171   3.599  0.00  0.00    -0.075 S 
ATOM      6  C   UNL     1       4.298  -0.622   1.979  0.00  0.00    +0.186 C 
ATOM      7  N   UNL     1       4.091  -1.825   1.498  0.00  0.00    -0.125 NA
ENDROOT
BRANCH   7   8
ATOM      8  N   UNL     1       4.347  -2.950   2.292  0.00  0.00    -0.135 NA
ATOM      9  C   UNL     1       4.142  -4.142   1.815  0.00  0.00    +0.135 C 
ATOM     10  C   UNL     1       3.631  -4.382   0.403  0.00  0.00    +0.152 C 
ATOM     11  S   UNL     1       3.572  -6.221   0.386  0.00  0.00    -0.060 S 
ATOM     12  C   UNL     1       4.158  -6.503   2.049  0.00  0.00    +0.277 C 
ATOM     13  O   UNL     1       4.328  -7.570   2.609  0.00  0.00    -0.263 OA
ATOM     14  N   UNL     1       4.374  -5.270   2.539  0.00  0.00    -0.263 N 
ATOM     15  H   UNL     1       4.705  -5.182   3.447  0.00  0.00    +0.157 HD
ENDBRANCH   7   8
BRANCH   1  16
ATOM     16  C   UNL     1       3.605   0.605  -0.027  0.00  0.00    +0.189 C 
BRANCH  16  19
ATOM     17  C   UNL     1      -0.007   1.333  -0.001  0.00  0.00    +0.041 A 
ATOM     18  C   UNL     1       1.341   1.756  -0.011  0.00  0.00    +0.046 A 
ATOM     19  C   UNL     1       2.099   0.645  -0.016  0.00  0.00    +0.123 A 
ATOM     20  O   UNL     1       1.285  -0.423  -0.009  0.00  0.00    -0.466 OA
ATOM     21  C   UNL     1       0.006  -0.012  -0.000  0.00  0.00    +0.195 A 
ENDBRANCH  16  19
ENDBRANCH   1  16
BRANCH   4  22
ATOM     22  C   UNL     1       6.261   2.261   3.502  0.00  0.00    +0.120 C 
BRANCH  22  23
ATOM     23  C   UNL     1       6.681   2.262   4.949  0.00  0.00    +0.219 C 
ATOM     24  O   UNL     1       5.935   1.823   5.798  0.00  0.00    -0.275 OA
ATOM     25  N   UNL     1       7.887   2.752   5.300  0.00  0.00    -0.285 N 
ATOM     26  H   UNL     1       8.511   3.041   4.616  0.00  0.00    +0.155 HD
BRANCH  25  27
ATOM     27  C   UNL     1       8.239   2.842   6.652  0.00  0.00    +0.033 A 
ATOM     28  C   UNL     1       9.016   3.903   7.098  0.00  0.00    +0.025 A 
ATOM     29  C   UNL     1       9.362   3.990   8.433  0.00  0.00    +0.022 A 
ATOM     30  C   UNL     1       8.935   3.022   9.324  0.00  0.00    +0.041 A 
ATOM     31  C   UNL     1       8.160   1.964   8.882  0.00  0.00    +0.022 A 
ATOM     32  C   UNL     1       7.807   1.875   7.549  0.00  0.00    +0.025 A 
ATOM     33 CL   UNL     1       9.372   3.134  11.001  0.00  0.00    -0.084 Cl
ENDBRANCH  25  27
ENDBRANCH  22  23
ENDBRANCH   4  22
TORSDOF 6
