REMARK  Name = ZINC03244875
REMARK  4 active torsions:
REMARK  status: ('A' for Active; 'I' for Inactive)
REMARK    1  A    between atoms: C_3  and  C_19
REMARK    2  A    between atoms: C_5  and  C_11
REMARK    3  A    between atoms: N_21  and  C_22
REMARK    4  A    between atoms: C_27  and  C_28
REMARK                            x       y       z     vdW  Elec       q    Type
REMARK                         _______ _______ _______ _____ _____    ______ ____
ROOT
ATOM      1  C   UNL     1       0.462   6.835  -0.964  0.00  0.00    +0.029 C 
ATOM      2  C   UNL     1       1.657   6.280  -1.010  0.00  0.00    +0.019 C 
ATOM      3  C   UNL     1       2.295   5.674   0.225  0.00  0.00    +0.144 C 
ATOM      4  C   UNL     1       3.729   6.211   0.317  0.00  0.00    +0.126 C 
ATOM      5  N   UNL     1       4.394   6.046  -0.975  0.00  0.00    -0.291 N 
ATOM      6  C   UNL     1       3.730   6.095  -2.138  0.00  0.00    +0.304 C 
ATOM      7  O   UNL     1       4.359   6.020  -3.175  0.00  0.00    -0.253 OA
ATOM      8  N   UNL     1       2.392   6.224  -2.199  0.00  0.00    -0.273 N 
ATOM      9  H   UNL     1       5.352   5.895  -0.991  0.00  0.00    +0.151 HD
ATOM     10  H   UNL     1       1.942   6.278  -3.057  0.00  0.00    +0.156 HD
ENDROOT
BRANCH   4  11
ATOM     11  C   UNL     1       3.696   7.672   0.681  0.00  0.00    +0.027 A 
ATOM     12  C   UNL     1       3.342   8.616  -0.269  0.00  0.00    +0.130 A 
ATOM     13  C   UNL     1       3.308   9.958   0.069  0.00  0.00    +0.039 A 
ATOM     14  C   UNL     1       3.635  10.356   1.352  0.00  0.00    +0.004 A 
ATOM     15  C   UNL     1       3.992   9.415   2.299  0.00  0.00    +0.020 A 
ATOM     16  C   UNL     1       4.023   8.073   1.964  0.00  0.00    +0.049 A 
ATOM     17 CL   UNL     1       4.473   6.892   3.154  0.00  0.00    -0.083 Cl
ATOM     18  F   UNL     1       3.028   8.226  -1.523  0.00  0.00    -0.205 F 
ENDBRANCH   4  11
BRANCH   3  19
ATOM     19  C   UNL     1       2.318   4.172   0.104  0.00  0.00    +0.228 C 
ATOM     20  O   UNL     1       3.377   3.580   0.091  0.00  0.00    -0.275 OA
ATOM     21  N   UNL     1       1.162   3.485   0.009  0.00  0.00    -0.284 N 
ATOM     22  H   UNL     1       0.318   3.961  -0.046  0.00  0.00    +0.155 HD
BRANCH  21  23
ATOM     23  C   UNL     1       1.178   2.086  -0.009  0.00  0.00    +0.045 A 
ATOM     24  C   UNL     1       2.221   1.410  -0.627  0.00  0.00    +0.024 A 
ATOM     25  C   UNL     1       2.235   0.029  -0.643  0.00  0.00    +0.002 A 
ATOM     26  C   UNL     1       1.210  -0.680  -0.044  0.00  0.00    +0.001 A 
ATOM     27  C   UNL     1       0.169  -0.010   0.572  0.00  0.00    +0.014 A 
ATOM     28  C   UNL     1       0.150   1.371   0.592  0.00  0.00    +0.076 A 
BRANCH  28  29
ATOM     29  C   UNL     1      -0.988   2.100   1.258  0.00  0.00    +0.419 C 
ATOM     30  F   UNL     1      -1.895   1.172   1.780  0.00  0.00    -0.166 F 
ATOM     31  F   UNL     1      -0.488   2.897   2.294  0.00  0.00    -0.166 F 
ATOM     32  F   UNL     1      -1.637   2.909   0.319  0.00  0.00    -0.166 F 
ENDBRANCH  28  29
ENDBRANCH  21  23
ENDBRANCH   3  19
TORSDOF 4
