REMARK  Name = ZINC40038673
REMARK  7 active torsions:
REMARK  status: ('A' for Active; 'I' for Inactive)
REMARK    1  A    between atoms: C_1  and  C_2
REMARK    2  A    between atoms: C_2  and  C_3
REMARK    3  A    between atoms: C_3  and  C_4
REMARK    4  A    between atoms: C_10  and  C_27
REMARK    5  A    between atoms: C_17  and  C_25
REMARK    6  A    between atoms: C_25  and  C_26
REMARK    7  A    between atoms: C_30  and  O_33
REMARK                            x       y       z     vdW  Elec       q    Type
REMARK                         _______ _______ _______ _____ _____    ______ ____
ROOT
ATOM      1  C   UNL     1       0.739  -2.004  -1.265  0.00  0.00    +0.104 A 
ATOM      2  N   UNL     1      -0.127  -2.861  -1.772  0.00  0.00    -0.145 NA
ATOM      3  N   UNL     1       0.039  -4.109  -1.694  0.00  0.00    -0.125 NA
ATOM      4  C   UNL     1       1.098  -4.637  -1.095  0.00  0.00    +0.191 A 
ATOM      5  S   UNL     1       1.949  -3.142  -0.597  0.00  0.00    -0.035 S 
ATOM      6  N   UNL     1       1.450  -5.968  -0.912  0.00  0.00    -0.230 N 
ATOM      7  C   UNL     1       0.682  -7.136  -1.375  0.00  0.00    +0.151 C 
ATOM      8  C   UNL     1       1.462  -8.334  -0.939  0.00  0.00    +0.072 A 
ATOM      9  C   UNL     1       1.201  -9.768  -1.099  0.00  0.00    +0.199 A 
ATOM     10  O   UNL     1       0.317 -10.209  -1.812  0.00  0.00    -0.287 OA
ATOM     11  C   UNL     1       2.117 -10.630  -0.312  0.00  0.00    +0.065 A 
ATOM     12  C   UNL     1       1.876 -11.999  -0.200  0.00  0.00    +0.019 A 
ATOM     13  C   UNL     1       2.726 -12.780   0.533  0.00  0.00    -0.047 A 
ATOM     14  C   UNL     1       3.825 -12.213   1.165  0.00  0.00    +0.007 A 
ATOM     15  C   UNL     1       4.079 -10.864   1.064  0.00  0.00    +0.047 A 
ATOM     16  C   UNL     1       3.228 -10.047   0.320  0.00  0.00    +0.139 A 
ATOM     17  O   UNL     1       3.502  -8.726   0.226  0.00  0.00    -0.450 OA
ATOM     18  C   UNL     1       2.579  -7.889  -0.289  0.00  0.00    +0.199 A 
ATOM     19  C   UNL     1       2.556  -6.417  -0.285  0.00  0.00    +0.289 C 
ATOM     20  O   UNL     1       3.409  -5.709   0.212  0.00  0.00    -0.266 OA
ENDROOT
BRANCH   7  21
ATOM     21  C   UNL     1       0.556  -7.115  -2.876  0.00  0.00    -0.022 A 
ATOM     22  C   UNL     1       1.624  -6.705  -3.652  0.00  0.00    +0.009 A 
ATOM     23  C   UNL     1       1.511  -6.684  -5.029  0.00  0.00    +0.046 A 
ATOM     24  C   UNL     1       0.325  -7.075  -5.632  0.00  0.00    +0.117 A 
ATOM     25  C   UNL     1      -0.746  -7.486  -4.851  0.00  0.00    +0.046 A 
ATOM     26  C   UNL     1      -0.626  -7.510  -3.475  0.00  0.00    +0.009 A 
BRANCH  24  27
ATOM     27  O   UNL     1       0.210  -7.054  -6.987  0.00  0.00    -0.507 OA
ATOM     28  H   UNL     1       0.470  -7.881  -7.416  0.00  0.00    +0.292 HD
ENDBRANCH  24  27
ENDBRANCH   7  21
BRANCH  13  29
ATOM     29  C   UNL     1       2.470 -14.260   0.657  0.00  0.00    +0.032 C 
ATOM     30  C   UNL     1       3.181 -14.997  -0.479  0.00  0.00    +0.009 C 
ENDBRANCH  13  29
BRANCH   1  31
ATOM     31  C   UNL     1       0.718  -0.497  -1.257  0.00  0.00    +0.064 C 
BRANCH  31  33
ATOM     32  C   UNL     1      -0.019   1.526   0.010  0.00  0.00    +0.004 C 
ATOM     33  C   UNL     1       0.002  -0.004   0.002  0.00  0.00    +0.003 C 
ENDBRANCH  31  33
ENDBRANCH   1  31
TORSDOF 5
