REMARK  Name = ZINC35707166
REMARK  7 active torsions:
REMARK  status: ('A' for Active; 'I' for Inactive)
REMARK    1  A    between atoms: C_1  and  C_2
REMARK    2  A    between atoms: C_6  and  C_8
REMARK    3  A    between atoms: C_22  and  C_24
REMARK    4  A    between atoms: C_24  and  N_25
REMARK    5  A    between atoms: N_25  and  C_26
REMARK    6  A    between atoms: N_31  and  C_32
REMARK    7  A    between atoms: C_36  and  C_38
REMARK                            x       y       z     vdW  Elec       q    Type
REMARK                         _______ _______ _______ _____ _____    ______ ____
ROOT
ATOM      1  C   UNL     1       0.360  -0.657   3.718  0.00  0.00    +0.159 C 
ATOM      2  C   UNL     1      -0.964  -0.490   4.424  0.00  0.00    +0.049 A 
ATOM      3  C   UNL     1      -1.428   0.547   5.129  0.00  0.00    +0.025 A 
ATOM      4  C   UNL     1      -2.724   0.207   5.577  0.00  0.00    +0.020 A 
ATOM      5  C   UNL     1      -2.999  -1.037   5.123  0.00  0.00    +0.092 A 
ATOM      6  N   UNL     1      -1.928  -1.475   4.419  0.00  0.00    -0.316 N 
ATOM      7  C   UNL     1      -1.716  -2.696   3.761  0.00  0.00    +0.068 A 
ATOM      8  C   UNL     1      -2.747  -3.584   3.524  0.00  0.00    +0.028 A 
ATOM      9  C   UNL     1      -2.490  -4.772   2.863  0.00  0.00    +0.002 A 
ATOM     10  C   UNL     1      -1.207  -5.069   2.440  0.00  0.00    +0.002 A 
ATOM     11  C   UNL     1      -0.171  -4.185   2.677  0.00  0.00    +0.025 A 
ATOM     12  C   UNL     1      -0.415  -2.994   3.342  0.00  0.00    +0.061 A 
ATOM     13  N   UNL     1       0.632  -2.100   3.610  0.00  0.00    -0.255 N 
ATOM     14  C   UNL     1       1.888  -2.562   3.771  0.00  0.00    +0.238 C 
ATOM     15  O   UNL     1       2.098  -3.756   3.788  0.00  0.00    -0.273 OA
ENDROOT
BRANCH   1  21
ATOM     16  C   UNL     1       1.349   3.125   0.594  0.00  0.00    +0.044 C 
ATOM     17  C   UNL     1       0.758   1.762   0.848  0.00  0.00    -0.050 A 
ATOM     18  C   UNL     1       0.148   1.071  -0.183  0.00  0.00    +0.003 A 
ATOM     19  C   UNL     1      -0.394  -0.179   0.050  0.00  0.00    +0.001 A 
ATOM     20  C   UNL     1      -0.325  -0.738   1.312  0.00  0.00    +0.006 A 
ATOM     21  C   UNL     1       0.285  -0.048   2.342  0.00  0.00    -0.021 A 
ATOM     22  C   UNL     1       0.831   1.201   2.108  0.00  0.00    +0.009 A 
ENDBRANCH   1  21
BRANCH  14  23
ATOM     23  C   UNL     1       3.032  -1.593   3.928  0.00  0.00    +0.205 C 
BRANCH  23  24
ATOM     24  N   UNL     1       4.298  -2.331   3.941  0.00  0.00    -0.274 N 
ATOM     25  C   UNL     1       4.808  -2.773   5.108  0.00  0.00    +0.307 C 
ATOM     26  O   UNL     1       4.268  -2.481   6.157  0.00  0.00    -0.252 OA
ATOM     27  N   UNL     1       5.917  -3.539   5.111  0.00  0.00    -0.269 N 
ATOM     28  H   UNL     1       6.406  -3.688   4.287  0.00  0.00    +0.156 HD
BRANCH  27  29
ATOM     29  C   UNL     1       6.363  -4.120   6.304  0.00  0.00    +0.036 A 
ATOM     30  C   UNL     1       5.444  -4.535   7.261  0.00  0.00    +0.023 A 
ATOM     31  C   UNL     1       5.878  -5.108   8.441  0.00  0.00    +0.003 A 
ATOM     32  C   UNL     1       7.228  -5.274   8.677  0.00  0.00    +0.019 A 
ATOM     33  C   UNL     1       8.159  -4.861   7.722  0.00  0.00    +0.054 A 
ATOM     34  C   UNL     1       7.720  -4.287   6.528  0.00  0.00    +0.042 A 
BRANCH  33  35
ATOM     35  C   UNL     1       9.560  -5.032   7.964  0.00  0.00    +0.099 C 
ATOM     36  N   UNL     1      10.672  -5.167   8.156  0.00  0.00    -0.191 NA
ENDBRANCH  33  35
ENDBRANCH  27  29
BRANCH  24  37
ATOM     37  C   UNL     1       5.010  -2.587   2.686  0.00  0.00    +0.078 C 
ATOM     38  C   UNL     1       4.551  -1.821   1.444  0.00  0.00    +0.024 C 
ATOM     39  C   UNL     1       4.246  -3.314   1.577  0.00  0.00    +0.024 C 
ENDBRANCH  24  37
ENDBRANCH  23  24
ENDBRANCH  14  23
TORSDOF 6
