REMARK  Name = ZINC09484261
REMARK  2 active torsions:
REMARK  status: ('A' for Active; 'I' for Inactive)
REMARK    1  A    between atoms: C_3  and  C_8
REMARK    2  A    between atoms: C_13  and  C_18
REMARK                            x       y       z     vdW  Elec       q    Type
REMARK                         _______ _______ _______ _____ _____    ______ ____
ROOT
ATOM      1  C   UNL     1       2.490   1.048  -0.016  0.00  0.00    +0.175 C 
ATOM      2  C   UNL     1       3.282   1.408   1.221  0.00  0.00    +0.041 C 
ATOM      3  C   UNL     1       4.357   2.224   1.173  0.00  0.00    +0.020 C 
ATOM      4  C   UNL     1       5.113   2.586   2.430  0.00  0.00    +0.063 C 
ATOM      5  C   UNL     1       5.047   1.423   3.422  0.00  0.00    +0.068 C 
ATOM      6  C   UNL     1       3.574   1.132   3.729  0.00  0.00    +0.091 C 
ATOM      7  C   UNL     1       2.853   0.852   2.440  0.00  0.00    +0.164 C 
ATOM      8  O   UNL     1       1.877   0.128   2.451  0.00  0.00    -0.292 OA
ATOM      9  N   UNL     1       4.806   2.763  -0.009  0.00  0.00    -0.287 N 
ATOM     10  C   UNL     1       4.321   2.231  -1.193  0.00  0.00    +0.218 A 
ATOM     11  N   UNL     1       3.236   1.418  -1.212  0.00  0.00    -0.221 N 
ATOM     12  N   UNL     1       3.032   1.061  -2.544  0.00  0.00    -0.156 NA
ATOM     13  C   UNL     1       3.967   1.657  -3.242  0.00  0.00    +0.247 A 
ATOM     14  N   UNL     1       4.746   2.366  -2.419  0.00  0.00    -0.201 NA
ATOM     15  H   UNL     1       5.443   3.494  -0.014  0.00  0.00    +0.155 HD
ENDROOT
BRANCH   1  18
ATOM     16  C   UNL     1      -0.050   3.842   0.023  0.00  0.00    +0.003 A 
ATOM     17  C   UNL     1       1.156   3.166   0.007  0.00  0.00    +0.006 A 
ATOM     18  C   UNL     1       1.175   1.783   0.000  0.00  0.00    -0.016 A 
ATOM     19  C   UNL     1      -0.013   1.076   0.008  0.00  0.00    +0.044 A 
ATOM     20  C   UNL     1      -1.221   1.752   0.017  0.00  0.00    +0.124 A 
ATOM     21  C   UNL     1      -1.238   3.137   0.030  0.00  0.00    +0.038 A 
ATOM     22  F   UNL     1      -2.382   1.061   0.019  0.00  0.00    -0.205 F 
ENDBRANCH   1  18
BRANCH   5  23
ATOM     23  C   UNL     1       5.766   1.798   4.692  0.00  0.00    +0.109 A 
ATOM     24  C   UNL     1       6.825   1.155   5.216  0.00  0.00    +0.045 A 
ATOM     25  C   UNL     1       7.176   1.842   6.401  0.00  0.00    +0.041 A 
ATOM     26  C   UNL     1       6.306   2.859   6.534  0.00  0.00    +0.195 A 
ATOM     27  O   UNL     1       5.454   2.827   5.497  0.00  0.00    -0.468 OA
ENDBRANCH   5  23
TORSDOF 2
