REMARK  Name = ZINC04168304
REMARK  13 active torsions:
REMARK  status: ('A' for Active; 'I' for Inactive)
REMARK    1  A    between atoms: C_1  and  C_2
REMARK    2  A    between atoms: C_2  and  C_3
REMARK    3  A    between atoms: C_2  and  C_4
REMARK    4  A    between atoms: C_2  and  C_5
REMARK    5  A    between atoms: C_12  and  N_30
REMARK    6  A    between atoms: C_13  and  C_28
REMARK    7  A    between atoms: C_14  and  C_16
REMARK    8  A    between atoms: C_19  and  O_26
REMARK    9  A    between atoms: C_20  and  O_24
REMARK   10  A    between atoms: C_21  and  O_22
REMARK   11  A    between atoms: O_22  and  C_23
REMARK   12  A    between atoms: O_24  and  C_25
REMARK   13  A    between atoms: O_26  and  C_27
REMARK                            x       y       z     vdW  Elec       q    Type
REMARK                         _______ _______ _______ _____ _____    ______ ____
ROOT
ATOM      1  C   UNL     1       0.758  -0.237  -1.225  0.00  0.00    +0.049 A 
ATOM      2  C   UNL     1       0.826  -1.516  -1.623  0.00  0.00    +0.050 A 
ATOM      3  C   UNL     1       1.522  -1.558  -2.851  0.00  0.00    +0.245 A 
ATOM      4  N   UNL     1       1.856  -0.340  -3.166  0.00  0.00    -0.135 NA
ATOM      5  N   UNL     1       1.382   0.517  -2.160  0.00  0.00    -0.277 N 
ATOM      6  H   UNL     1       1.486   1.481  -2.138  0.00  0.00    +0.189 HD
ATOM      7  O   UNL     1       1.749  -2.725  -3.512  0.00  0.00    -0.421 OA
ATOM      8  C   UNL     1       1.062  -3.811  -3.107  0.00  0.00    +0.201 C 
ATOM      9  C   UNL     1       0.371  -3.893  -1.951  0.00  0.00    +0.098 C 
ATOM     10  C   UNL     1       0.291  -2.760  -0.959  0.00  0.00    +0.105 C 
ENDROOT
BRANCH  10  11
ATOM     11  C   UNL     1       1.123  -3.086   0.254  0.00  0.00    +0.011 A 
ATOM     12  C   UNL     1       2.498  -3.185   0.143  0.00  0.00    +0.012 A 
ATOM     13  C   UNL     1       3.265  -3.484   1.253  0.00  0.00    +0.050 A 
ATOM     14  C   UNL     1       2.658  -3.686   2.484  0.00  0.00    +0.165 A 
ATOM     15  C   UNL     1       1.277  -3.587   2.600  0.00  0.00    +0.204 A 
ATOM     16  C   UNL     1       0.509  -3.281   1.482  0.00  0.00    +0.169 A 
BRANCH  16  17
ATOM     17  O   UNL     1      -0.842  -3.178   1.592  0.00  0.00    -0.491 OA
ATOM     18  C   UNL     1      -1.602  -4.371   1.389  0.00  0.00    +0.277 C 
ENDBRANCH  16  17
BRANCH  15  19
ATOM     19  O   UNL     1       0.678  -3.785   3.806  0.00  0.00    -0.488 OA
ATOM     20  C   UNL     1       0.503  -2.637   4.639  0.00  0.00    +0.277 C 
ENDBRANCH  15  19
BRANCH  14  21
ATOM     21  O   UNL     1       3.414  -3.981   3.575  0.00  0.00    -0.491 OA
ATOM     22  C   UNL     1       4.827  -4.067   3.382  0.00  0.00    +0.277 C 
ENDBRANCH  14  21
ENDBRANCH  10  11
BRANCH   1  24
ATOM     23  C   UNL     1       0.093   1.800   0.023  0.00  0.00    +0.017 C 
ATOM     24  C   UNL     1       0.101   0.270   0.033  0.00  0.00    +0.004 C 
ATOM     25  C   UNL     1       0.880  -0.228   1.252  0.00  0.00    +0.017 C 
ATOM     26  C   UNL     1      -1.337  -0.247   0.101  0.00  0.00    +0.017 C 
ENDBRANCH   1  24
BRANCH   8  27
ATOM     27  N   UNL     1       1.065  -4.911  -3.929  0.00  0.00    -0.328 N 
ATOM     28  H   UNL     1       1.550  -4.888  -4.768  0.00  0.00    +0.145 HD
ATOM     29  H   UNL     1       0.581  -5.711  -3.670  0.00  0.00    +0.145 HD
ENDBRANCH   8  27
BRANCH   9  30
ATOM     30  C   UNL     1      -0.317  -5.112  -1.652  0.00  0.00    +0.101 C 
ATOM     31  N   UNL     1      -0.864  -6.079  -1.414  0.00  0.00    -0.191 NA
ENDBRANCH   9  30
TORSDOF 7
