REMARK  Name = ZINC62467505
REMARK  7 active torsions:
REMARK  status: ('A' for Active; 'I' for Inactive)
REMARK    1  A    between atoms: C_1  and  C_2
REMARK    2  A    between atoms: C_2  and  C_3
REMARK    3  A    between atoms: C_3  and  O_4
REMARK    4  A    between atoms: O_4  and  C_5
REMARK    5  A    between atoms: C_8  and  C_12
REMARK    6  A    between atoms: C_10  and  N_11
REMARK    7  A    between atoms: C_13  and  C_17
REMARK                            x       y       z     vdW  Elec       q    Type
REMARK                         _______ _______ _______ _____ _____    ______ ____
ROOT
ATOM      1  C   UNL     1       2.009  -3.162  -1.726  0.00  0.00    +0.141 A 
ATOM      2  C   UNL     1       2.329  -2.253  -2.723  0.00  0.00    +0.048 A 
ATOM      3  C   UNL     1       2.772  -2.698  -3.951  0.00  0.00    +0.014 A 
ATOM      4  C   UNL     1       2.899  -4.067  -4.194  0.00  0.00    +0.004 A 
ATOM      5  C   UNL     1       2.578  -4.983  -3.192  0.00  0.00    +0.036 A 
ATOM      6  C   UNL     1       2.139  -4.531  -1.959  0.00  0.00    +0.067 A 
ENDROOT
BRANCH   4   7
ATOM      7  C   UNL     1       3.374  -4.545  -5.511  0.00  0.00    +0.092 A 
ATOM      8  C   UNL     1       2.765  -5.617  -6.180  0.00  0.00    +0.128 A 
ATOM      9  S   UNL     1       3.767  -5.692  -7.656  0.00  0.00    -0.068 S 
ATOM     10  C   UNL     1       4.809  -4.420  -7.300  0.00  0.00    +0.157 A 
ATOM     11  N   UNL     1       4.392  -3.987  -6.135  0.00  0.00    -0.247 NA
BRANCH   8  12
ATOM     12  C   UNL     1       1.664  -6.416  -5.792  0.00  0.00    +0.395 C 
ATOM     13  O   UNL     1       0.907  -6.030  -4.909  0.00  0.00    -0.240 OA
ATOM     14  O   UNL     1       1.467  -7.495  -6.340  0.00  0.00    -0.240 OA
ENDBRANCH   8  12
ENDBRANCH   4   7
BRANCH   6  15
ATOM     15  N   UNL     1       1.821  -5.447  -0.950  0.00  0.00    -0.355 N 
ATOM     16  H   UNL     1       1.510  -5.130  -0.088  0.00  0.00    +0.142 HD
ATOM     17  H   UNL     1       1.912  -6.399  -1.113  0.00  0.00    +0.142 HD
ENDBRANCH   6  15
BRANCH   1  18
ATOM     18  O   UNL     1       1.573  -2.718  -0.517  0.00  0.00    -0.490 OA
BRANCH  18  19
ATOM     19  C   UNL     1       1.464  -1.304  -0.347  0.00  0.00    +0.229 C 
BRANCH  19  21
ATOM     20  C   UNL     1       0.845   0.517   1.249  0.00  0.00    +0.007 C 
ATOM     21  C   UNL     1       0.962  -0.998   1.066  0.00  0.00    +0.038 C 
ENDBRANCH  19  21
ENDBRANCH  18  19
ENDBRANCH   1  18
TORSDOF 6
