REMARK  Name = ZINC39609559
REMARK  8 active torsions:
REMARK  status: ('A' for Active; 'I' for Inactive)
REMARK    1  A    between atoms: C_1  and  C_2
REMARK    2  A    between atoms: C_2  and  O_3
REMARK    3  A    between atoms: O_3  and  C_4
REMARK    4  A    between atoms: C_8  and  C_10
REMARK    5  A    between atoms: C_10  and  C_11
REMARK    6  A    between atoms: C_11  and  N_12
REMARK    7  A    between atoms: C_13  and  C_15
REMARK    8  A    between atoms: C_26  and  C_28
REMARK                            x       y       z     vdW  Elec       q    Type
REMARK                         _______ _______ _______ _____ _____    ______ ____
ROOT
ATOM      1  C   UNL     1      -8.120  -6.024   2.628  0.00  0.00    +0.100 C 
ATOM      2  C   UNL     1      -8.131  -7.361   1.854  0.00  0.00    +0.121 C 
ATOM      3  N   UNL     1      -7.951  -8.399   2.896  0.00  0.00    -0.297 N 
ATOM      4  C   UNL     1      -8.764  -7.919   4.039  0.00  0.00    +0.115 C 
ATOM      5  C   UNL     1      -8.540  -6.394   4.061  0.00  0.00    -0.004 C 
ATOM      6  C   UNL     1      -9.832  -5.675   4.435  0.00  0.00    -0.010 C 
ATOM      7  C   UNL     1     -10.198  -6.012   5.883  0.00  0.00    -0.082 C 
ATOM      8  N   UNL     1      -9.108  -5.597   6.774  0.00  0.00    +0.379 N 
ATOM      9  C   UNL     1      -7.892  -6.361   6.468  0.00  0.00    -0.082 C 
ATOM     10  C   UNL     1      -7.429  -6.039   5.045  0.00  0.00    -0.010 C 
ATOM     11  C   UNL     1      -7.214  -9.525   2.822  0.00  0.00    +0.260 C 
ATOM     12  O   UNL     1      -7.167 -10.282   3.768  0.00  0.00    -0.271 OA
ATOM     13  H   UNL     1      -8.926  -4.613   6.646  0.00  0.00    -0.086 HD
ATOM     14  H   UNL     1      -9.376  -5.764   7.732  0.00  0.00    -0.086 HD
ENDROOT
BRANCH  11  15
ATOM     15  C   UNL     1      -6.450  -9.844   1.563  0.00  0.00    +0.296 C 
ATOM     16  C   UNL     1      -7.432 -10.101   0.412  0.00  0.00    +0.283 C 
ATOM     17  O   UNL     1      -6.674 -10.414  -0.762  0.00  0.00    -0.484 OA
ATOM     18  C   UNL     1      -5.662 -11.312  -0.615  0.00  0.00    +0.162 A 
ATOM     19  C   UNL     1      -5.132 -11.929  -1.738  0.00  0.00    +0.049 A 
ATOM     20  C   UNL     1      -4.102 -12.841  -1.606  0.00  0.00    +0.004 A 
ATOM     21  C   UNL     1      -3.597 -13.140  -0.354  0.00  0.00    +0.004 A 
ATOM     22  C   UNL     1      -4.122 -12.530   0.769  0.00  0.00    +0.049 A 
ATOM     23  C   UNL     1      -5.157 -11.615   0.643  0.00  0.00    +0.163 A 
ATOM     24  O   UNL     1      -5.668 -11.027   1.760  0.00  0.00    -0.473 OA
ENDBRANCH  11  15
BRANCH   1  26
ATOM     25  N   UNL     1      -6.578  -4.091   2.708  0.00  0.00    -0.315 N 
ATOM     26  C   UNL     1      -6.736  -5.427   2.624  0.00  0.00    +0.218 C 
ATOM     27  O   UNL     1      -5.764  -6.149   2.547  0.00  0.00    -0.275 OA
ATOM     28  H   UNL     1      -7.355  -3.514   2.770  0.00  0.00    +0.149 HD
BRANCH  25  29
ATOM     29  C   UNL     1      -5.233  -3.511   2.704  0.00  0.00    +0.109 C 
BRANCH  29  30
ATOM     30  C   UNL     1      -5.334  -1.988   2.807  0.00  0.00    +0.054 C 
BRANCH  30  35
ATOM     31  C   UNL     1      -2.006  -0.647   3.992  0.00  0.00    +0.121 A 
ATOM     32  C   UNL     1      -1.409  -0.294   2.790  0.00  0.00    +0.045 A 
ATOM     33  C   UNL     1      -2.084  -0.490   1.601  0.00  0.00    +0.004 A 
ATOM     34  C   UNL     1      -3.353  -1.039   1.608  0.00  0.00    +0.004 A 
ATOM     35  C   UNL     1      -3.950  -1.391   2.804  0.00  0.00    -0.042 A 
ATOM     36  C   UNL     1      -3.277  -1.201   3.995  0.00  0.00    +0.049 A 
BRANCH  31  37
ATOM     37  O   UNL     1      -1.344  -0.455   5.163  0.00  0.00    -0.492 OA
BRANCH  37  39
ATOM     38  C   UNL     1       0.545   0.260   6.491  0.00  0.00    +0.048 C 
ATOM     39  C   UNL     1      -0.038   0.121   5.083  0.00  0.00    +0.225 C 
ENDBRANCH  37  39
ENDBRANCH  31  37
ENDBRANCH  30  35
ENDBRANCH  29  30
ENDBRANCH  25  29
ENDBRANCH   1  26
TORSDOF 7
