REMARK  Name = ZINC39030405
REMARK  6 active torsions:
REMARK  status: ('A' for Active; 'I' for Inactive)
REMARK    1  A    between atoms: C_1  and  C_2
REMARK    2  A    between atoms: C_2  and  C_3
REMARK    3  A    between atoms: C_2  and  C_4
REMARK    4  A    between atoms: C_2  and  C_5
REMARK    5  A    between atoms: C_8  and  C_11
REMARK    6  A    between atoms: N_19  and  C_20
REMARK                            x       y       z     vdW  Elec       q    Type
REMARK                         _______ _______ _______ _____ _____    ______ ____
ROOT
ATOM      1  C   UNL     1       2.707  -1.870  -4.754  0.00  0.00    +0.223 C 
ATOM      2  N   UNL     1       4.024  -2.462  -4.420  0.00  0.00    -0.166 NA
ATOM      3  N   UNL     1       5.021  -1.940  -4.867  0.00  0.00    -0.130 NA
ATOM      4  C   UNL     1       5.024  -0.824  -5.675  0.00  0.00    +0.185 C 
ATOM      5  N   UNL     1       6.049  -0.185  -6.209  0.00  0.00    -0.247 N 
ATOM      6  C   UNL     1       5.839   0.898  -6.977  0.00  0.00    +0.310 C 
ATOM      7  O   UNL     1       4.704   1.290  -7.180  0.00  0.00    -0.252 OA
ATOM      8  N   UNL     1       6.884   1.550  -7.523  0.00  0.00    -0.269 N 
ATOM      9  S   UNL     1       3.272  -0.467  -5.809  0.00  0.00    -0.055 S 
ATOM     10  H   UNL     1       7.790   1.280  -7.308  0.00  0.00    +0.156 HD
ATOM     11  H   UNL     1       6.953  -0.497  -6.047  0.00  0.00    +0.158 HD
ENDROOT
BRANCH   8  12
ATOM     12  C   UNL     1       6.662   2.618  -8.400  0.00  0.00    +0.035 A 
ATOM     13  C   UNL     1       7.516   2.822  -9.476  0.00  0.00    +0.025 A 
ATOM     14  C   UNL     1       7.294   3.876 -10.341  0.00  0.00    +0.022 A 
ATOM     15  C   UNL     1       6.224   4.729 -10.134  0.00  0.00    +0.041 A 
ATOM     16  C   UNL     1       5.372   4.527  -9.062  0.00  0.00    +0.022 A 
ATOM     17  C   UNL     1       5.586   3.471  -8.198  0.00  0.00    +0.025 A 
ATOM     18 CL   UNL     1       5.949   6.053 -11.222  0.00  0.00    -0.084 Cl
ENDBRANCH   8  12
BRANCH   1  22
ATOM     19  C   UNL     1       0.687  -0.482  -1.256  0.00  0.00    -0.042 A 
ATOM     20  C   UNL     1       0.023  -1.284  -2.166  0.00  0.00    +0.004 A 
ATOM     21  C   UNL     1       0.676  -1.733  -3.298  0.00  0.00    +0.007 A 
ATOM     22  C   UNL     1       1.994  -1.380  -3.520  0.00  0.00    -0.011 A 
ATOM     23  C   UNL     1       2.658  -0.578  -2.611  0.00  0.00    +0.007 A 
ATOM     24  C   UNL     1       2.003  -0.126  -1.481  0.00  0.00    +0.004 A 
BRANCH  19  26
ATOM     25  C   UNL     1      -0.052   1.537  -0.021  0.00  0.00    +0.015 C 
ATOM     26  C   UNL     1      -0.026   0.007  -0.021  0.00  0.00    -0.013 C 
ATOM     27  C   UNL     1       0.710  -0.491   1.224  0.00  0.00    +0.015 C 
ATOM     28  C   UNL     1      -1.459  -0.528  -0.014  0.00  0.00    +0.015 C 
ENDBRANCH  19  26
ENDBRANCH   1  22
TORSDOF 3
