REMARK  Name = ZINC36147028
REMARK  14 active torsions:
REMARK  status: ('A' for Active; 'I' for Inactive)
REMARK    1  A    between atoms: C_1  and  O_2
REMARK    2  A    between atoms: O_2  and  C_3
REMARK    3  A    between atoms: C_6  and  C_9
REMARK    4  A    between atoms: C_12  and  C_15
REMARK    5  A    between atoms: C_15  and  N_16
REMARK    6  A    between atoms: N_16  and  C_17
REMARK    7  A    between atoms: N_16  and  C_25
REMARK    8  A    between atoms: C_17  and  C_18
REMARK    9  A    between atoms: C_25  and  C_26
REMARK   10  A    between atoms: C_26  and  C_28
REMARK   11  A    between atoms: C_26  and  O_36
REMARK   12  A    between atoms: C_28  and  O_29
REMARK   13  A    between atoms: O_29  and  C_30
REMARK   14  A    between atoms: C_30  and  C_31
REMARK                            x       y       z     vdW  Elec       q    Type
REMARK                         _______ _______ _______ _____ _____    ______ ____
ROOT
ATOM      1  N   UNL     1       4.539  -5.179   7.582  0.00  0.00    +0.387 N 
ATOM      2  H   UNL     1       5.371  -5.114   7.015  0.00  0.00    -0.081 HD
ENDROOT
BRANCH   1   3
ATOM      3  C   UNL     1       3.353  -5.154   6.717  0.00  0.00    -0.030 C 
BRANCH   3   7
ATOM      4  C   UNL     1       2.054  -2.411   4.654  0.00  0.00    +0.091 C 
ATOM      5  N   UNL     1       2.787  -1.823   5.540  0.00  0.00    -0.089 NA
ATOM      6  O   UNL     1       3.484  -2.733   6.367  0.00  0.00    -0.392 OA
ATOM      7  C   UNL     1       3.483  -4.014   5.705  0.00  0.00    +0.194 C 
ATOM      8  C   UNL     1       2.213  -3.910   4.824  0.00  0.00    +0.104 C 
BRANCH   4  12
ATOM      9  C   UNL     1      -0.391  -0.481   1.769  0.00  0.00    +0.120 A 
ATOM     10  C   UNL     1       0.353   0.277   2.665  0.00  0.00    +0.046 A 
ATOM     11  C   UNL     1       1.148  -0.346   3.602  0.00  0.00    +0.013 A 
ATOM     12  C   UNL     1       1.204  -1.741   3.652  0.00  0.00    -0.000 A 
ATOM     13  C   UNL     1       0.454  -2.499   2.749  0.00  0.00    +0.013 A 
ATOM     14  C   UNL     1      -0.343  -1.868   1.818  0.00  0.00    +0.046 A 
BRANCH   9  16
ATOM     15  C   UNL     1      -1.177   1.566   0.851  0.00  0.00    +0.277 C 
ATOM     16  O   UNL     1      -1.173   0.137   0.846  0.00  0.00    -0.495 OA
ENDBRANCH   9  16
ENDBRANCH   4  12
ENDBRANCH   3   7
ENDBRANCH   1   3
BRANCH   1  17
ATOM     17  C   UNL     1       4.491  -4.043   8.512  0.00  0.00    -0.041 C 
BRANCH  17  18
ATOM     18  C   UNL     1       3.177  -4.054   9.250  0.00  0.00    -0.046 A 
ATOM     19  C   UNL     1       2.083  -3.392   8.724  0.00  0.00    +0.003 A 
ATOM     20  C   UNL     1       0.878  -3.401   9.400  0.00  0.00    +0.000 A 
ATOM     21  C   UNL     1       0.765  -4.073  10.604  0.00  0.00    +0.001 A 
ATOM     22  C   UNL     1       1.858  -4.735  11.131  0.00  0.00    +0.020 A 
ATOM     23  C   UNL     1       3.063  -4.731  10.451  0.00  0.00    +0.042 A 
ATOM     24 CL   UNL     1       4.434  -5.568  11.109  0.00  0.00    -0.083 Cl
ENDBRANCH  17  18
ENDBRANCH   1  17
BRANCH   1  25
ATOM     25  C   UNL     1       4.564  -6.435   8.344  0.00  0.00    -0.044 C 
BRANCH  25  26
ATOM     26  C   UNL     1       5.914  -6.578   9.049  0.00  0.00    +0.124 C 
BRANCH  26  27
ATOM     27  O   UNL     1       6.954  -6.668   8.072  0.00  0.00    -0.391 OA
ATOM     28  H   UNL     1       6.865  -7.420   7.471  0.00  0.00    +0.210 HD
ENDBRANCH  26  27
BRANCH  26  29
ATOM     29  C   UNL     1       5.910  -7.845   9.907  0.00  0.00    +0.189 C 
BRANCH  29  30
ATOM     30  O   UNL     1       7.125  -7.918  10.654  0.00  0.00    -0.370 OA
BRANCH  30  31
ATOM     31  C   UNL     1       7.223  -9.070  11.494  0.00  0.00    +0.234 C 
BRANCH  31  32
ATOM     32  C   UNL     1       8.537  -9.044  12.231  0.00  0.00    +0.130 A 
ATOM     33  C   UNL     1       8.754  -8.482  13.434  0.00  0.00    +0.047 A 
ATOM     34  C   UNL     1      10.117  -8.690  13.744  0.00  0.00    +0.041 A 
ATOM     35  C   UNL     1      10.653  -9.367  12.712  0.00  0.00    +0.195 A 
ATOM     36  O   UNL     1       9.690  -9.584  11.802  0.00  0.00    -0.465 OA
ENDBRANCH  31  32
ENDBRANCH  30  31
ENDBRANCH  29  30
ENDBRANCH  26  29
ENDBRANCH  25  26
ENDBRANCH   1  25
TORSDOF 13
