REMARK  Name = ZINC04982757
REMARK  3 active torsions:
REMARK  status: ('A' for Active; 'I' for Inactive)
REMARK    1  A    between atoms: C_6  and  C_7
REMARK    2  A    between atoms: C_18  and  S_23
REMARK    3  A    between atoms: S_23  and  N_26
REMARK                            x       y       z     vdW  Elec       q    Type
REMARK                         _______ _______ _______ _____ _____    ______ ____
ROOT
ATOM      1  C   UNL     1       0.652   3.208  -2.073  0.00  0.00    +0.105 C 
ATOM      2  C   UNL     1       0.691   3.315  -0.546  0.00  0.00    +0.029 C 
ATOM      3  C   UNL     1       1.222   1.957   0.001  0.00  0.00    +0.033 C 
ATOM      4  C   UNL     1      -0.013   1.076   0.008  0.00  0.00    -0.030 C 
ATOM      5  C   UNL     1      -1.100   1.808   0.017  0.00  0.00    -0.023 C 
ATOM      6  C   UNL     1      -0.741   3.275   0.021  0.00  0.00    +0.049 C 
ATOM      7  C   UNL     1      -1.711   4.076  -0.789  0.00  0.00    -0.018 A 
ATOM      8  C   UNL     1      -2.968   4.335  -0.259  0.00  0.00    +0.034 A 
ATOM      9  C   UNL     1      -3.890   5.074  -0.970  0.00  0.00    +0.105 A 
ATOM     10  C   UNL     1      -3.573   5.568  -2.223  0.00  0.00    +0.030 A 
ATOM     11  C   UNL     1      -2.327   5.316  -2.761  0.00  0.00    +0.025 A 
ATOM     12  C   UNL     1      -1.398   4.570  -2.046  0.00  0.00    +0.031 A 
ATOM     13  N   UNL     1      -0.141   4.321  -2.606  0.00  0.00    -0.336 N 
ATOM     14  H   UNL     1       0.199   4.871  -3.330  0.00  0.00    +0.147 HD
ENDROOT
BRANCH   1  20
ATOM     15  C   UNL     1      -1.359   1.767  -2.456  0.00  0.00    +0.006 A 
ATOM     16  C   UNL     1      -1.941   0.569  -2.825  0.00  0.00    +0.015 A 
ATOM     17  C   UNL     1      -1.147  -0.500  -3.200  0.00  0.00    +0.018 A 
ATOM     18  C   UNL     1       0.230  -0.367  -3.209  0.00  0.00    +0.015 A 
ATOM     19  C   UNL     1       0.812   0.832  -2.845  0.00  0.00    +0.006 A 
ATOM     20  C   UNL     1       0.017   1.900  -2.471  0.00  0.00    -0.027 A 
ATOM     21 BR   UNL     1      -1.942  -2.141  -3.699  0.00  0.00    -0.050 Br
ENDBRANCH   1  20
BRANCH   9  22
ATOM     22  S   UNL     1      -5.480   5.393  -0.280  0.00  0.00    +0.056 S 
ATOM     23  O   UNL     1      -5.339   5.286   1.130  0.00  0.00    -0.153 OA
ATOM     24  O   UNL     1      -5.968   6.569  -0.910  0.00  0.00    -0.153 OA
BRANCH  22  25
ATOM     25  N   UNL     1      -6.475   4.155  -0.750  0.00  0.00    -0.204 NA
ATOM     26  H   UNL     1      -7.212   3.882  -0.182  0.00  0.00    +0.144 HD
ATOM     27  H   UNL     1      -6.321   3.704  -1.595  0.00  0.00    +0.144 HD
ENDBRANCH  22  25
ENDBRANCH   9  22
TORSDOF 3
