REMARK  Name = ZINC39725950
REMARK  10 active torsions:
REMARK  status: ('A' for Active; 'I' for Inactive)
REMARK    1  A    between atoms: C_1  and  C_2
REMARK    2  A    between atoms: C_2  and  O_3
REMARK    3  A    between atoms: O_3  and  C_4
REMARK    4  A    between atoms: C_9  and  N_10
REMARK    5  A    between atoms: C_11  and  C_13
REMARK    6  A    between atoms: C_13  and  S_14
REMARK    7  A    between atoms: S_14  and  C_15
REMARK    8  A    between atoms: N_29  and  C_30
REMARK    9  A    between atoms: C_32  and  C_37
REMARK   10  A    between atoms: C_35  and  C_36
REMARK                            x       y       z     vdW  Elec       q    Type
REMARK                         _______ _______ _______ _____ _____    ______ ____
ROOT
ATOM      1  C   UNL     1      -9.183  -0.984  -0.381  0.00  0.00    +0.259 C 
ATOM      2  N   UNL     1      -9.013  -0.264  -1.646  0.00  0.00    -0.248 NA
ATOM      3  C   UNL     1      -8.884   1.020  -1.659  0.00  0.00    +0.101 C 
ATOM      4  C   UNL     1      -8.700   2.041  -2.716  0.00  0.00    +0.028 A 
ATOM      5  C   UNL     1      -8.597   1.996  -4.094  0.00  0.00    +0.012 A 
ATOM      6  C   UNL     1      -8.424   3.171  -4.811  0.00  0.00    +0.001 A 
ATOM      7  C   UNL     1      -8.355   4.385  -4.152  0.00  0.00    +0.002 A 
ATOM      8  C   UNL     1      -8.456   4.447  -2.776  0.00  0.00    +0.028 A 
ATOM      9  C   UNL     1      -8.631   3.275  -2.033  0.00  0.00    +0.074 A 
ATOM     10  N   UNL     1      -8.756   3.062  -0.699  0.00  0.00    -0.240 NA
ATOM     11  C   UNL     1      -8.905   1.802  -0.394  0.00  0.00    +0.152 C 
ATOM     12  C   UNL     1      -9.076   1.092   0.890  0.00  0.00    +0.274 C 
ATOM     13  O   UNL     1      -9.096   1.709   1.937  0.00  0.00    -0.268 OA
ATOM     14  N   UNL     1      -9.209  -0.251   0.887  0.00  0.00    -0.234 N 
ENDROOT
BRANCH  14  15
ATOM     15  C   UNL     1      -9.371  -0.941   2.092  0.00  0.00    +0.043 A 
ATOM     16  C   UNL     1      -8.258  -1.398   2.788  0.00  0.00    +0.027 A 
ATOM     17  C   UNL     1      -8.422  -2.079   3.978  0.00  0.00    -0.049 A 
ATOM     18  C   UNL     1      -9.692  -2.305   4.478  0.00  0.00    +0.004 A 
ATOM     19  C   UNL     1     -10.801  -1.852   3.788  0.00  0.00    +0.005 A 
ATOM     20  C   UNL     1     -10.644  -1.166   2.599  0.00  0.00    -0.029 A 
ATOM     21  C   UNL     1     -11.853  -0.666   1.852  0.00  0.00    +0.045 C 
ATOM     22  C   UNL     1      -7.216  -2.575   4.733  0.00  0.00    +0.044 C 
ENDBRANCH  14  15
BRANCH   1  23
ATOM     23  S   UNL     1      -7.845  -2.204  -0.271  0.00  0.00    -0.106 S 
BRANCH  23  24
ATOM     24  C   UNL     1      -6.341  -1.195  -0.160  0.00  0.00    +0.168 C 
BRANCH  24  26
ATOM     25  N   UNL     1      -3.903  -1.566   0.030  0.00  0.00    -0.282 N 
ATOM     26  C   UNL     1      -5.138  -2.097  -0.062  0.00  0.00    +0.227 C 
ATOM     27  O   UNL     1      -5.280  -3.302  -0.067  0.00  0.00    -0.275 OA
ATOM     28  H   UNL     1      -3.793  -0.606   0.115  0.00  0.00    +0.155 HD
BRANCH  25  34
ATOM     29  C   UNL     1      -1.584  -1.981   0.589  0.00  0.00    +0.142 A 
ATOM     30  C   UNL     1      -0.476  -2.812   0.565  0.00  0.00    +0.047 A 
ATOM     31  C   UNL     1      -0.554  -4.051  -0.043  0.00  0.00    +0.004 A 
ATOM     32  C   UNL     1      -1.736  -4.465  -0.628  0.00  0.00    +0.002 A 
ATOM     33  C   UNL     1      -2.846  -3.643  -0.608  0.00  0.00    +0.027 A 
ATOM     34  C   UNL     1      -2.777  -2.400   0.004  0.00  0.00    +0.076 A 
BRANCH  29  35
ATOM     35  O   UNL     1      -1.509  -0.762   1.187  0.00  0.00    -0.490 OA
BRANCH  35  37
ATOM     36  C   UNL     1      -0.362   0.995   2.386  0.00  0.00    +0.048 C 
ATOM     37  C   UNL     1      -0.254  -0.400   1.765  0.00  0.00    +0.226 C 
ENDBRANCH  35  37
ENDBRANCH  29  35
ENDBRANCH  25  34
ENDBRANCH  24  26
ENDBRANCH  23  24
ENDBRANCH   1  23
TORSDOF 7
