REMARK  Name = ZINC39663778
REMARK  13 active torsions:
REMARK  status: ('A' for Active; 'I' for Inactive)
REMARK    1  A    between atoms: C_1  and  C_2
REMARK    2  A    between atoms: C_2  and  C_4
REMARK    3  A    between atoms: C_2  and  O_34
REMARK    4  A    between atoms: C_8  and  C_17
REMARK    5  A    between atoms: N_19  and  C_20
REMARK    6  A    between atoms: C_20  and  C_21
REMARK    7  A    between atoms: C_21  and  C_23
REMARK    8  A    between atoms: C_21  and  N_31
REMARK    9  A    between atoms: C_26  and  O_29
REMARK   10  A    between atoms: O_29  and  C_30
REMARK   11  A    between atoms: N_31  and  C_32
REMARK   12  A    between atoms: N_31  and  C_33
REMARK   13  A    between atoms: O_34  and  C_35
REMARK                            x       y       z     vdW  Elec       q    Type
REMARK                         _______ _______ _______ _____ _____    ______ ____
ROOT
ATOM      1  C   UNL     1      -4.377   1.370   0.281  0.00  0.00    +0.256 C 
ATOM      2  O   UNL     1      -5.077   0.897   1.151  0.00  0.00    -0.272 OA
ATOM      3  N   UNL     1      -4.797   1.364  -1.000  0.00  0.00    -0.297 N 
ATOM      4  C   UNL     1      -4.085   1.884  -2.192  0.00  0.00    +0.121 C 
ATOM      5  C   UNL     1      -4.381   0.853  -3.304  0.00  0.00    +0.100 C 
ATOM      6  C   UNL     1      -5.688   0.170  -2.868  0.00  0.00    -0.004 C 
ATOM      7  C   UNL     1      -6.072   0.830  -1.536  0.00  0.00    +0.115 C 
ATOM      8  C   UNL     1      -5.460  -1.325  -2.662  0.00  0.00    -0.010 C 
ATOM      9  C   UNL     1      -6.787  -1.991  -2.285  0.00  0.00    -0.082 C 
ATOM     10  N   UNL     1      -7.769  -1.768  -3.352  0.00  0.00    +0.379 N 
ATOM     11  C   UNL     1      -8.052  -0.333  -3.481  0.00  0.00    -0.082 C 
ATOM     12  C   UNL     1      -6.779   0.404  -3.908  0.00  0.00    -0.010 C 
ATOM     13  H   UNL     1      -7.402  -2.116  -4.225  0.00  0.00    -0.086 HD
ATOM     14  H   UNL     1      -8.623  -2.259  -3.130  0.00  0.00    -0.086 HD
ENDROOT
BRANCH   5  15
ATOM     15  C   UNL     1      -3.265  -0.155  -3.395  0.00  0.00    +0.218 C 
ATOM     16  O   UNL     1      -2.618  -0.435  -2.408  0.00  0.00    -0.275 OA
ATOM     17  N   UNL     1      -2.985  -0.746  -4.573  0.00  0.00    -0.316 N 
ATOM     18  H   UNL     1      -3.502  -0.523  -5.363  0.00  0.00    +0.149 HD
BRANCH  17  19
ATOM     19  C   UNL     1      -1.899  -1.726  -4.662  0.00  0.00    +0.093 C 
BRANCH  19  20
ATOM     20  C   UNL     1      -1.708  -2.145  -6.121  0.00  0.00    -0.021 C 
BRANCH  20  21
ATOM     21  C   UNL     1      -1.261  -0.956  -6.931  0.00  0.00    -0.059 A 
ATOM     22  C   UNL     1       0.066  -0.567  -6.910  0.00  0.00    +0.005 A 
ATOM     23  C   UNL     1       0.479   0.523  -7.651  0.00  0.00    +0.046 A 
ATOM     24  C   UNL     1      -0.439   1.228  -8.417  0.00  0.00    +0.120 A 
ATOM     25  C   UNL     1      -1.769   0.835  -8.436  0.00  0.00    +0.046 A 
ATOM     26  C   UNL     1      -2.176  -0.259  -7.697  0.00  0.00    +0.005 A 
BRANCH  24  27
ATOM     27  O   UNL     1      -0.035   2.301  -9.146  0.00  0.00    -0.495 OA
ATOM     28  C   UNL     1      -1.034   2.978  -9.911  0.00  0.00    +0.277 C 
ENDBRANCH  24  27
ENDBRANCH  20  21
BRANCH  20  29
ATOM     29  N   UNL     1      -0.690  -3.201  -6.198  0.00  0.00    +0.382 N 
ATOM     30  C   UNL     1      -1.128  -4.362  -5.411  0.00  0.00    -0.096 C 
ATOM     31  C   UNL     1      -0.505  -3.602  -7.599  0.00  0.00    -0.096 C 
ATOM     32  H   UNL     1       0.182  -2.855  -5.828  0.00  0.00    -0.082 HD
ENDBRANCH  20  29
ENDBRANCH  19  20
ENDBRANCH  17  19
ENDBRANCH   5  15
BRANCH   1  34
ATOM     33  C   UNL     1      -3.054   3.466   0.343  0.00  0.00    +0.062 C 
ATOM     34  C   UNL     1      -3.037   1.964   0.631  0.00  0.00    +0.256 C 
BRANCH  34  35
ATOM     35  O   UNL     1      -2.769   1.748   2.018  0.00  0.00    -0.480 OA
BRANCH  35  36
ATOM     36  C   UNL     1      -1.464   1.734   2.400  0.00  0.00    +0.122 A 
ATOM     37  C   UNL     1      -1.127   1.423   3.709  0.00  0.00    +0.045 A 
ATOM     38  C   UNL     1       0.200   1.409   4.094  0.00  0.00    +0.004 A 
ATOM     39  C   UNL     1       1.191   1.706   3.176  0.00  0.00    +0.000 A 
ATOM     40  C   UNL     1       0.857   2.017   1.871  0.00  0.00    +0.004 A 
ATOM     41  C   UNL     1      -0.468   2.026   1.479  0.00  0.00    +0.045 A 
ENDBRANCH  35  36
ENDBRANCH  34  35
ENDBRANCH   1  34
TORSDOF 9
