REMARK  Name = ZINC39336663
REMARK  6 active torsions:
REMARK  status: ('A' for Active; 'I' for Inactive)
REMARK    1  A    between atoms: C_4  and  C_7
REMARK    2  A    between atoms: C_7  and  N_8
REMARK    3  A    between atoms: C_9  and  C_14
REMARK    4  A    between atoms: C_16  and  N_38
REMARK    5  A    between atoms: C_19  and  C_32
REMARK    6  A    between atoms: C_21  and  C_25
REMARK                            x       y       z     vdW  Elec       q    Type
REMARK                         _______ _______ _______ _____ _____    ______ ____
ROOT
ATOM      1  C   UNL     1       5.409   0.999   1.845  0.00  0.00    +0.233 C 
ATOM      2  C   UNL     1       4.687   2.189   2.520  0.00  0.00    +0.011 C 
ATOM      3  C   UNL     1       5.599   2.481   3.693  0.00  0.00    +0.011 A 
ATOM      4  C   UNL     1       5.426   3.228   4.853  0.00  0.00    -0.009 A 
ATOM      5  C   UNL     1       6.486   3.294   5.762  0.00  0.00    +0.037 A 
ATOM      6  C   UNL     1       7.661   2.613   5.464  0.00  0.00    +0.075 A 
ATOM      7  N   UNL     1       7.783   1.915   4.344  0.00  0.00    -0.213 NA
ATOM      8  C   UNL     1       6.802   1.830   3.451  0.00  0.00    +0.218 A 
ATOM      9  O   UNL     1       6.776   1.179   2.252  0.00  0.00    -0.466 OA
ENDROOT
BRANCH   6  10
ATOM     10  C   UNL     1       8.796   2.667   6.417  0.00  0.00    +0.001 A 
ATOM     11  C   UNL     1       8.681   3.391   7.602  0.00  0.00    +0.011 A 
ATOM     12  C   UNL     1       9.740   3.438   8.485  0.00  0.00    +0.020 A 
ATOM     13  C   UNL     1      10.916   2.767   8.196  0.00  0.00    +0.041 A 
ATOM     14  C   UNL     1      11.036   2.047   7.020  0.00  0.00    +0.020 A 
ATOM     15  C   UNL     1       9.980   1.988   6.133  0.00  0.00    +0.011 A 
ATOM     16 CL   UNL     1      12.245   2.831   9.311  0.00  0.00    -0.084 Cl
ENDBRANCH   6  10
BRANCH   1  18
ATOM     17  N   UNL     1       4.069  -1.183   1.665  0.00  0.00    -0.298 N 
ATOM     18  C   UNL     1       4.868  -0.312   2.354  0.00  0.00    +0.174 A 
ATOM     19  N   UNL     1       5.076  -0.827   3.533  0.00  0.00    -0.130 NA
ATOM     20  N   UNL     1       4.467  -1.955   3.635  0.00  0.00    -0.122 NA
ATOM     21  C   UNL     1       3.829  -2.220   2.519  0.00  0.00    +0.203 A 
ATOM     22  S   UNL     1       2.850  -3.647   2.185  0.00  0.00    -0.009 SA
BRANCH  17  23
ATOM     23  C   UNL     1       3.570  -1.030   0.296  0.00  0.00    +0.160 C 
BRANCH  23  27
ATOM     24  C   UNL     1      -0.174   1.026   0.364  0.00  0.00    +0.000 A 
ATOM     25  C   UNL     1       1.005   1.740   0.262  0.00  0.00    +0.000 A 
ATOM     26  C   UNL     1       2.217   1.075   0.240  0.00  0.00    +0.005 A 
ATOM     27  C   UNL     1       2.249  -0.305   0.321  0.00  0.00    -0.028 A 
ATOM     28  C   UNL     1       1.071  -1.019   0.424  0.00  0.00    +0.005 A 
ATOM     29  C   UNL     1      -0.141  -0.354   0.445  0.00  0.00    +0.000 A 
ENDBRANCH  23  27
ENDBRANCH  17  23
ENDBRANCH   1  18
BRANCH   4  30
ATOM     30  C   UNL     1       4.149   3.936   5.120  0.00  0.00    -0.017 A 
ATOM     31  C   UNL     1       2.948   3.231   5.131  0.00  0.00    +0.008 A 
ATOM     32  C   UNL     1       1.763   3.894   5.380  0.00  0.00    +0.001 A 
ATOM     33  C   UNL     1       1.768   5.257   5.617  0.00  0.00    +0.000 A 
ATOM     34  C   UNL     1       2.957   5.963   5.606  0.00  0.00    +0.001 A 
ATOM     35  C   UNL     1       4.148   5.308   5.364  0.00  0.00    +0.008 A 
ENDBRANCH   4  30
BRANCH   2  36
ATOM     36  N   UNL     1       4.612   3.341   1.612  0.00  0.00    +0.385 N 
ATOM     37  H   UNL     1       4.180   3.058   0.745  0.00  0.00    -0.089 HD
ATOM     38  H   UNL     1       4.061   4.071   2.039  0.00  0.00    -0.089 HD
ATOM     39  H   UNL     1       5.542   3.686   1.428  0.00  0.00    -0.089 HD
ENDBRANCH   2  36
TORSDOF 6
