REMARK  Name = ZINC36971393
REMARK  5 active torsions:
REMARK  status: ('A' for Active; 'I' for Inactive)
REMARK    1  A    between atoms: C_1  and  C_2
REMARK    2  A    between atoms: C_2  and  C_4
REMARK    3  A    between atoms: C_2  and  N_12
REMARK    4  A    between atoms: N_12  and  C_13
REMARK    5  A    between atoms: C_18  and  N_19
REMARK                            x       y       z     vdW  Elec       q    Type
REMARK                         _______ _______ _______ _____ _____    ______ ____
ROOT
ATOM      1  N   UNL     1       0.867  -0.034   1.390  0.00  0.00    -0.336 N 
ATOM      2  H   UNL     1       1.814  -0.242   1.359  0.00  0.00    +0.147 HD
ENDROOT
BRANCH   1   3
ATOM      3  C   UNL     1       0.105  -0.412   2.499  0.00  0.00    +0.058 A 
ATOM      4  C   UNL     1      -1.220  -0.009   2.602  0.00  0.00    +0.026 A 
ATOM      5  C   UNL     1      -1.971  -0.384   3.698  0.00  0.00    +0.022 A 
ATOM      6  C   UNL     1      -1.405  -1.160   4.694  0.00  0.00    +0.043 A 
ATOM      7  C   UNL     1      -0.085  -1.563   4.594  0.00  0.00    +0.054 A 
ATOM      8  C   UNL     1       0.669  -1.196   3.497  0.00  0.00    +0.148 A 
ATOM      9 CL   UNL     1      -2.352  -1.630   6.071  0.00  0.00    -0.083 Cl
BRANCH   8  10
ATOM     10  N   UNL     1       2.079  -1.633   3.387  0.00  0.00    +0.058 N 
ATOM     11  O   UNL     1       2.535  -1.940   2.310  0.00  0.00    -0.126 OA
ATOM     12  O   UNL     1       2.775  -1.681   4.374  0.00  0.00    -0.126 OA
ENDBRANCH   8  10
ENDBRANCH   1   3
BRANCH   1  14
ATOM     13  C   UNL     1       0.203   2.176   0.579  0.00  0.00    +0.033 C 
ATOM     14  C   UNL     1       0.236   0.677   0.275  0.00  0.00    +0.098 C 
BRANCH  14  15
ATOM     15  C   UNL     1       1.027   0.437  -0.985  0.00  0.00    -0.026 A 
ATOM     16  C   UNL     1       2.409   0.418  -0.940  0.00  0.00    +0.008 A 
ATOM     17  C   UNL     1       3.136   0.198  -2.095  0.00  0.00    +0.040 A 
ATOM     18  C   UNL     1       2.480  -0.004  -3.297  0.00  0.00    +0.142 A 
ATOM     19  C   UNL     1       1.096   0.015  -3.342  0.00  0.00    +0.076 A 
ATOM     20  C   UNL     1       0.371   0.231  -2.184  0.00  0.00    +0.028 A 
ATOM     21 CL   UNL     1       0.271  -0.237  -4.848  0.00  0.00    -0.081 Cl
ATOM     22  F   UNL     1       3.190  -0.218  -4.427  0.00  0.00    -0.204 F 
ENDBRANCH  14  15
ENDBRANCH   1  14
TORSDOF 4
