REMARK  Name = ZINC22613265
REMARK  6 active torsions:
REMARK  status: ('A' for Active; 'I' for Inactive)
REMARK    1  A    between atoms: C_1  and  C_2
REMARK    2  A    between atoms: C_2  and  C_4
REMARK    3  A    between atoms: C_2  and  O_16
REMARK    4  A    between atoms: O_16  and  C_17
REMARK    5  A    between atoms: C_17  and  C_19
REMARK    6  A    between atoms: C_24  and  N_25
REMARK                            x       y       z     vdW  Elec       q    Type
REMARK                         _______ _______ _______ _____ _____    ______ ____
ROOT
ATOM      1  C   UNL     1      -4.424  -1.097   1.592  0.00  0.00    +0.062 C 
ATOM      2  C   UNL     1      -3.983  -1.025   0.129  0.00  0.00    +0.259 C 
ENDROOT
BRANCH   2   3
ATOM      3  C   UNL     1      -3.903  -2.418  -0.441  0.00  0.00    +0.260 C 
ATOM      4  O   UNL     1      -2.822  -2.921  -0.666  0.00  0.00    -0.271 OA
ATOM      5  N   UNL     1      -5.033  -3.106  -0.700  0.00  0.00    -0.268 N 
ATOM      6  C   UNL     1      -6.349  -2.480  -0.508  0.00  0.00    +0.114 C 
ATOM      7  C   UNL     1      -7.253  -3.488   0.205  0.00  0.00    +0.024 C 
ATOM      8  C   UNL     1      -7.439  -4.711  -0.692  0.00  0.00    +0.038 C 
ATOM      9  C   UNL     1      -6.105  -5.231  -1.159  0.00  0.00    -0.026 A 
ATOM     10  C   UNL     1      -4.973  -4.432  -1.151  0.00  0.00    +0.040 A 
ATOM     11  C   UNL     1      -3.758  -4.942  -1.593  0.00  0.00    +0.024 A 
ATOM     12  C   UNL     1      -3.677  -6.246  -2.038  0.00  0.00    +0.002 A 
ATOM     13  C   UNL     1      -4.806  -7.044  -2.043  0.00  0.00    +0.000 A 
ATOM     14  C   UNL     1      -6.015  -6.539  -1.605  0.00  0.00    +0.005 A 
ENDBRANCH   2   3
BRANCH   2  15
ATOM     15  O   UNL     1      -2.678  -0.394   0.047  0.00  0.00    -0.449 OA
BRANCH  15  16
ATOM     16  C   UNL     1      -2.655   0.947  -0.093  0.00  0.00    +0.342 C 
ATOM     17  O   UNL     1      -3.696   1.570  -0.146  0.00  0.00    -0.245 OA
BRANCH  16  18
ATOM     18  C   UNL     1      -1.368   1.655  -0.183  0.00  0.00    +0.080 A 
ATOM     19  C   UNL     1      -0.171   0.934  -0.251  0.00  0.00    +0.019 A 
ATOM     20  C   UNL     1       1.029   1.601  -0.340  0.00  0.00    +0.039 A 
ATOM     21  C   UNL     1       1.060   2.990  -0.358  0.00  0.00    +0.125 A 
ATOM     22  C   UNL     1      -0.114   3.716  -0.286  0.00  0.00    +0.061 A 
ATOM     23  C   UNL     1      -1.334   3.059  -0.196  0.00  0.00    +0.041 A 
ATOM     24  F   UNL     1       2.244   3.634  -0.445  0.00  0.00    -0.205 F 
BRANCH  23  25
ATOM     25  N   UNL     1      -2.514   3.786  -0.123  0.00  0.00    -0.357 N 
ATOM     26  H   UNL     1      -2.484   4.886  -0.133  0.00  0.00    +0.142 HD
ATOM     27  H   UNL     1      -3.479   3.263  -0.056  0.00  0.00    +0.142 HD
ENDBRANCH  23  25
ENDBRANCH  16  18
ENDBRANCH  15  16
ENDBRANCH   2  15
TORSDOF 5
