REMARK  Name = ZINC62504188
REMARK  11 active torsions:
REMARK  status: ('A' for Active; 'I' for Inactive)
REMARK    1  A    between atoms: C_1  and  C_2
REMARK    2  A    between atoms: C_2  and  C_3
REMARK    3  A    between atoms: C_2  and  N_8
REMARK    4  A    between atoms: C_3  and  C_4
REMARK    5  A    between atoms: C_4  and  N_5
REMARK    6  A    between atoms: N_5  and  C_6
REMARK    7  A    between atoms: N_5  and  C_7
REMARK    8  A    between atoms: N_11  and  C_12
REMARK    9  A    between atoms: C_12  and  C_13
REMARK   10  A    between atoms: C_12  and  C_14
REMARK   11  A    between atoms: C_12  and  C_15
REMARK                            x       y       z     vdW  Elec       q    Type
REMARK                         _______ _______ _______ _____ _____    ______ ____
ROOT
ATOM      1  N   UNL     1       0.705  -0.552   1.168  0.00  0.00    -0.297 N 
ATOM      2  C   UNL     1       2.048  -0.668   1.151  0.00  0.00    +0.300 C 
ATOM      3  O   UNL     1       2.666  -0.436   0.130  0.00  0.00    -0.253 OA
ATOM      4  N   UNL     1       2.706  -1.040   2.267  0.00  0.00    -0.290 N 
ATOM      5  H   UNL     1       0.213  -0.737   1.983  0.00  0.00    +0.151 HD
ATOM      6  H   UNL     1       2.213  -1.225   3.082  0.00  0.00    +0.151 HD
ENDROOT
BRANCH   4   7
ATOM      7  C   UNL     1       4.166  -1.166   2.249  0.00  0.00    +0.056 C 
ATOM      8  C   UNL     1       4.573  -2.234   1.232  0.00  0.00    +0.036 C 
ATOM      9  C   UNL     1       4.788   0.175   1.858  0.00  0.00    +0.036 C 
BRANCH   7  10
ATOM     10  C   UNL     1       4.652  -1.566   3.618  0.00  0.00    -0.025 A 
ATOM     11  C   UNL     1       5.860  -2.224   3.757  0.00  0.00    +0.007 A 
ATOM     12  C   UNL     1       6.307  -2.590   5.013  0.00  0.00    +0.015 A 
ATOM     13  C   UNL     1       5.546  -2.298   6.130  0.00  0.00    +0.018 A 
ATOM     14  C   UNL     1       4.338  -1.639   5.991  0.00  0.00    +0.015 A 
ATOM     15  C   UNL     1       3.894  -1.268   4.735  0.00  0.00    +0.007 A 
ATOM     16 BR   UNL     1       6.157  -2.799   7.848  0.00  0.00    -0.050 Br
ENDBRANCH   7  10
ENDBRANCH   4   7
BRANCH   1  18
ATOM     17  C   UNL     1      -0.026   1.380  -0.141  0.00  0.00    +0.028 C 
ATOM     18  C   UNL     1      -0.010  -0.147  -0.044  0.00  0.00    +0.070 C 
BRANCH  18  19
ATOM     19  C   UNL     1      -1.447  -0.669   0.013  0.00  0.00    +0.003 C 
BRANCH  19  20
ATOM     20  C   UNL     1      -1.435  -2.199  -0.016  0.00  0.00    -0.078 C 
BRANCH  20  21
ATOM     21  N   UNL     1      -2.814  -2.701   0.038  0.00  0.00    +0.376 N 
ATOM     22  C   UNL     1      -2.810  -4.162  -0.110  0.00  0.00    -0.097 C 
ATOM     23  C   UNL     1      -3.415  -2.341   1.330  0.00  0.00    -0.097 C 
ATOM     24  H   UNL     1      -3.352  -2.289  -0.709  0.00  0.00    -0.083 HD
ENDBRANCH  20  21
ENDBRANCH  19  20
ENDBRANCH  18  19
ENDBRANCH   1  18
TORSDOF 6
