REMARK  Name = ZINC08735629
REMARK  9 active torsions:
REMARK  status: ('A' for Active; 'I' for Inactive)
REMARK    1  A    between atoms: C_1  and  C_2
REMARK    2  A    between atoms: C_2  and  C_3
REMARK    3  A    between atoms: C_2  and  N_55
REMARK    4  A    between atoms: C_4  and  C_5
REMARK    5  A    between atoms: C_4  and  N_55
REMARK    6  A    between atoms: C_8  and  C_24
REMARK    7  A    between atoms: C_10  and  O_23
REMARK    8  A    between atoms: C_27  and  O_30
REMARK    9  A    between atoms: O_30  and  C_31
REMARK                            x       y       z     vdW  Elec       q    Type
REMARK                         _______ _______ _______ _____ _____    ______ ____
ROOT
ATOM      1  C   UNL     1       6.764   2.003  -0.049  0.00  0.00    +0.215 C 
ATOM      2  O   UNL     1       7.894   1.562  -0.062  0.00  0.00    -0.276 OA
ATOM      3  N   UNL     1       5.712   1.161  -0.044  0.00  0.00    -0.214 N 
ATOM      4  C   UNL     1       5.797  -0.306  -0.053  0.00  0.00    +0.161 C 
ATOM      5  C   UNL     1       4.331  -0.777  -0.037  0.00  0.00    +0.187 C 
ATOM      6  C   UNL     1       3.527   0.503  -0.029  0.00  0.00    +0.062 C 
ATOM      7  C   UNL     1       2.147   0.586  -0.015  0.00  0.00    +0.023 C 
ATOM      8  C   UNL     1       1.216  -0.484  -0.012  0.00  0.00    +0.121 C 
ATOM      9  N   UNL     1       0.002  -0.004   0.002  0.00  0.00    -0.254 NA
ATOM     10  C   UNL     1      -0.016   1.349   0.009  0.00  0.00    +0.072 A 
ATOM     11  C   UNL     1       1.319   1.808  -0.001  0.00  0.00    +0.011 A 
ATOM     12  C   UNL     1       1.593   3.170   0.004  0.00  0.00    +0.011 A 
ATOM     13  C   UNL     1       0.553   4.075   0.019  0.00  0.00    +0.001 A 
ATOM     14  C   UNL     1      -0.762   3.633   0.029  0.00  0.00    +0.002 A 
ATOM     15  C   UNL     1      -1.054   2.288   0.030  0.00  0.00    +0.028 A 
ATOM     16  N   UNL     1       4.372   1.545  -0.030  0.00  0.00    -0.262 N 
ATOM     17  H   UNL     1       4.081   2.471  -0.022  0.00  0.00    +0.170 HD
ENDROOT
BRANCH   4  18
ATOM     18  C   UNL     1       6.517  -0.798   1.176  0.00  0.00    -0.022 A 
ATOM     19  C   UNL     1       6.309  -0.176   2.393  0.00  0.00    +0.009 A 
ATOM     20  C   UNL     1       6.963  -0.629   3.523  0.00  0.00    +0.046 A 
ATOM     21  C   UNL     1       7.837  -1.702   3.433  0.00  0.00    +0.120 A 
ATOM     22  C   UNL     1       8.049  -2.321   2.209  0.00  0.00    +0.046 A 
ATOM     23  C   UNL     1       7.388  -1.868   1.084  0.00  0.00    +0.009 A 
BRANCH  21  24
ATOM     24  O   UNL     1       8.486  -2.147   4.541  0.00  0.00    -0.495 OA
ATOM     25  C   UNL     1       8.220  -1.462   5.767  0.00  0.00    +0.277 C 
ENDBRANCH  21  24
ENDBRANCH   4  18
BRANCH   5  26
ATOM     26  O   UNL     1       4.042  -1.541  -1.209  0.00  0.00    -0.384 OA
ATOM     27  H   UNL     1       3.118  -1.817  -1.281  0.00  0.00    +0.210 HD
ENDBRANCH   5  26
BRANCH   1  28
ATOM     28  C   UNL     1       6.537   3.493  -0.039  0.00  0.00    +0.017 C 
BRANCH  28  29
ATOM     29  N   UNL     1       7.842   4.181  -0.047  0.00  0.00    +0.386 N 
ATOM     30  H   UNL     1       8.376   3.904   0.785  0.00  0.00    -0.085 HD
ATOM     31  H   UNL     1       8.361   3.913  -0.892  0.00  0.00    -0.085 HD
BRANCH  29  33
ATOM     32  C   UNL     1       7.475   6.126   1.403  0.00  0.00    -0.014 C 
ATOM     33  C   UNL     1       7.650   5.643  -0.038  0.00  0.00    -0.078 C 
ATOM     34  C   UNL     1       8.878   6.315  -0.655  0.00  0.00    -0.014 C 
ENDBRANCH  29  33
ENDBRANCH  28  29
ENDBRANCH   1  28
TORSDOF 6
