REMARK  Name = ZINC15350241
REMARK  12 active torsions:
REMARK  status: ('A' for Active; 'I' for Inactive)
REMARK    1  A    between atoms: C_1  and  C_2
REMARK    2  A    between atoms: C_5  and  C_35
REMARK    3  A    between atoms: N_8  and  C_10
REMARK    4  A    between atoms: C_10  and  C_11
REMARK    5  A    between atoms: N_13  and  C_14
REMARK    6  A    between atoms: N_13  and  C_18
REMARK    7  A    between atoms: C_14  and  C_15
REMARK    8  A    between atoms: C_15  and  C_16
REMARK    9  A    between atoms: C_15  and  C_17
REMARK   10  A    between atoms: C_19  and  N_34
REMARK   11  A    between atoms: N_20  and  C_27
REMARK   12  A    between atoms: C_27  and  C_28
REMARK                            x       y       z     vdW  Elec       q    Type
REMARK                         _______ _______ _______ _____ _____    ______ ____
ROOT
ATOM      1  C   UNL     1       5.194  -2.267   2.658  0.00  0.00    +0.140 A 
ATOM      2  C   UNL     1       6.087  -3.319   2.669  0.00  0.00    +0.128 A 
ATOM      3  N   UNL     1       7.344  -3.139   2.141  0.00  0.00    -0.276 N 
ATOM      4  C   UNL     1       7.700  -1.951   1.620  0.00  0.00    +0.331 A 
ATOM      5  O   UNL     1       8.816  -1.812   1.159  0.00  0.00    -0.246 OA
ATOM      6  N   UNL     1       6.844  -0.914   1.600  0.00  0.00    -0.273 N 
ATOM      7  H   UNL     1       7.125  -0.068   1.219  0.00  0.00    +0.173 HD
ATOM      8  C   UNL     1       5.599  -1.039   2.100  0.00  0.00    +0.277 A 
ATOM      9  O   UNL     1       4.829  -0.094   2.073  0.00  0.00    -0.266 OA
ENDROOT
BRANCH   1  12
ATOM     10  C   UNL     1       2.818  -2.268   2.395  0.00  0.00    +0.203 C 
ATOM     11  O   UNL     1       2.964  -2.090   1.204  0.00  0.00    -0.277 OA
ATOM     12  N   UNL     1       3.897  -2.420   3.191  0.00  0.00    -0.266 N 
BRANCH  10  13
ATOM     13  C   UNL     1       1.433  -2.321   2.985  0.00  0.00    +0.019 C 
BRANCH  13  19
ATOM     14  C   UNL     1      -0.107   1.234  -0.008  0.00  0.00    +0.005 C 
ATOM     15  C   UNL     1      -0.319  -0.221   0.415  0.00  0.00    -0.031 C 
ATOM     16  C   UNL     1      -1.757  -0.405   0.909  0.00  0.00    +0.003 C 
ATOM     17  C   UNL     1      -1.937  -1.843   1.403  0.00  0.00    -0.031 C 
ATOM     18  C   UNL     1      -0.906  -2.134   2.497  0.00  0.00    -0.075 C 
ATOM     19  N   UNL     1       0.448  -1.966   1.955  0.00  0.00    +0.386 N 
ATOM     20  C   UNL     1       0.652  -0.572   1.545  0.00  0.00    -0.075 C 
ATOM     21  C   UNL     1      -3.347  -2.017   1.970  0.00  0.00    +0.005 C 
ATOM     22  H   UNL     1       0.566  -2.571   1.156  0.00  0.00    -0.081 HD
ENDBRANCH  13  19
ENDBRANCH  10  13
BRANCH  12  23
ATOM     23  C   UNL     1       3.722  -2.743   4.609  0.00  0.00    +0.117 C 
BRANCH  23  24
ATOM     24  C   UNL     1       3.488  -1.455   5.401  0.00  0.00    +0.001 C 
ATOM     25  C   UNL     1       3.148  -1.803   6.851  0.00  0.00    +0.009 C 
ATOM     26  C   UNL     1       4.756  -0.599   5.366  0.00  0.00    +0.009 C 
ENDBRANCH  23  24
ENDBRANCH  12  23
ENDBRANCH   1  12
BRANCH   2  27
ATOM     27  N   UNL     1       5.723  -4.533   3.201  0.00  0.00    -0.343 N 
ATOM     28  H   UNL     1       4.808  -4.683   3.486  0.00  0.00    +0.144 HD
ATOM     29  H   UNL     1       6.382  -5.239   3.293  0.00  0.00    +0.144 HD
ENDBRANCH   2  27
BRANCH   3  30
ATOM     30  C   UNL     1       8.302  -4.248   2.147  0.00  0.00    +0.163 C 
BRANCH  30  31
ATOM     31  C   UNL     1       8.156  -5.044   0.876  0.00  0.00    -0.028 A 
ATOM     32  C   UNL     1       7.271  -6.106   0.823  0.00  0.00    +0.005 A 
ATOM     33  C   UNL     1       7.138  -6.836  -0.342  0.00  0.00    +0.000 A 
ATOM     34  C   UNL     1       7.887  -6.505  -1.456  0.00  0.00    +0.000 A 
ATOM     35  C   UNL     1       8.771  -5.444  -1.403  0.00  0.00    +0.000 A 
ATOM     36  C   UNL     1       8.902  -4.710  -0.239  0.00  0.00    +0.005 A 
ENDBRANCH  30  31
ENDBRANCH   3  30
TORSDOF 8
