REMARK  Name = ZINC58196842
REMARK  13 active torsions:
REMARK  status: ('A' for Active; 'I' for Inactive)
REMARK    1  A    between atoms: C_1  and  C_2
REMARK    2  A    between atoms: C_5  and  N_9
REMARK    3  A    between atoms: C_7  and  C_8
REMARK    4  A    between atoms: C_13  and  S_14
REMARK    5  A    between atoms: S_14  and  C_15
REMARK    6  A    between atoms: C_15  and  C_16
REMARK    7  A    between atoms: N_18  and  C_19
REMARK    8  A    between atoms: C_19  and  C_20
REMARK    9  A    between atoms: C_20  and  C_21
REMARK   10  A    between atoms: C_20  and  C_22
REMARK   11  A    between atoms: C_20  and  N_23
REMARK   12  A    between atoms: C_25  and  C_32
REMARK   13  A    between atoms: C_28  and  C_31
REMARK                            x       y       z     vdW  Elec       q    Type
REMARK                         _______ _______ _______ _____ _____    ______ ____
ROOT
ATOM      1  C   UNL     1      -4.014  -5.992  -3.073  0.00  0.00    +0.223 C 
ATOM      2  O   UNL     1      -4.243  -4.828  -3.326  0.00  0.00    -0.275 OA
ATOM      3  N   UNL     1      -4.676  -6.967  -3.727  0.00  0.00    -0.316 N 
ATOM      4  H   UNL     1      -4.493  -7.897  -3.525  0.00  0.00    +0.149 HD
ENDROOT
BRANCH   1   5
ATOM      5  C   UNL     1      -2.989  -6.348  -2.027  0.00  0.00    +0.173 C 
BRANCH   5   6
ATOM      6  S   UNL     1      -2.279  -4.830  -1.334  0.00  0.00    -0.076 S 
BRANCH   6  11
ATOM      7  N   UNL     1      -0.316  -4.636   0.654  0.00  0.00    -0.277 N 
ATOM      8  C   UNL     1       0.408  -5.517   1.414  0.00  0.00    +0.230 A 
ATOM      9  N   UNL     1       0.046  -6.719   1.064  0.00  0.00    -0.137 NA
ATOM     10  N   UNL     1      -0.850  -6.661   0.144  0.00  0.00    -0.122 NA
ATOM     11  C   UNL     1      -1.116  -5.408  -0.143  0.00  0.00    +0.196 A 
BRANCH   7  16
ATOM     12  C   UNL     1      -0.070   1.033   0.803  0.00  0.00    +0.044 C 
ATOM     13  C   UNL     1      -0.135  -0.472   0.764  0.00  0.00    -0.047 A 
ATOM     14  C   UNL     1      -0.050  -1.135  -0.447  0.00  0.00    +0.005 A 
ATOM     15  C   UNL     1      -0.110  -2.514  -0.486  0.00  0.00    +0.026 A 
ATOM     16  C   UNL     1      -0.255  -3.236   0.691  0.00  0.00    +0.050 A 
ATOM     17  C   UNL     1      -0.339  -2.568   1.905  0.00  0.00    +0.030 A 
ATOM     18  C   UNL     1      -0.274  -1.188   1.938  0.00  0.00    -0.046 A 
ATOM     19  C   UNL     1      -0.359  -0.462   3.256  0.00  0.00    +0.044 C 
ENDBRANCH   7  16
ENDBRANCH   6  11
ENDBRANCH   5   6
ENDBRANCH   1   5
BRANCH   3  20
ATOM     20  C   UNL     1      -5.672  -6.620  -4.744  0.00  0.00    +0.092 C 
BRANCH  20  21
ATOM     21  C   UNL     1      -6.176  -7.897  -5.420  0.00  0.00    -0.055 C 
ATOM     22  C   UNL     1      -6.932  -8.750  -4.399  0.00  0.00    -0.008 C 
ATOM     23  C   UNL     1      -7.115  -7.528  -6.571  0.00  0.00    -0.008 C 
BRANCH  21  24
ATOM     24  N   UNL     1      -5.034  -8.657  -5.944  0.00  0.00    +0.384 N 
ATOM     25  C   UNL     1      -4.285  -7.822  -6.891  0.00  0.00    -0.075 C 
ATOM     26  C   UNL     1      -3.049  -8.581  -7.378  0.00  0.00    -0.031 C 
ATOM     27  C   UNL     1      -3.490  -9.873  -8.072  0.00  0.00    +0.003 C 
ATOM     28  C   UNL     1      -4.333 -10.701  -7.099  0.00  0.00    -0.031 C 
ATOM     29  C   UNL     1      -5.522  -9.864  -6.622  0.00  0.00    -0.075 C 
ATOM     30  C   UNL     1      -4.843 -11.958  -7.807  0.00  0.00    +0.005 C 
ATOM     31  C   UNL     1      -2.155  -8.921  -6.184  0.00  0.00    +0.005 C 
ATOM     32  H   UNL     1      -4.429  -8.922  -5.181  0.00  0.00    -0.081 HD
ENDBRANCH  21  24
ENDBRANCH  20  21
ENDBRANCH   3  20
TORSDOF 7
