REMARK  Name = ZINC43746307
REMARK  4 active torsions:
REMARK  status: ('A' for Active; 'I' for Inactive)
REMARK    1  A    between atoms: C_1  and  O_2
REMARK    2  A    between atoms: O_2  and  C_3
REMARK    3  A    between atoms: C_8  and  C_9
REMARK    4  A    between atoms: C_9  and  C_11
REMARK                            x       y       z     vdW  Elec       q    Type
REMARK                         _______ _______ _______ _____ _____    ______ ____
ROOT
ATOM      1  C   UNL     1       0.145  -4.321  -0.265  0.00  0.00    +0.066 C 
ATOM      2  C   UNL     1      -1.034  -4.813  -1.122  0.00  0.00    -0.055 C 
ATOM      3  C   UNL     1      -0.608  -4.936  -2.591  0.00  0.00    -0.016 C 
ATOM      4  C   UNL     1      -0.807  -6.429  -2.942  0.00  0.00    -0.020 C 
ATOM      5  C   UNL     1      -0.718  -7.122  -1.562  0.00  0.00    -0.076 C 
ATOM      6  N   UNL     1      -1.394  -6.160  -0.622  0.00  0.00    +0.395 N 
ATOM      7  C   UNL     1      -0.818  -6.325   0.721  0.00  0.00    +0.060 C 
ATOM      8  C   UNL     1      -0.049  -5.055   1.071  0.00  0.00    +0.085 C 
ATOM      9  C   UNL     1      -0.792  -4.198   2.057  0.00  0.00    -0.011 A 
ATOM     10  C   UNL     1      -2.035  -3.605   2.049  0.00  0.00    +0.006 A 
ATOM     11  C   UNL     1      -2.449  -2.853   3.134  0.00  0.00    +0.000 A 
ATOM     12  C   UNL     1      -1.613  -2.699   4.225  0.00  0.00    +0.002 A 
ATOM     13  C   UNL     1      -0.368  -3.292   4.237  0.00  0.00    +0.023 A 
ATOM     14  C   UNL     1       0.058  -4.051   3.149  0.00  0.00    +0.038 A 
ATOM     15  N   UNL     1       1.254  -4.738   2.927  0.00  0.00    -0.285 N 
ATOM     16  C   UNL     1       1.271  -5.352   1.728  0.00  0.00    +0.228 C 
ATOM     17  O   UNL     1       2.175  -6.017   1.269  0.00  0.00    -0.275 OA
ATOM     18  C   UNL     1       0.080  -7.535   0.772  0.00  0.00    -0.025 A 
ATOM     19  C   UNL     1       1.229  -7.885   0.099  0.00  0.00    +0.005 A 
ATOM     20  C   UNL     1       1.846  -9.094   0.366  0.00  0.00    +0.002 A 
ATOM     21  C   UNL     1       1.307  -9.948   1.310  0.00  0.00    +0.022 A 
ATOM     22  C   UNL     1       0.155  -9.601   1.988  0.00  0.00    +0.062 A 
ATOM     23  C   UNL     1      -0.472  -8.384   1.724  0.00  0.00    +0.054 A 
ATOM     24  N   UNL     1      -1.626  -7.816   2.268  0.00  0.00    -0.285 N 
ATOM     25  C   UNL     1      -1.897  -6.610   1.735  0.00  0.00    +0.212 C 
ATOM     26  O   UNL     1      -2.832  -5.890   2.017  0.00  0.00    -0.277 OA
ATOM     27 CL   UNL     1      -0.513 -10.682   3.171  0.00  0.00    -0.082 Cl
ATOM     28  H   UNL     1       1.986  -4.768   3.562  0.00  0.00    +0.155 HD
ATOM     29  H   UNL     1      -2.169  -8.240   2.950  0.00  0.00    +0.155 HD
ATOM     30  H   UNL     1      -2.395  -6.289  -0.619  0.00  0.00    -0.079 HD
ENDROOT
BRANCH   1  31
ATOM     31  C   UNL     1       0.071  -2.829  -0.066  0.00  0.00    +0.169 C 
ATOM     32  O   UNL     1      -0.987  -2.251  -0.205  0.00  0.00    -0.292 OA
BRANCH  31  38
ATOM     33  C   UNL     1       1.193  -0.705   0.591  0.00  0.00    +0.131 A 
ATOM     34  C   UNL     1       2.340  -0.006   0.938  0.00  0.00    +0.046 A 
ATOM     35  C   UNL     1       3.558  -0.654   0.987  0.00  0.00    +0.004 A 
ATOM     36  C   UNL     1       3.647  -2.005   0.691  0.00  0.00    +0.001 A 
ATOM     37  C   UNL     1       2.521  -2.717   0.344  0.00  0.00    +0.015 A 
ATOM     38  C   UNL     1       1.277  -2.075   0.296  0.00  0.00    +0.059 A 
BRANCH  33  40
ATOM     39  C   UNL     1      -0.012   1.325   0.854  0.00  0.00    +0.277 C 
ATOM     40  O   UNL     1      -0.004  -0.070   0.542  0.00  0.00    -0.494 OA
ENDBRANCH  33  40
ENDBRANCH  31  38
ENDBRANCH   1  31
TORSDOF 3
