REMARK  Name = ZINC21177361
REMARK  5 active torsions:
REMARK  status: ('A' for Active; 'I' for Inactive)
REMARK    1  A    between atoms: C_1  and  C_2
REMARK    2  A    between atoms: C_2  and  O_3
REMARK    3  A    between atoms: O_3  and  C_4
REMARK    4  A    between atoms: C_9  and  C_10
REMARK    5  A    between atoms: C_18  and  C_30
REMARK                            x       y       z     vdW  Elec       q    Type
REMARK                         _______ _______ _______ _____ _____    ______ ____
ROOT
ATOM      1  C   UNL     1      -0.082   5.350   0.031  0.00  0.00    +0.066 C 
ATOM      2  C   UNL     1      -0.800   5.849   1.290  0.00  0.00    +0.109 C 
ATOM      3  C   UNL     1      -2.288   5.682   1.170  0.00  0.00    +0.219 C 
ATOM      4  O   UNL     1      -2.922   5.340   2.146  0.00  0.00    -0.275 OA
ATOM      5  N   UNL     1      -2.942   5.900   0.009  0.00  0.00    -0.270 N 
ATOM      6  C   UNL     1      -2.184   6.097  -1.144  0.00  0.00    +0.135 A 
ATOM      7  C   UNL     1      -0.837   5.853  -1.174  0.00  0.00    +0.023 A 
ATOM      8  C   UNL     1      -0.375   6.146  -2.449  0.00  0.00    +0.066 A 
ATOM      9  N   UNL     1      -1.395   6.540  -3.176  0.00  0.00    -0.168 NA
ATOM     10  N   UNL     1      -2.550   6.508  -2.378  0.00  0.00    -0.193 N 
ATOM     11  C   UNL     1      -3.837   6.839  -2.784  0.00  0.00    +0.196 A 
ATOM     12  N   UNL     1      -4.950   6.822  -2.088  0.00  0.00    -0.221 NA
ATOM     13  C   UNL     1      -6.141   7.176  -2.615  0.00  0.00    +0.081 A 
ATOM     14  C   UNL     1      -7.404   7.206  -1.978  0.00  0.00    +0.029 A 
ATOM     15  C   UNL     1      -8.526   7.587  -2.665  0.00  0.00    +0.002 A 
ATOM     16  C   UNL     1      -8.467   7.957  -4.001  0.00  0.00    +0.001 A 
ATOM     17  C   UNL     1      -7.250   7.939  -4.656  0.00  0.00    +0.017 A 
ATOM     18  C   UNL     1      -6.120   7.558  -3.976  0.00  0.00    +0.041 A 
ATOM     19  S   UNL     1      -4.400   7.388  -4.389  0.00  0.00    -0.048 S 
ATOM     20  C   UNL     1       1.052   6.032  -2.920  0.00  0.00    +0.068 C 
ATOM     21  H   UNL     1      -4.041   5.919  -0.008  0.00  0.00    +0.156 HD
ENDROOT
BRANCH   1  27
ATOM     22  C   UNL     1       1.155   3.169   0.008  0.00  0.00    +0.124 A 
ATOM     23  C   UNL     1       1.174   1.782   0.000  0.00  0.00    +0.046 A 
ATOM     24  C   UNL     1      -0.013   1.076   0.008  0.00  0.00    +0.004 A 
ATOM     25  C   UNL     1      -1.220   1.750   0.017  0.00  0.00    +0.001 A 
ATOM     26  C   UNL     1      -1.242   3.132   0.031  0.00  0.00    +0.008 A 
ATOM     27  C   UNL     1      -0.057   3.844   0.023  0.00  0.00    +0.002 A 
BRANCH  22  28
ATOM     28  O   UNL     1       2.321   3.867   0.000  0.00  0.00    -0.492 OA
BRANCH  28  30
ATOM     29  C   UNL     1       4.731   4.057  -0.023  0.00  0.00    +0.048 C 
ATOM     30  C   UNL     1       3.531   3.107  -0.016  0.00  0.00    +0.225 C 
ENDBRANCH  28  30
ENDBRANCH  22  28
ENDBRANCH   1  27
TORSDOF 3
