REMARK  Name = ZINC00221843
REMARK  2 active torsions:
REMARK  status: ('A' for Active; 'I' for Inactive)
REMARK    1  A    between atoms: C_3  and  C_7
REMARK    2  A    between atoms: C_10  and  C_18
REMARK                            x       y       z     vdW  Elec       q    Type
REMARK                         _______ _______ _______ _____ _____    ______ ____
ROOT
ATOM      1  C   UNL     1       3.696   2.049  -0.023  0.00  0.00    +0.107 C 
ATOM      2  C   UNL     1       4.286   2.054   1.392  0.00  0.00    +0.059 C 
ATOM      3  C   UNL     1       5.615   2.819   1.397  0.00  0.00    +0.143 C 
ATOM      4  N   UNL     1       6.448   2.326   0.300  0.00  0.00    -0.226 N 
ATOM      5  C   UNL     1       5.976   1.637  -0.767  0.00  0.00    +0.215 A 
ATOM      6  N   UNL     1       6.986   1.352  -1.543  0.00  0.00    -0.202 NA
ATOM      7  C   UNL     1       8.111   1.840  -1.010  0.00  0.00    +0.247 A 
ATOM      8  N   UNL     1       7.826   2.443   0.117  0.00  0.00    -0.156 NA
ATOM      9  N   UNL     1       4.627   1.340  -0.922  0.00  0.00    -0.307 N 
ATOM     10  H   UNL     1       4.315   0.701  -1.582  0.00  0.00    +0.149 HD
ENDROOT
BRANCH   3  11
ATOM     11  C   UNL     1       6.321   2.598   2.710  0.00  0.00    -0.023 A 
ATOM     12  C   UNL     1       6.678   1.320   3.095  0.00  0.00    +0.007 A 
ATOM     13  C   UNL     1       7.326   1.116   4.299  0.00  0.00    +0.020 A 
ATOM     14  C   UNL     1       7.616   2.192   5.119  0.00  0.00    +0.041 A 
ATOM     15  C   UNL     1       7.259   3.472   4.732  0.00  0.00    +0.020 A 
ATOM     16  C   UNL     1       6.616   3.675   3.525  0.00  0.00    +0.007 A 
ATOM     17 CL   UNL     1       8.429   1.938   6.631  0.00  0.00    -0.084 Cl
ENDBRANCH   3  11
BRANCH   1  20
ATOM     18  C   UNL     1      -0.017   1.378   0.010  0.00  0.00    +0.020 A 
ATOM     19  C   UNL     1       1.185   2.070   0.002  0.00  0.00    +0.008 A 
ATOM     20  C   UNL     1       2.365   1.343  -0.013  0.00  0.00    -0.009 A 
ATOM     21  C   UNL     1       2.305  -0.038  -0.020  0.00  0.00    +0.116 A 
ATOM     22  N   UNL     1       1.144  -0.663  -0.013  0.00  0.00    -0.263 NA
ATOM     23  C   UNL     1       0.002  -0.004   0.002  0.00  0.00    +0.111 A 
ENDBRANCH   1  20
TORSDOF 2
