REMARK  Name = ZINC08273133
REMARK  8 active torsions:
REMARK  status: ('A' for Active; 'I' for Inactive)
REMARK    1  A    between atoms: C_1  and  C_2
REMARK    2  A    between atoms: C_2  and  C_3
REMARK    3  A    between atoms: C_8  and  N_9
REMARK    4  A    between atoms: C_10  and  C_12
REMARK    5  A    between atoms: C_12  and  N_13
REMARK    6  A    between atoms: C_14  and  C_16
REMARK    7  A    between atoms: C_16  and  N_17
REMARK    8  A    between atoms: C_23  and  C_26
REMARK                            x       y       z     vdW  Elec       q    Type
REMARK                         _______ _______ _______ _____ _____    ______ ____
ROOT
ATOM      1  N   UNL     1       1.143   1.898  -0.016  0.00  0.00    -0.305 N 
ATOM      2  C   UNL     1      -0.014   1.208  -0.018  0.00  0.00    +0.231 C 
ATOM      3  O   UNL     1       0.002  -0.005  -0.033  0.00  0.00    -0.274 OA
ATOM      4  H   UNL     1       1.130   2.867  -0.004  0.00  0.00    +0.149 HD
ENDROOT
BRANCH   1   5
ATOM      5  C   UNL     1       2.422   1.183  -0.030  0.00  0.00    +0.200 C 
BRANCH   5   7
ATOM      6  N   UNL     1       4.831   1.746  -0.035  0.00  0.00    -0.284 N 
ATOM      7  C   UNL     1       3.554   2.178  -0.024  0.00  0.00    +0.234 C 
ATOM      8  O   UNL     1       3.316   3.367  -0.008  0.00  0.00    -0.274 OA
ATOM      9  H   UNL     1       5.023   0.798   0.034  0.00  0.00    +0.155 HD
BRANCH   6  15
ATOM     10  C   UNL     1       7.141   2.344   0.337  0.00  0.00    -0.026 A 
ATOM     11  C   UNL     1       8.174   3.254   0.226  0.00  0.00    +0.005 A 
ATOM     12  C   UNL     1       7.953   4.485  -0.365  0.00  0.00    +0.000 A 
ATOM     13  C   UNL     1       6.697   4.808  -0.846  0.00  0.00    +0.002 A 
ATOM     14  C   UNL     1       5.662   3.901  -0.743  0.00  0.00    +0.023 A 
ATOM     15  C   UNL     1       5.879   2.666  -0.145  0.00  0.00    +0.037 A 
BRANCH  10  17
ATOM     16  C   UNL     1       7.694  -0.033  -0.103  0.00  0.00    +0.009 C 
ATOM     17  C   UNL     1       7.383   1.003   0.980  0.00  0.00    +0.033 C 
ENDBRANCH  10  17
ENDBRANCH   6  15
ENDBRANCH   5   7
ENDBRANCH   1   5
BRANCH   2  18
ATOM     18  C   UNL     1      -1.330   1.943  -0.010  0.00  0.00    +0.213 C 
BRANCH  18  19
ATOM     19  N   UNL     1      -2.430   0.976  -0.021  0.00  0.00    -0.215 N 
ATOM     20  C   UNL     1      -3.000   0.462   1.088  0.00  0.00    +0.247 C 
ATOM     21  O   UNL     1      -2.710   0.702   2.241  0.00  0.00    -0.273 OA
ATOM     22  C   UNL     1      -4.075  -0.477   0.592  0.00  0.00    +0.113 C 
ATOM     23  C   UNL     1      -5.446  -0.017   1.076  0.00  0.00    +0.035 C 
ATOM     24  C   UNL     1      -6.524  -0.964   0.540  0.00  0.00    +0.006 C 
ATOM     25  C   UNL     1      -6.242  -2.385   1.031  0.00  0.00    -0.014 C 
ATOM     26  C   UNL     1      -4.874  -2.841   0.517  0.00  0.00    +0.006 C 
ATOM     27  C   UNL     1      -3.790  -1.902   1.053  0.00  0.00    +0.035 C 
ATOM     28  C   UNL     1      -7.324  -3.330   0.506  0.00  0.00    +0.007 C 
ATOM     29  N   UNL     1      -3.986  -0.381  -0.870  0.00  0.00    -0.285 N 
ATOM     30  C   UNL     1      -2.999   0.497  -1.135  0.00  0.00    +0.310 C 
ATOM     31  O   UNL     1      -2.660   0.815  -2.257  0.00  0.00    -0.252 OA
ATOM     32  H   UNL     1      -4.532  -0.852  -1.518  0.00  0.00    +0.151 HD
ENDBRANCH  18  19
ENDBRANCH   2  18
TORSDOF 6
