REMARK  Name = ZINC00970908
REMARK  10 active torsions:
REMARK  status: ('A' for Active; 'I' for Inactive)
REMARK    1  A    between atoms: C_1  and  C_2
REMARK    2  A    between atoms: C_3  and  C_12
REMARK    3  A    between atoms: C_19  and  C_36
REMARK    4  A    between atoms: C_20  and  C_32
REMARK    5  A    between atoms: C_21  and  C_23
REMARK    6  A    between atoms: C_26  and  C_29
REMARK    7  A    between atoms: C_29  and  C_30
REMARK    8  A    between atoms: C_29  and  C_31
REMARK    9  A    between atoms: C_32  and  O_34
REMARK   10  A    between atoms: O_34  and  C_35
REMARK                            x       y       z     vdW  Elec       q    Type
REMARK                         _______ _______ _______ _____ _____    ______ ____
ROOT
ATOM      1  C   UNL     1       4.750   1.658   1.524  0.00  0.00    +0.030 C 
ATOM      2  C   UNL     1       3.647   1.815   0.739  0.00  0.00    +0.081 A 
ATOM      3  C   UNL     1       2.343   1.274   0.899  0.00  0.00    +0.268 A 
ATOM      4  O   UNL     1       2.087   0.555   1.848  0.00  0.00    -0.266 OA
ATOM      5  N   UNL     1       1.398   1.563  -0.003  0.00  0.00    -0.275 N 
ATOM      6  C   UNL     1       1.734   2.381  -1.058  0.00  0.00    +0.178 A 
ATOM      7  N   UNL     1       0.905   2.738  -2.005  0.00  0.00    -0.228 NA
ATOM      8  C   UNL     1      -0.365   2.362  -2.078  0.00  0.00    +0.053 C 
ATOM      9  C   UNL     1      -0.904   1.545  -1.123  0.00  0.00    +0.085 C 
ATOM     10  C   UNL     1      -0.013   1.086   0.008  0.00  0.00    +0.162 C 
ATOM     11  C   UNL     1      -1.222   2.842  -3.221  0.00  0.00    +0.066 C 
ATOM     12  S   UNL     1       3.451   2.757  -0.766  0.00  0.00    -0.046 S 
ENDROOT
BRANCH   1  15
ATOM     13  C   UNL     1       6.108   1.564  -1.274  0.00  0.00    +0.064 C 
ATOM     14  C   UNL     1       6.620   2.292  -0.058  0.00  0.00    +0.021 A 
ATOM     15  C   UNL     1       6.004   2.317   1.162  0.00  0.00    +0.004 A 
ATOM     16  C   UNL     1       6.851   3.147   2.040  0.00  0.00    +0.007 A 
ATOM     17  C   UNL     1       6.769   3.537   3.375  0.00  0.00    +0.010 A 
ATOM     18  C   UNL     1       7.756   4.332   3.914  0.00  0.00    +0.001 A 
ATOM     19  C   UNL     1       8.830   4.740   3.136  0.00  0.00    +0.002 A 
ATOM     20  C   UNL     1       8.927   4.356   1.817  0.00  0.00    +0.026 A 
ATOM     21  C   UNL     1       7.940   3.553   1.253  0.00  0.00    +0.047 A 
ATOM     22  N   UNL     1       7.764   3.020  -0.007  0.00  0.00    -0.358 N 
ATOM     23  H   UNL     1       8.371   3.149  -0.752  0.00  0.00    +0.166 HD
ENDBRANCH   1  15
BRANCH  10  24
ATOM     24  C   UNL     1      -0.642   1.530   1.303  0.00  0.00    -0.020 A 
ATOM     25  C   UNL     1      -0.423   2.810   1.775  0.00  0.00    +0.006 A 
ATOM     26  C   UNL     1      -1.005   3.219   2.961  0.00  0.00    +0.004 A 
ATOM     27  C   UNL     1      -1.797   2.344   3.680  0.00  0.00    -0.045 A 
ATOM     28  C   UNL     1      -2.012   1.061   3.210  0.00  0.00    +0.004 A 
ATOM     29  C   UNL     1      -1.434   0.654   2.022  0.00  0.00    +0.006 A 
BRANCH  27  30
ATOM     30  C   UNL     1      -2.428   2.788   4.974  0.00  0.00    +0.013 C 
ATOM     31  C   UNL     1      -1.332   3.190   5.963  0.00  0.00    +0.012 C 
ATOM     32  C   UNL     1      -3.343   3.985   4.712  0.00  0.00    +0.012 C 
ENDBRANCH  27  30
ENDBRANCH  10  24
BRANCH   9  33
ATOM     33  C   UNL     1      -2.248   1.143  -1.192  0.00  0.00    +0.339 C 
ATOM     34  O   UNL     1      -2.951   1.523  -2.111  0.00  0.00    -0.245 OA
BRANCH  33  35
ATOM     35  O   UNL     1      -2.760   0.335  -0.239  0.00  0.00    -0.465 OA
ATOM     36  C   UNL     1      -4.134  -0.035  -0.372  0.00  0.00    +0.280 C 
ENDBRANCH  33  35
ENDBRANCH   9  33
TORSDOF 5
