REMARK  Name = ZINC08880419
REMARK  6 active torsions:
REMARK  status: ('A' for Active; 'I' for Inactive)
REMARK    1  A    between atoms: C_1  and  C_2
REMARK    2  A    between atoms: C_2  and  C_30
REMARK    3  A    between atoms: N_5  and  C_9
REMARK    4  A    between atoms: C_9  and  C_10
REMARK    5  A    between atoms: C_13  and  C_25
REMARK    6  A    between atoms: C_16  and  C_18
REMARK                            x       y       z     vdW  Elec       q    Type
REMARK                         _______ _______ _______ _____ _____    ______ ____
ROOT
ATOM      1  C   UNL     1      -1.976  -1.019  -3.845  0.00  0.00    +0.253 C 
ATOM      2  O   UNL     1      -1.558   0.120  -3.849  0.00  0.00    -0.272 OA
ATOM      3  N   UNL     1      -2.760  -1.452  -4.853  0.00  0.00    -0.181 N 
ATOM      4  C   UNL     1      -3.184  -0.652  -6.012  0.00  0.00    +0.173 C 
ATOM      5  C   UNL     1      -4.051  -1.630  -6.829  0.00  0.00    +0.090 C 
ATOM      6  C   UNL     1      -4.019  -2.908  -6.020  0.00  0.00    +0.069 C 
ATOM      7  N   UNL     1      -3.296  -2.733  -4.969  0.00  0.00    -0.181 NA
ENDROOT
BRANCH   6   8
ATOM      8  C   UNL     1      -4.705  -4.162  -6.383  0.00  0.00    -0.002 A 
ATOM      9  C   UNL     1      -5.464  -4.233  -7.553  0.00  0.00    +0.011 A 
ATOM     10  C   UNL     1      -6.100  -5.410  -7.889  0.00  0.00    +0.020 A 
ATOM     11  C   UNL     1      -5.995  -6.517  -7.063  0.00  0.00    +0.041 A 
ATOM     12  C   UNL     1      -5.248  -6.451  -5.899  0.00  0.00    +0.020 A 
ATOM     13  C   UNL     1      -4.603  -5.282  -5.554  0.00  0.00    +0.011 A 
ATOM     14 CL   UNL     1      -6.804  -7.992  -7.489  0.00  0.00    -0.084 Cl
ENDBRANCH   6   8
BRANCH   4  15
ATOM     15  C   UNL     1      -1.989  -0.205  -6.814  0.00  0.00    +0.128 A 
ATOM     16  C   UNL     1      -1.842   0.995  -7.405  0.00  0.00    +0.046 A 
ATOM     17  C   UNL     1      -0.581   0.985  -8.044  0.00  0.00    +0.041 A 
ATOM     18  C   UNL     1      -0.033  -0.220  -7.806  0.00  0.00    +0.195 A 
ATOM     19  O   UNL     1      -0.888  -0.935  -7.056  0.00  0.00    -0.466 OA
ENDBRANCH   4  15
BRANCH   1  20
ATOM     20  C   UNL     1      -1.617  -1.950  -2.716  0.00  0.00    +0.215 C 
BRANCH  20  25
ATOM     21  C   UNL     1       0.094  -0.547   1.429  0.00  0.00    +0.047 C 
ATOM     22  C   UNL     1       0.002  -0.004   0.002  0.00  0.00    +0.135 C 
ATOM     23  C   UNL     1      -1.226  -0.550  -0.699  0.00  0.00    +0.251 C 
ATOM     24  O   UNL     1      -2.384  -0.394  -0.375  0.00  0.00    -0.272 OA
ATOM     25  N   UNL     1      -0.763  -1.246  -1.756  0.00  0.00    -0.215 N 
ATOM     26  C   UNL     1       0.573  -1.216  -1.819  0.00  0.00    +0.310 C 
ATOM     27  O   UNL     1       1.221  -1.772  -2.685  0.00  0.00    -0.252 OA
ATOM     28  N   UNL     1       1.119  -0.503  -0.819  0.00  0.00    -0.281 N 
ATOM     29  H   UNL     1       2.064  -0.347  -0.667  0.00  0.00    +0.152 HD
BRANCH  22  30
ATOM     30  C   UNL     1      -0.018   1.503   0.010  0.00  0.00    -0.016 A 
ATOM     31  C   UNL     1      -1.225   2.178   0.020  0.00  0.00    +0.006 A 
ATOM     32  C   UNL     1      -1.244   3.560   0.033  0.00  0.00    +0.000 A 
ATOM     33  C   UNL     1      -0.056   4.267   0.025  0.00  0.00    +0.000 A 
ATOM     34  C   UNL     1       1.151   3.592   0.010  0.00  0.00    +0.000 A 
ATOM     35  C   UNL     1       1.169   2.210   0.003  0.00  0.00    +0.006 A 
ENDBRANCH  22  30
ENDBRANCH  20  25
ENDBRANCH   1  20
TORSDOF 5
