REMARK  Name = ZINC25783606
REMARK  8 active torsions:
REMARK  status: ('A' for Active; 'I' for Inactive)
REMARK    1  A    between atoms: C_6  and  C_7
REMARK    2  A    between atoms: C_7  and  O_8
REMARK    3  A    between atoms: O_8  and  C_9
REMARK    4  A    between atoms: C_12  and  C_15
REMARK    5  A    between atoms: N_16  and  N_17
REMARK    6  A    between atoms: C_18  and  C_20
REMARK    7  A    between atoms: C_21  and  C_31
REMARK    8  A    between atoms: C_31  and  N_32
REMARK                            x       y       z     vdW  Elec       q    Type
REMARK                         _______ _______ _______ _____ _____    ______ ____
ROOT
ATOM      1  N   UNL     1      -3.023   4.830  -0.142  0.00  0.00    -0.202 N 
ATOM      2  C   UNL     1      -2.019   5.724  -0.042  0.00  0.00    +0.284 C 
ATOM      3  O   UNL     1      -2.268   6.913   0.028  0.00  0.00    -0.267 OA
ATOM      4  H   UNL     1      -2.804   3.752  -0.122  0.00  0.00    +0.178 HD
ENDROOT
BRANCH   2   5
ATOM      5  C   UNL     1      -0.623   5.262  -0.017  0.00  0.00    +0.154 A 
ATOM      6  C   UNL     1       0.213   5.090  -1.090  0.00  0.00    +0.079 A 
ATOM      7  N   UNL     1       1.373   4.654  -0.597  0.00  0.00    -0.135 NA
ATOM      8  N   UNL     1       1.287   4.561   0.682  0.00  0.00    -0.058 NA
ATOM      9  N   UNL     1       0.118   4.915   1.087  0.00  0.00    -0.183 N 
ATOM     10  C   UNL     1      -0.323   4.936   2.413  0.00  0.00    +0.241 A 
ATOM     11  C   UNL     1       0.433   4.460   3.576  0.00  0.00    +0.206 A 
ATOM     12  N   UNL     1      -0.296   4.645   4.642  0.00  0.00    -0.032 NA
ATOM     13  O   UNL     1      -1.522   5.226   4.235  0.00  0.00    -0.239 OA
ATOM     14  N   UNL     1      -1.476   5.378   2.827  0.00  0.00    -0.027 NA
ATOM     15  N   UNL     1       1.709   3.910   3.547  0.00  0.00    -0.337 N 
ATOM     16  H   UNL     1       2.188   3.583   4.482  0.00  0.00    +0.144 HD
ATOM     17  H   UNL     1       2.240   3.802   2.590  0.00  0.00    +0.144 HD
BRANCH   6  18
ATOM     18  C   UNL     1      -0.116   5.339  -2.539  0.00  0.00    -0.018 C 
BRANCH  18  19
ATOM     19  N   UNL     1       0.320   6.690  -2.915  0.00  0.00    +0.383 N 
ATOM     20  C   UNL     1       1.779   6.860  -2.692  0.00  0.00    -0.078 C 
ATOM     21  C   UNL     1       2.137   8.067  -3.595  0.00  0.00    -0.020 C 
ATOM     22  C   UNL     1       1.248   7.843  -4.840  0.00  0.00    -0.020 C 
ATOM     23  C   UNL     1       0.102   6.935  -4.357  0.00  0.00    -0.078 C 
ATOM     24  H   UNL     1      -0.272   7.379  -2.295  0.00  0.00    -0.081 HD
ENDBRANCH  18  19
ENDBRANCH   6  18
ENDBRANCH   2   5
BRANCH   1  26
ATOM     25  C   UNL     1      -5.312   4.413  -0.368  0.00  0.00    +0.138 C 
ATOM     26  N   UNL     1      -4.346   5.274  -0.272  0.00  0.00    -0.187 NA
BRANCH  25  30
ATOM     27  C   UNL     1      -9.320   5.758  -0.763  0.00  0.00    +0.121 A 
ATOM     28  C   UNL     1      -9.046   4.396  -0.737  0.00  0.00    +0.046 A 
ATOM     29  C   UNL     1      -7.746   3.955  -0.610  0.00  0.00    +0.013 A 
ATOM     30  C   UNL     1      -6.704   4.880  -0.505  0.00  0.00    -0.005 A 
ATOM     31  C   UNL     1      -6.985   6.249  -0.526  0.00  0.00    +0.013 A 
ATOM     32  C   UNL     1      -8.287   6.680  -0.660  0.00  0.00    +0.046 A 
BRANCH  27  33
ATOM     33  O   UNL     1     -10.602   6.188  -0.890  0.00  0.00    -0.487 OA
BRANCH  33  34
ATOM     34  C   UNL     1     -10.813   7.601  -0.909  0.00  0.00    +0.264 C 
BRANCH  34  40
ATOM     35  C   UNL     1     -12.842   8.024  -2.313  0.00  0.00    +0.008 A 
ATOM     36  C   UNL     1     -14.193   8.281  -2.447  0.00  0.00    +0.020 A 
ATOM     37  C   UNL     1     -14.988   8.411  -1.322  0.00  0.00    +0.041 A 
ATOM     38  C   UNL     1     -14.430   8.279  -0.063  0.00  0.00    +0.020 A 
ATOM     39  C   UNL     1     -13.079   8.017   0.070  0.00  0.00    +0.008 A 
ATOM     40  C   UNL     1     -12.286   7.887  -1.055  0.00  0.00    -0.010 A 
ATOM     41 CL   UNL     1     -16.684   8.740  -1.490  0.00  0.00    -0.084 Cl
ENDBRANCH  34  40
ENDBRANCH  33  34
ENDBRANCH  27  33
ENDBRANCH  25  30
ENDBRANCH   1  26
TORSDOF 8
