REMARK  Name = ZINC12516453
REMARK  10 active torsions:
REMARK  status: ('A' for Active; 'I' for Inactive)
REMARK    1  A    between atoms: C_1  and  C_2
REMARK    2  A    between atoms: C_2  and  C_4
REMARK    3  A    between atoms: C_2  and  N_62
REMARK    4  A    between atoms: C_7  and  S_16
REMARK    5  A    between atoms: N_8  and  C_9
REMARK    6  A    between atoms: S_16  and  C_17
REMARK    7  A    between atoms: C_17  and  C_18
REMARK    8  A    between atoms: N_20  and  N_21
REMARK    9  A    between atoms: C_33  and  N_62
REMARK   10  A    between atoms: C_34  and  N_62
REMARK                            x       y       z     vdW  Elec       q    Type
REMARK                         _______ _______ _______ _____ _____    ______ ____
ROOT
ATOM      1  S   UNL     1       1.768  -2.116  -0.026  0.00  0.00    -0.076 S 
ENDROOT
BRANCH   1   5
ATOM      2  C   UNL     1       1.202   1.746   0.000  0.00  0.00    +0.125 A 
ATOM      3  N   UNL     1      -0.015   1.281   0.009  0.00  0.00    -0.135 NA
ATOM      4  N   UNL     1       0.002  -0.004   0.002  0.00  0.00    -0.122 NA
ATOM      5  C   UNL     1       1.242  -0.434  -0.012  0.00  0.00    +0.197 A 
ATOM      6  N   UNL     1       2.049   0.670  -0.014  0.00  0.00    -0.275 N 
BRANCH   6   7
ATOM      7  C   UNL     1       3.452   0.696  -0.027  0.00  0.00    +0.050 A 
ATOM      8  C   UNL     1       4.148   1.216   1.055  0.00  0.00    +0.029 A 
ATOM      9  C   UNL     1       5.529   1.234   1.043  0.00  0.00    +0.040 A 
ATOM     10  C   UNL     1       6.219   0.746  -0.053  0.00  0.00    +0.124 A 
ATOM     11  C   UNL     1       5.526   0.232  -1.137  0.00  0.00    +0.040 A 
ATOM     12  C   UNL     1       4.146   0.206  -1.125  0.00  0.00    +0.029 A 
ATOM     13  F   UNL     1       7.570   0.770  -0.066  0.00  0.00    -0.205 F 
ENDBRANCH   6   7
BRANCH   2  15
ATOM     14  C   UNL     1       1.365   3.797  -1.384  0.00  0.00    -0.005 C 
ATOM     15  C   UNL     1       1.603   3.199   0.004  0.00  0.00    -0.003 C 
BRANCH  15  18
ATOM     16  C   UNL     1       0.930   3.319   2.327  0.00  0.00    -0.096 C 
ATOM     17  C   UNL     1       1.163   5.349   1.027  0.00  0.00    -0.096 C 
ATOM     18  N   UNL     1       0.771   3.924   0.987  0.00  0.00    +0.382 N 
ATOM     19  H   UNL     1      -0.213   3.857   0.706  0.00  0.00    -0.082 HD
ENDBRANCH  15  18
ENDBRANCH   2  15
ENDBRANCH   1   5
BRANCH   1  20
ATOM     20  C   UNL     1       0.161  -2.948  -0.015  0.00  0.00    +0.174 C 
BRANCH  20  21
ATOM     21  C   UNL     1       0.368  -4.441  -0.025  0.00  0.00    +0.240 C 
ATOM     22  O   UNL     1       1.491  -4.897  -0.037  0.00  0.00    -0.273 OA
ATOM     23  N   UNL     1      -0.696  -5.269  -0.019  0.00  0.00    -0.223 N 
ATOM     24  H   UNL     1      -1.595  -4.904  -0.009  0.00  0.00    +0.174 HD
BRANCH  23  25
ATOM     25  N   UNL     1      -0.503  -6.656  -0.028  0.00  0.00    -0.137 N 
ATOM     26  C   UNL     1      -0.675  -7.452   1.047  0.00  0.00    +0.263 C 
ATOM     27  O   UNL     1      -1.013  -7.117   2.162  0.00  0.00    -0.271 OA
ATOM     28  C   UNL     1      -0.359  -8.851   0.569  0.00  0.00    +0.114 C 
ATOM     29  C   UNL     1      -1.581  -9.751   0.713  0.00  0.00    +0.035 C 
ATOM     30  C   UNL     1      -1.249 -11.154   0.197  0.00  0.00    +0.003 C 
ATOM     31  C   UNL     1      -0.077 -11.726   0.998  0.00  0.00    +0.000 C 
ATOM     32  C   UNL     1       1.147 -10.825   0.824  0.00  0.00    +0.003 C 
ATOM     33  C   UNL     1       0.825  -9.421   1.341  0.00  0.00    +0.035 C 
ATOM     34  N   UNL     1      -0.013  -8.674  -0.847  0.00  0.00    -0.284 N 
ATOM     35  C   UNL     1      -0.132  -7.357  -1.106  0.00  0.00    +0.326 C 
ATOM     36  O   UNL     1       0.078  -6.861  -2.196  0.00  0.00    -0.251 OA
ATOM     37  H   UNL     1       0.245  -9.368  -1.473  0.00  0.00    +0.151 HD
ENDBRANCH  23  25
ENDBRANCH  20  21
ENDBRANCH   1  20
TORSDOF 7
