REMARK  Name = ZINC01087781
REMARK  5 active torsions:
REMARK  status: ('A' for Active; 'I' for Inactive)
REMARK    1  A    between atoms: C_4  and  C_7
REMARK    2  A    between atoms: C_12  and  C_20
REMARK    3  A    between atoms: C_14  and  C_18
REMARK    4  A    between atoms: C_15  and  N_17
REMARK    5  A    between atoms: C_25  and  C_26
REMARK                            x       y       z     vdW  Elec       q    Type
REMARK                         _______ _______ _______ _____ _____    ______ ____
ROOT
ATOM      1  C   UNL     1       0.695   9.901  -0.780  0.00  0.00    +0.034 C 
ATOM      2  C   UNL     1       2.077   9.682  -1.397  0.00  0.00    +0.083 C 
ATOM      3  C   UNL     1       2.211   8.245  -1.848  0.00  0.00    +0.115 C 
ATOM      4  C   UNL     1       1.568   7.259  -1.195  0.00  0.00    +0.046 C 
ATOM      5  C   UNL     1       1.713   5.824  -1.639  0.00  0.00    +0.105 C 
ATOM      6  C   UNL     1       2.225   5.769  -3.051  0.00  0.00    +0.098 C 
ATOM      7  C   UNL     1       2.829   6.849  -3.603  0.00  0.00    +0.198 C 
ATOM      8  O   UNL     1       2.993   7.988  -2.912  0.00  0.00    -0.445 OA
ATOM      9  C   UNL     1       0.744   7.531  -0.087  0.00  0.00    +0.164 C 
ATOM     10  O   UNL     1       0.193   6.612   0.486  0.00  0.00    -0.292 OA
ATOM     11  C   UNL     1       0.532   8.938   0.401  0.00  0.00    +0.088 C 
ENDROOT
BRANCH   1  15
ATOM     12  C   UNL     1       0.362  13.931   0.598  0.00  0.00    +0.000 A 
ATOM     13  C   UNL     1      -0.510  13.455  -0.364  0.00  0.00    +0.000 A 
ATOM     14  C   UNL     1      -0.402  12.151  -0.810  0.00  0.00    +0.004 A 
ATOM     15  C   UNL     1       0.578  11.323  -0.294  0.00  0.00    -0.043 A 
ATOM     16  C   UNL     1       1.446  11.797   0.671  0.00  0.00    +0.004 A 
ATOM     17  C   UNL     1       1.341  13.103   1.114  0.00  0.00    +0.000 A 
ENDBRANCH   1  15
BRANCH   5  18
ATOM     18  C   UNL     1       2.683   5.115  -0.728  0.00  0.00    +0.010 A 
ATOM     19  C   UNL     1       3.922   5.540  -0.400  0.00  0.00    +0.110 A 
ATOM     20  N   UNL     1       4.468   4.629   0.433  0.00  0.00    -0.284 N 
ATOM     21  H   UNL     1       5.382   4.677   0.837  0.00  0.00    +0.188 HD
ATOM     22  N   UNL     1       3.534   3.605   0.633  0.00  0.00    -0.174 NA
ATOM     23  C   UNL     1       2.458   3.891  -0.069  0.00  0.00    +0.097 A 
BRANCH  23  24
ATOM     24  C   UNL     1       1.223   3.071  -0.147  0.00  0.00    +0.003 A 
ATOM     25  C   UNL     1       1.310   1.684  -0.245  0.00  0.00    +0.013 A 
ATOM     26  C   UNL     1       0.160   0.925  -0.317  0.00  0.00    +0.039 A 
ATOM     27  C   UNL     1      -1.081   1.542  -0.296  0.00  0.00    +0.123 A 
ATOM     28  C   UNL     1      -1.172   2.920  -0.194  0.00  0.00    +0.039 A 
ATOM     29  C   UNL     1      -0.027   3.686  -0.121  0.00  0.00    +0.013 A 
ATOM     30  F   UNL     1      -2.205   0.796  -0.373  0.00  0.00    -0.205 F 
ENDBRANCH  23  24
ENDBRANCH   5  18
BRANCH   7  31
ATOM     31  N   UNL     1       3.282   6.777  -4.897  0.00  0.00    -0.328 N 
ATOM     32  H   UNL     1       3.169   5.959  -5.406  0.00  0.00    +0.145 HD
ATOM     33  H   UNL     1       3.716   7.544  -5.302  0.00  0.00    +0.145 HD
ENDBRANCH   7  31
BRANCH   6  34
ATOM     34  C   UNL     1       2.073   4.569  -3.818  0.00  0.00    +0.101 C 
ATOM     35  N   UNL     1       1.953   3.617  -4.426  0.00  0.00    -0.191 NA
ENDBRANCH   6  34
TORSDOF 5
