REMARK  Name = ZINC40029329
REMARK  17 active torsions:
REMARK  status: ('A' for Active; 'I' for Inactive)
REMARK    1  A    between atoms: C_1  and  C_2
REMARK    2  A    between atoms: C_2  and  O_3
REMARK    3  A    between atoms: O_3  and  C_4
REMARK    4  A    between atoms: C_8  and  C_10
REMARK    5  A    between atoms: C_10  and  C_12
REMARK    6  A    between atoms: N_16  and  C_34
REMARK    7  A    between atoms: C_17  and  C_19
REMARK    8  A    between atoms: C_21  and  C_30
REMARK    9  A    between atoms: C_22  and  O_29
REMARK   10  A    between atoms: C_23  and  C_25
REMARK   11  A    between atoms: C_25  and  C_26
REMARK   12  A    between atoms: C_25  and  C_27
REMARK   13  A    between atoms: C_25  and  C_28
REMARK   14  A    between atoms: C_30  and  C_31
REMARK   15  A    between atoms: C_30  and  C_32
REMARK   16  A    between atoms: C_30  and  C_33
REMARK   17  A    between atoms: C_34  and  C_35
REMARK                            x       y       z     vdW  Elec       q    Type
REMARK                         _______ _______ _______ _____ _____    ______ ____
ROOT
ATOM      1  C   UNL     1      -4.459  -6.081  -0.248  0.00  0.00    +0.076 C 
ATOM      2  C   UNL     1      -5.644  -6.729  -0.338  0.00  0.00    +0.249 C 
ATOM      3  C   UNL     1      -5.409  -8.186  -0.247  0.00  0.00    +0.288 C 
ATOM      4  O   UNL     1      -6.276  -9.037  -0.296  0.00  0.00    -0.266 OA
ATOM      5  N   UNL     1      -4.094  -8.431  -0.104  0.00  0.00    -0.280 N 
ATOM      6  C   UNL     1      -3.393  -7.141  -0.098  0.00  0.00    +0.145 C 
ATOM      7  O   UNL     1      -6.852  -6.138  -0.486  0.00  0.00    -0.282 OA
ENDROOT
BRANCH   6   8
ATOM      8  C   UNL     1      -2.661  -6.959   1.206  0.00  0.00    -0.022 A 
ATOM      9  C   UNL     1      -3.217  -7.428   2.382  0.00  0.00    +0.013 A 
ATOM     10  C   UNL     1      -2.548  -7.262   3.579  0.00  0.00    +0.000 A 
ATOM     11  C   UNL     1      -1.317  -6.623   3.601  0.00  0.00    +0.124 A 
ATOM     12  C   UNL     1      -0.760  -6.153   2.420  0.00  0.00    +0.000 A 
ATOM     13  C   UNL     1      -1.431  -6.327   1.225  0.00  0.00    +0.013 A 
BRANCH  12  14
ATOM     14  C   UNL     1       0.577  -5.459   2.440  0.00  0.00    -0.009 C 
ATOM     15  C   UNL     1       0.931  -4.992   1.027  0.00  0.00    +0.015 C 
ATOM     16  C   UNL     1       0.509  -4.249   3.375  0.00  0.00    +0.015 C 
ATOM     17  C   UNL     1       1.648  -6.430   2.940  0.00  0.00    +0.015 C 
ENDBRANCH  12  14
BRANCH  10  18
ATOM     18  C   UNL     1      -3.156  -7.773   4.860  0.00  0.00    -0.009 C 
ATOM     19  C   UNL     1      -4.504  -8.430   4.558  0.00  0.00    +0.015 C 
ATOM     20  C   UNL     1      -2.218  -8.802   5.494  0.00  0.00    +0.015 C 
ATOM     21  C   UNL     1      -3.362  -6.606   5.828  0.00  0.00    +0.015 C 
ENDBRANCH  10  18
BRANCH  11  22
ATOM     22  O   UNL     1      -0.657  -6.457   4.777  0.00  0.00    -0.506 OA
ATOM     23  H   UNL     1      -0.061  -7.186   5.000  0.00  0.00    +0.292 HD
ENDBRANCH  11  22
ENDBRANCH   6   8
BRANCH   1  24
ATOM     24  C   UNL     1      -4.250  -4.631  -0.294  0.00  0.00    +0.195 C 
ATOM     25  O   UNL     1      -4.681  -3.926   0.599  0.00  0.00    -0.287 OA
BRANCH  24  30
ATOM     26  C   UNL     1      -2.663  -2.082  -2.556  0.00  0.00    +0.121 A 
ATOM     27  C   UNL     1      -2.135  -2.897  -3.549  0.00  0.00    +0.045 A 
ATOM     28  C   UNL     1      -2.294  -4.269  -3.482  0.00  0.00    +0.004 A 
ATOM     29  C   UNL     1      -2.980  -4.837  -2.428  0.00  0.00    +0.012 A 
ATOM     30  C   UNL     1      -3.514  -4.026  -1.425  0.00  0.00    +0.026 A 
ATOM     31  C   UNL     1      -3.348  -2.641  -1.491  0.00  0.00    +0.057 A 
BRANCH  26  32
ATOM     32  O   UNL     1      -2.503  -0.734  -2.627  0.00  0.00    -0.492 OA
BRANCH  32  34
ATOM     33  C   UNL     1      -1.709   1.301  -3.662  0.00  0.00    +0.048 C 
ATOM     34  C   UNL     1      -1.786  -0.224  -3.754  0.00  0.00    +0.225 C 
ENDBRANCH  32  34
ENDBRANCH  26  32
ENDBRANCH  24  30
ENDBRANCH   1  24
BRANCH   5  35
ATOM     35  C   UNL     1      -3.472  -9.751   0.021  0.00  0.00    +0.136 C 
BRANCH  35  36
ATOM     36  C   UNL     1      -3.115 -10.269  -1.349  0.00  0.00    -0.016 C 
ATOM     37  C   UNL     1      -1.885 -10.637  -1.611  0.00  0.00    +0.005 C 
ENDBRANCH  35  36
ENDBRANCH   5  35
TORSDOF 10
