REMARK  Name = ZINC02642351
REMARK  15 active torsions:
REMARK  status: ('A' for Active; 'I' for Inactive)
REMARK    1  A    between atoms: C_1  and  C_2
REMARK    2  A    between atoms: C_5  and  S_8
REMARK    3  A    between atoms: S_8  and  N_11
REMARK    4  A    between atoms: N_11  and  C_12
REMARK    5  A    between atoms: C_12  and  C_14
REMARK    6  A    between atoms: C_12  and  C_17
REMARK    7  A    between atoms: C_14  and  C_15
REMARK    8  A    between atoms: C_14  and  C_16
REMARK    9  A    between atoms: C_17  and  O_19
REMARK   10  A    between atoms: O_19  and  C_20
REMARK   11  A    between atoms: C_20  and  C_21
REMARK   12  A    between atoms: N_23  and  C_24
REMARK   13  A    between atoms: C_25  and  C_32
REMARK   14  A    between atoms: C_32  and  O_34
REMARK   15  A    between atoms: O_34  and  C_35
REMARK                            x       y       z     vdW  Elec       q    Type
REMARK                         _______ _______ _______ _____ _____    ______ ____
ROOT
ATOM      1  C   UNL     1       2.533   5.603   0.059  0.00  0.00    +0.327 C 
ATOM      2  O   UNL     1       1.665   6.444   0.076  0.00  0.00    -0.249 OA
ENDROOT
BRANCH   1   3
ATOM      3  C   UNL     1       3.981   6.016  -0.006  0.00  0.00    +0.187 C 
BRANCH   3   4
ATOM      4  C   UNL     1       4.620   5.436  -1.270  0.00  0.00    +0.012 C 
ATOM      5  C   UNL     1       6.047   5.970  -1.410  0.00  0.00    +0.009 C 
ATOM      6  C   UNL     1       4.654   3.910  -1.171  0.00  0.00    +0.009 C 
ENDBRANCH   3   4
BRANCH   3   7
ATOM      7  N   UNL     1       4.071   7.477  -0.039  0.00  0.00    -0.176 NA
ATOM      8  H   UNL     1       3.982   7.950  -0.881  0.00  0.00    +0.149 HD
BRANCH   7   9
ATOM      9  S   UNL     1       4.325   8.323   1.362  0.00  0.00    +0.059 S 
ATOM     10  O   UNL     1       4.424   9.693   0.998  0.00  0.00    -0.153 OA
ATOM     11  O   UNL     1       3.368   7.851   2.300  0.00  0.00    -0.153 OA
BRANCH   9  16
ATOM     12  C   UNL     1       9.744   6.705   3.466  0.00  0.00    +0.044 C 
ATOM     13  C   UNL     1       8.390   7.109   2.941  0.00  0.00    -0.050 A 
ATOM     14  C   UNL     1       8.265   8.231   2.143  0.00  0.00    +0.005 A 
ATOM     15  C   UNL     1       7.024   8.602   1.661  0.00  0.00    +0.029 A 
ATOM     16  C   UNL     1       5.907   7.851   1.977  0.00  0.00    +0.105 A 
ATOM     17  C   UNL     1       6.032   6.731   2.779  0.00  0.00    +0.029 A 
ATOM     18  C   UNL     1       7.274   6.358   3.257  0.00  0.00    +0.005 A 
ENDBRANCH   9  16
ENDBRANCH   7   9
ENDBRANCH   3   7
ENDBRANCH   1   3
BRANCH   1  19
ATOM     19  O   UNL     1       2.207   4.302   0.098  0.00  0.00    -0.454 OA
BRANCH  19  20
ATOM     20  C   UNL     1       0.793   3.978   0.160  0.00  0.00    +0.328 C 
BRANCH  20  21
ATOM     21  C   UNL     1       0.621   2.481   0.197  0.00  0.00    +0.255 C 
ATOM     22  O   UNL     1       1.595   1.758   0.173  0.00  0.00    -0.272 OA
ATOM     23  N   UNL     1      -0.614   1.945   0.256  0.00  0.00    -0.277 N 
ATOM     24  H   UNL     1      -1.393   2.523   0.271  0.00  0.00    +0.155 HD
BRANCH  23  25
ATOM     25  C   UNL     1      -0.772   0.569   0.290  0.00  0.00    +0.086 A 
ATOM     26  C   UNL     1      -1.947  -0.162   0.356  0.00  0.00    +0.091 A 
ATOM     27  C   UNL     1      -1.836  -1.621   0.377  0.00  0.00    -0.021 A 
ATOM     28  C   UNL     1      -0.580  -2.099   0.337  0.00  0.00    -0.004 A 
ATOM     29  S   UNL     1       0.452  -0.655   0.267  0.00  0.00    -0.077 S 
ATOM     30  C   UNL     1      -0.548  -3.603   0.364  0.00  0.00    +0.043 C 
ATOM     31  C   UNL     1      -1.985  -4.030  -0.009  0.00  0.00    +0.010 C 
ATOM     32  C   UNL     1      -2.803  -2.803   0.442  0.00  0.00    +0.037 C 
BRANCH  26  33
ATOM     33  C   UNL     1      -3.252   0.501   0.400  0.00  0.00    +0.342 C 
ATOM     34  O   UNL     1      -3.840   0.755  -0.634  0.00  0.00    -0.245 OA
BRANCH  33  35
ATOM     35  O   UNL     1      -3.801   0.831   1.587  0.00  0.00    -0.464 OA
ATOM     36  C   UNL     1      -5.097   1.486   1.554  0.00  0.00    +0.280 C 
ENDBRANCH  33  35
ENDBRANCH  26  33
ENDBRANCH  23  25
ENDBRANCH  20  21
ENDBRANCH  19  20
ENDBRANCH   1  19
TORSDOF 11
