REMARK  Name = ZINC08843213
REMARK  11 active torsions:
REMARK  status: ('A' for Active; 'I' for Inactive)
REMARK    1  A    between atoms: C_1  and  C_2
REMARK    2  A    between atoms: C_2  and  O_3
REMARK    3  A    between atoms: O_3  and  C_4
REMARK    4  A    between atoms: C_9  and  N_10
REMARK    5  A    between atoms: C_11  and  C_13
REMARK    6  A    between atoms: C_17  and  N_18
REMARK    7  A    between atoms: C_19  and  C_21
REMARK    8  A    between atoms: C_21  and  C_23
REMARK    9  A    between atoms: C_21  and  O_24
REMARK   10  A    between atoms: O_24  and  C_25
REMARK   11  A    between atoms: C_33  and  C_37
REMARK                            x       y       z     vdW  Elec       q    Type
REMARK                         _______ _______ _______ _____ _____    ______ ____
ROOT
ATOM      1  C   UNL     1      -6.368  -1.210  -0.153  0.00  0.00    +0.069 A 
ATOM      2  C   UNL     1      -6.909  -0.782  -1.432  0.00  0.00    -0.023 A 
ATOM      3  C   UNL     1      -8.017  -0.013  -1.360  0.00  0.00    -0.004 A 
ATOM      4  S   UNL     1      -8.337   0.159   0.373  0.00  0.00    -0.077 S 
ATOM      5  C   UNL     1      -7.023  -0.784   0.995  0.00  0.00    +0.085 A 
ATOM      6  C   UNL     1      -8.790   0.567  -2.504  0.00  0.00    +0.046 C 
ATOM      7  C   UNL     1      -7.929   0.462  -3.772  0.00  0.00    -0.009 C 
ATOM      8  C   UNL     1      -7.363  -0.957  -3.867  0.00  0.00    +0.008 C 
ATOM      9  C   UNL     1      -6.311  -1.172  -2.778  0.00  0.00    +0.037 C 
ATOM     10  C   UNL     1      -8.790   0.758  -5.002  0.00  0.00    +0.008 C 
ENDROOT
BRANCH   1  12
ATOM     11  N   UNL     1      -3.951  -1.486  -0.012  0.00  0.00    -0.278 N 
ATOM     12  C   UNL     1      -5.172  -2.053  -0.077  0.00  0.00    +0.251 C 
ATOM     13  O   UNL     1      -5.281  -3.265  -0.072  0.00  0.00    -0.270 OA
ATOM     14  H   UNL     1      -3.866  -0.522   0.048  0.00  0.00    +0.155 HD
BRANCH  11  20
ATOM     15  C   UNL     1      -1.647  -1.841  -0.666  0.00  0.00    +0.142 A 
ATOM     16  C   UNL     1      -0.514  -2.638  -0.678  0.00  0.00    +0.047 A 
ATOM     17  C   UNL     1      -0.533  -3.877  -0.066  0.00  0.00    +0.004 A 
ATOM     18  C   UNL     1      -1.683  -4.326   0.559  0.00  0.00    +0.002 A 
ATOM     19  C   UNL     1      -2.817  -3.537   0.575  0.00  0.00    +0.027 A 
ATOM     20  C   UNL     1      -2.804  -2.290  -0.032  0.00  0.00    +0.076 A 
BRANCH  15  21
ATOM     21  O   UNL     1      -1.629  -0.621  -1.267  0.00  0.00    -0.490 OA
BRANCH  21  23
ATOM     22  C   UNL     1      -0.578   1.166  -2.508  0.00  0.00    +0.048 C 
ATOM     23  C   UNL     1      -0.407  -0.224  -1.891  0.00  0.00    +0.226 C 
ENDBRANCH  21  23
ENDBRANCH  15  21
ENDBRANCH  11  20
ENDBRANCH   1  12
BRANCH   5  24
ATOM     24  N   UNL     1      -6.703  -1.050   2.317  0.00  0.00    -0.276 N 
ATOM     25  C   UNL     1      -7.464  -0.545   3.309  0.00  0.00    +0.258 C 
ATOM     26  O   UNL     1      -8.428   0.141   3.044  0.00  0.00    -0.271 OA
ATOM     27  H   UNL     1      -5.932  -1.599   2.529  0.00  0.00    +0.155 HD
BRANCH  25  28
ATOM     28  C   UNL     1      -7.117  -0.834   4.747  0.00  0.00    +0.256 C 
ATOM     29  C   UNL     1      -7.152  -2.344   4.987  0.00  0.00    +0.062 C 
BRANCH  28  30
ATOM     30  O   UNL     1      -8.065  -0.194   5.603  0.00  0.00    -0.480 OA
BRANCH  30  31
ATOM     31  C   UNL     1      -7.604   0.271   6.795  0.00  0.00    +0.123 A 
ATOM     32  C   UNL     1      -6.300   0.005   7.187  0.00  0.00    +0.046 A 
ATOM     33  C   UNL     1      -5.834   0.478   8.398  0.00  0.00    +0.005 A 
ATOM     34  C   UNL     1      -6.665   1.217   9.220  0.00  0.00    +0.020 A 
ATOM     35  C   UNL     1      -7.966   1.485   8.831  0.00  0.00    +0.044 A 
ATOM     36  C   UNL     1      -8.435   1.018   7.617  0.00  0.00    +0.065 A 
ATOM     37 CL   UNL     1      -9.007   2.414   9.864  0.00  0.00    -0.083 Cl
ENDBRANCH  30  31
ENDBRANCH  28  30
ENDBRANCH  25  28
ENDBRANCH   5  24
TORSDOF 8
