REMARK  Name = ZINC11440919
REMARK  8 active torsions:
REMARK  status: ('A' for Active; 'I' for Inactive)
REMARK    1  A    between atoms: C_6  and  N_7
REMARK    2  A    between atoms: C_8  and  C_10
REMARK    3  A    between atoms: C_10  and  O_11
REMARK    4  A    between atoms: O_11  and  C_12
REMARK    5  A    between atoms: C_12  and  C_14
REMARK    6  A    between atoms: C_14  and  C_15
REMARK    7  A    between atoms: C_15  and  N_16
REMARK    8  A    between atoms: N_19  and  C_20
REMARK                            x       y       z     vdW  Elec       q    Type
REMARK                         _______ _______ _______ _____ _____    ______ ____
ROOT
ATOM      1  C   UNL     1       7.149   2.374  -0.373  0.00  0.00    +0.117 C 
ENDROOT
BRANCH   1   2
ATOM      2  N   UNL     1       8.174   3.396  -0.598  0.00  0.00    -0.299 N 
ATOM      3  C   UNL     1       9.480   3.065  -0.545  0.00  0.00    +0.300 C 
ATOM      4  O   UNL     1       9.807   1.918  -0.311  0.00  0.00    -0.253 OA
ATOM      5  N   UNL     1      10.422   4.005  -0.753  0.00  0.00    -0.294 N 
ATOM      6  H   UNL     1       7.913   4.311  -0.786  0.00  0.00    +0.150 HD
ATOM      7  H   UNL     1      10.162   4.921  -0.940  0.00  0.00    +0.151 HD
BRANCH   5   8
ATOM      8  C   UNL     1      11.841   3.646  -0.695  0.00  0.00    +0.037 C 
ATOM      9  C   UNL     1      12.171   3.091   0.692  0.00  0.00    +0.029 C 
ATOM     10  C   UNL     1      13.653   2.715   0.752  0.00  0.00    -0.008 C 
ATOM     11  C   UNL     1      14.505   3.957   0.484  0.00  0.00    +0.007 C 
ATOM     12  C   UNL     1      14.176   4.511  -0.904  0.00  0.00    -0.008 C 
ATOM     13  C   UNL     1      12.694   4.887  -0.964  0.00  0.00    +0.029 C 
ATOM     14  C   UNL     1      14.476   3.448  -1.962  0.00  0.00    +0.007 C 
ATOM     15  C   UNL     1      13.623   2.206  -1.694  0.00  0.00    -0.008 C 
ATOM     16  C   UNL     1      13.953   1.652  -0.306  0.00  0.00    +0.007 C 
ATOM     17  C   UNL     1      12.141   2.582  -1.754  0.00  0.00    +0.029 C 
ENDBRANCH   5   8
ENDBRANCH   1   2
BRANCH   1  18
ATOM     18  C   UNL     1       5.762   3.009  -0.488  0.00  0.00    +0.139 C 
BRANCH  18  19
ATOM     19  C   UNL     1       4.708   1.957  -0.257  0.00  0.00    +0.309 C 
ATOM     20  O   UNL     1       5.033   0.817  -0.023  0.00  0.00    -0.251 OA
BRANCH  19  21
ATOM     21  O   UNL     1       3.408   2.287  -0.309  0.00  0.00    -0.455 OA
BRANCH  21  22
ATOM     22  C   UNL     1       2.448   1.223  -0.076  0.00  0.00    +0.328 C 
BRANCH  22  24
ATOM     23  N   UNL     1      -0.011   0.966   0.007  0.00  0.00    -0.283 N 
ATOM     24  C   UNL     1       1.050   1.777  -0.174  0.00  0.00    +0.255 C 
ATOM     25  O   UNL     1       0.879   2.953  -0.417  0.00  0.00    -0.272 OA
ATOM     26  H   UNL     1       0.122   0.012   0.124  0.00  0.00    +0.155 HD
BRANCH  23  32
ATOM     27  C   UNL     1      -1.528   2.769   0.536  0.00  0.00    +0.024 A 
ATOM     28  C   UNL     1      -2.805   3.295   0.544  0.00  0.00    +0.017 A 
ATOM     29  C   UNL     1      -3.864   2.553   0.051  0.00  0.00    +0.018 A 
ATOM     30  C   UNL     1      -3.645   1.284  -0.456  0.00  0.00    +0.017 A 
ATOM     31  C   UNL     1      -2.369   0.756  -0.472  0.00  0.00    +0.024 A 
ATOM     32  C   UNL     1      -1.305   1.499   0.022  0.00  0.00    +0.034 A 
ATOM     33 BR   UNL     1      -5.612   3.273   0.071  0.00  0.00    -0.050 Br
ENDBRANCH  23  32
ENDBRANCH  22  24
ENDBRANCH  21  22
ENDBRANCH  19  21
ENDBRANCH  18  19
ENDBRANCH   1  18
TORSDOF 8
