REMARK  Name = ZINC03840225
REMARK  9 active torsions:
REMARK  status: ('A' for Active; 'I' for Inactive)
REMARK    1  A    between atoms: C_3  and  C_6
REMARK    2  A    between atoms: C_6  and  C_7
REMARK    3  A    between atoms: C_7  and  C_9
REMARK    4  A    between atoms: C_7  and  N_12
REMARK    5  A    between atoms: C_13  and  C_15
REMARK    6  A    between atoms: C_17  and  O_26
REMARK    7  A    between atoms: C_19  and  O_25
REMARK    8  A    between atoms: C_21  and  O_24
REMARK    9  A    between atoms: O_26  and  C_27
REMARK                            x       y       z     vdW  Elec       q    Type
REMARK                         _______ _______ _______ _____ _____    ______ ____
ROOT
ATOM      1  C   UNL     1       2.475   3.770   4.245  0.00  0.00    +0.016 C 
ATOM      2  C   UNL     1       2.332   3.881   5.548  0.00  0.00    +0.028 C 
ATOM      3  C   UNL     1       1.696   5.063   6.221  0.00  0.00    +0.228 C 
ATOM      4  C   UNL     1       1.643   6.251   5.258  0.00  0.00    +0.188 C 
ATOM      5  C   UNL     1       1.041   5.775   3.931  0.00  0.00    +0.151 C 
ATOM      6  C   UNL     1       2.034   4.818   3.265  0.00  0.00    +0.074 C 
ENDROOT
BRANCH   1   8
ATOM      7  N   UNL     1       3.279   2.401   2.391  0.00  0.00    -0.300 N 
ATOM      8  C   UNL     1       3.108   2.552   3.719  0.00  0.00    +0.241 C 
ATOM      9  O   UNL     1       3.479   1.680   4.482  0.00  0.00    -0.271 OA
ATOM     10  H   UNL     1       2.984   3.096   1.782  0.00  0.00    +0.150 HD
BRANCH   7  11
ATOM     11  C   UNL     1       3.910   1.187   1.866  0.00  0.00    +0.164 C 
BRANCH  11  12
ATOM     12  C   UNL     1       5.408   1.348   1.894  0.00  0.00    +0.231 C 
ATOM     13  O   UNL     1       5.900   2.375   2.311  0.00  0.00    -0.274 OA
ATOM     14  N   UNL     1       6.201   0.350   1.456  0.00  0.00    -0.328 N 
ATOM     15  H   UNL     1       5.808  -0.471   1.123  0.00  0.00    +0.145 HD
ATOM     16  H   UNL     1       7.166   0.453   1.474  0.00  0.00    +0.145 HD
ENDBRANCH  11  12
BRANCH  11  17
ATOM     17  C   UNL     1       3.449   0.954   0.426  0.00  0.00    +0.074 C 
BRANCH  17  20
ATOM     18  C   UNL     1      -0.357   1.050   0.311  0.00  0.00    +0.008 A 
ATOM     19  C   UNL     1       0.935   1.541   0.300  0.00  0.00    +0.011 A 
ATOM     20  C   UNL     1       1.969   0.671   0.412  0.00  0.00    -0.008 A 
ATOM     21  S   UNL     1       1.122  -0.895   0.538  0.00  0.00    -0.102 S 
ATOM     22  C   UNL     1      -0.553  -0.285   0.433  0.00  0.00    +0.045 A 
ENDBRANCH  17  20
ENDBRANCH  11  17
ENDBRANCH   7  11
ENDBRANCH   1   8
BRANCH   5  23
ATOM     23  O   UNL     1      -0.195   5.101   4.178  0.00  0.00    -0.389 OA
ATOM     24  H   UNL     1      -0.631   4.773   3.380  0.00  0.00    +0.210 HD
ENDBRANCH   5  23
BRANCH   4  25
ATOM     25  O   UNL     1       0.828   7.284   5.816  0.00  0.00    -0.385 OA
ATOM     26  H   UNL     1       0.751   8.069   5.257  0.00  0.00    +0.210 HD
ENDBRANCH   4  25
BRANCH   3  27
ATOM     27  O   UNL     1       2.464   5.423   7.372  0.00  0.00    -0.482 OA
BRANCH  27  28
ATOM     28  C   UNL     1       2.207   4.745   8.522  0.00  0.00    +0.125 A 
ATOM     29  C   UNL     1       2.830   5.121   9.702  0.00  0.00    +0.049 A 
ATOM     30  C   UNL     1       2.571   4.433  10.873  0.00  0.00    +0.053 A 
ATOM     31  C   UNL     1       1.687   3.366  10.870  0.00  0.00    +0.166 A 
ATOM     32  C   UNL     1       1.060   2.986   9.686  0.00  0.00    +0.170 A 
ATOM     33  C   UNL     1       1.318   3.681   8.515  0.00  0.00    +0.095 A 
ATOM     34  O   UNL     1       0.247   1.921   9.945  0.00  0.00    -0.452 OA
ATOM     35  C   UNL     1       0.693   1.395  11.209  0.00  0.00    +0.466 C 
ATOM     36  O   UNL     1       1.267   2.538  11.871  0.00  0.00    -0.453 OA
ENDBRANCH  27  28
ENDBRANCH   3  27
TORSDOF 9
