REMARK  Name = ZINC12539647
REMARK  13 active torsions:
REMARK  status: ('A' for Active; 'I' for Inactive)
REMARK    1  A    between atoms: C_1  and  C_2
REMARK    2  A    between atoms: C_2  and  C_3
REMARK    3  A    between atoms: C_2  and  C_4
REMARK    4  A    between atoms: C_4  and  C_6
REMARK    5  A    between atoms: C_4  and  N_27
REMARK    6  A    between atoms: N_8  and  C_9
REMARK    7  A    between atoms: C_9  and  C_10
REMARK    8  A    between atoms: C_10  and  N_11
REMARK    9  A    between atoms: C_15  and  C_16
REMARK   10  A    between atoms: C_19  and  O_22
REMARK   11  A    between atoms: O_22  and  C_23
REMARK   12  A    between atoms: N_27  and  S_28
REMARK   13  A    between atoms: S_28  and  C_31
REMARK                            x       y       z     vdW  Elec       q    Type
REMARK                         _______ _______ _______ _____ _____    ______ ____
ROOT
ATOM      1  C   UNL     1       5.154   2.028  -3.670  0.00  0.00    +0.232 C 
ATOM      2  O   UNL     1       4.692   0.912  -3.780  0.00  0.00    -0.274 OA
ATOM      3  N   UNL     1       4.996   2.924  -4.665  0.00  0.00    -0.312 N 
ATOM      4  H   UNL     1       5.366   3.817  -4.577  0.00  0.00    +0.149 HD
ENDROOT
BRANCH   1   5
ATOM      5  C   UNL     1       5.904   2.414  -2.421  0.00  0.00    +0.165 C 
BRANCH   5   7
ATOM      6  C   UNL     1       8.050   3.343  -1.543  0.00  0.00    +0.009 C 
ATOM      7  C   UNL     1       7.334   2.814  -2.787  0.00  0.00    +0.010 C 
ATOM      8  C   UNL     1       8.083   1.593  -3.326  0.00  0.00    +0.009 C 
ENDBRANCH   5   7
BRANCH   5   9
ATOM      9  N   UNL     1       5.936   1.275  -1.500  0.00  0.00    -0.178 NA
ATOM     10  H   UNL     1       6.390   0.457  -1.756  0.00  0.00    +0.149 HD
BRANCH   9  11
ATOM     11  S   UNL     1       5.198   1.385  -0.021  0.00  0.00    +0.059 S 
ATOM     12  O   UNL     1       5.707   2.556   0.601  0.00  0.00    -0.153 OA
ATOM     13  O   UNL     1       5.295   0.100   0.578  0.00  0.00    -0.153 OA
BRANCH  11  14
ATOM     14  C   UNL     1       3.485   1.675  -0.314  0.00  0.00    +0.105 A 
ATOM     15  C   UNL     1       2.615   0.608  -0.441  0.00  0.00    +0.028 A 
ATOM     16  C   UNL     1       1.271   0.835  -0.671  0.00  0.00    +0.002 A 
ATOM     17  C   UNL     1       0.797   2.129  -0.775  0.00  0.00    +0.000 A 
ATOM     18  C   UNL     1       1.667   3.196  -0.648  0.00  0.00    +0.002 A 
ATOM     19  C   UNL     1       3.011   2.969  -0.418  0.00  0.00    +0.028 A 
ENDBRANCH  11  14
ENDBRANCH   9  11
ENDBRANCH   5   9
ENDBRANCH   1   5
BRANCH   3  20
ATOM     20  C   UNL     1       4.268   2.549  -5.879  0.00  0.00    +0.123 C 
BRANCH  20  21
ATOM     21  C   UNL     1       4.234   3.739  -6.841  0.00  0.00    +0.136 C 
BRANCH  21  22
ATOM     22  N   UNL     1       3.505   3.364  -8.055  0.00  0.00    -0.227 N 
ATOM     23  C   UNL     1       2.198   3.559  -8.111  0.00  0.00    +0.260 C 
ATOM     24  O   UNL     1       1.584   4.042  -7.178  0.00  0.00    -0.269 OA
ATOM     25  C   UNL     1       1.522   3.161  -9.361  0.00  0.00    +0.080 C 
ATOM     26  C   UNL     1       0.210   3.242  -9.699  0.00  0.00    +0.028 C 
ATOM     27  S   UNL     1       2.907   2.543 -10.308  0.00  0.00    -0.026 S 
ATOM     28  C   UNL     1       4.183   2.833  -9.093  0.00  0.00    +0.286 C 
ATOM     29  O   UNL     1       5.374   2.605  -9.180  0.00  0.00    -0.262 OA
BRANCH  26  30
ATOM     30  C   UNL     1      -0.209   2.986 -11.083  0.00  0.00    -0.024 A 
ATOM     31  C   UNL     1       0.751   2.841 -12.092  0.00  0.00    +0.011 A 
ATOM     32  C   UNL     1       0.353   2.597 -13.387  0.00  0.00    +0.046 A 
ATOM     33  C   UNL     1      -1.000   2.505 -13.696  0.00  0.00    +0.120 A 
ATOM     34  C   UNL     1      -1.957   2.653 -12.699  0.00  0.00    +0.046 A 
ATOM     35  C   UNL     1      -1.570   2.893 -11.399  0.00  0.00    +0.011 A 
BRANCH  33  36
ATOM     36  O   UNL     1      -1.387   2.269 -14.975  0.00  0.00    -0.495 OA
ATOM     37  C   UNL     1      -0.352   2.127 -15.951  0.00  0.00    +0.277 C 
ENDBRANCH  33  36
ENDBRANCH  26  30
ENDBRANCH  21  22
ENDBRANCH  20  21
ENDBRANCH   3  20
TORSDOF 10
