REMARK  Name = ZINC15053814
REMARK  9 active torsions:
REMARK  status: ('A' for Active; 'I' for Inactive)
REMARK    1  A    between atoms: C_1  and  C_2
REMARK    2  A    between atoms: C_2  and  N_3
REMARK    3  A    between atoms: N_3  and  C_4
REMARK    4  A    between atoms: N_3  and  C_6
REMARK    5  A    between atoms: C_4  and  C_5
REMARK    6  A    between atoms: C_9  and  C_12
REMARK    7  A    between atoms: N_16  and  C_20
REMARK    8  A    between atoms: C_23  and  S_26
REMARK    9  A    between atoms: S_26  and  N_29
REMARK                            x       y       z     vdW  Elec       q    Type
REMARK                         _______ _______ _______ _____ _____    ______ ____
ROOT
ATOM      1  C   UNL     1      -4.911   4.162  -0.427  0.00  0.00    +0.028 C 
ATOM      2  C   UNL     1      -6.086   3.495  -0.299  0.00  0.00    +0.078 C 
ATOM      3  C   UNL     1      -7.466   4.000  -0.425  0.00  0.00    +0.263 C 
ATOM      4  O   UNL     1      -7.694   5.168  -0.680  0.00  0.00    -0.269 OA
ATOM      5  N   UNL     1      -8.444   3.128  -0.249  0.00  0.00    -0.215 N 
ATOM      6  C   UNL     1      -8.162   1.806   0.039  0.00  0.00    +0.165 C 
ATOM      7  N   UNL     1      -8.996   0.823   0.239  0.00  0.00    -0.279 NA
ATOM      8  S   UNL     1      -6.377   1.769   0.061  0.00  0.00    -0.049 S 
ATOM      9  H   UNL     1      -8.660  -0.066   0.434  0.00  0.00    +0.189 HD
ENDROOT
BRANCH   1  13
ATOM     10  C   UNL     1      -1.249   2.024  -0.413  0.00  0.00    +0.030 A 
ATOM     11  C   UNL     1      -1.253   3.395  -0.174  0.00  0.00    +0.024 A 
ATOM     12  C   UNL     1      -2.438   4.094  -0.182  0.00  0.00    +0.010 A 
ATOM     13  C   UNL     1      -3.643   3.421  -0.422  0.00  0.00    -0.024 A 
ATOM     14  C   UNL     1      -3.635   2.041  -0.658  0.00  0.00    +0.010 A 
ATOM     15  C   UNL     1      -2.444   1.351  -0.652  0.00  0.00    +0.024 A 
BRANCH  10  16
ATOM     16  N   UNL     1      -0.046   1.322  -0.409  0.00  0.00    -0.330 N 
BRANCH  16  18
ATOM     17  C   UNL     1       1.801   2.509  -1.486  0.00  0.00    +0.024 C 
ATOM     18  C   UNL     1       1.213   2.027  -0.158  0.00  0.00    +0.102 C 
ENDBRANCH  16  18
BRANCH  16  19
ATOM     19  C   UNL     1      -0.041  -0.123  -0.649  0.00  0.00    +0.102 C 
ATOM     20  C   UNL     1      -0.189  -0.862   0.683  0.00  0.00    +0.024 C 
ENDBRANCH  16  19
ENDBRANCH  10  16
ENDBRANCH   1  13
BRANCH   5  21
ATOM     21  C   UNL     1      -9.777   3.547  -0.356  0.00  0.00    +0.044 A 
ATOM     22  C   UNL     1     -10.316   4.401   0.596  0.00  0.00    +0.026 A 
ATOM     23  C   UNL     1     -11.629   4.816   0.485  0.00  0.00    +0.030 A 
ATOM     24  C   UNL     1     -12.409   4.373  -0.568  0.00  0.00    +0.105 A 
ATOM     25  C   UNL     1     -11.876   3.518  -1.515  0.00  0.00    +0.030 A 
ATOM     26  C   UNL     1     -10.562   3.104  -1.412  0.00  0.00    +0.026 A 
BRANCH  24  27
ATOM     27  S   UNL     1     -14.085   4.899  -0.702  0.00  0.00    +0.056 S 
ATOM     28  O   UNL     1     -14.183   6.128   0.006  0.00  0.00    -0.153 OA
ATOM     29  O   UNL     1     -14.440   4.779  -2.072  0.00  0.00    -0.153 OA
BRANCH  27  30
ATOM     30  N   UNL     1     -15.010   3.802   0.125  0.00  0.00    -0.204 NA
ATOM     31  H   UNL     1     -14.589   3.046   0.564  0.00  0.00    +0.144 HD
ATOM     32  H   UNL     1     -15.972   3.915   0.170  0.00  0.00    +0.144 HD
ENDBRANCH  27  30
ENDBRANCH  24  27
ENDBRANCH   5  21
TORSDOF 7
