REMARK  Name = ZINC67388898
REMARK  8 active torsions:
REMARK  status: ('A' for Active; 'I' for Inactive)
REMARK    1  A    between atoms: C_1  and  C_2
REMARK    2  A    between atoms: C_3  and  C_7
REMARK    3  A    between atoms: N_9  and  C_10
REMARK    4  A    between atoms: N_18  and  C_19
REMARK    5  A    between atoms: C_25  and  C_27
REMARK    6  A    between atoms: C_27  and  C_28
REMARK    7  A    between atoms: C_27  and  C_29
REMARK    8  A    between atoms: C_27  and  C_30
REMARK                            x       y       z     vdW  Elec       q    Type
REMARK                         _______ _______ _______ _____ _____    ______ ____
ROOT
ATOM      1  C   UNL     1      -5.009  -1.179   0.809  0.00  0.00    +0.076 C 
ATOM      2  C   UNL     1      -5.613  -1.197   2.215  0.00  0.00    +0.041 C 
ATOM      3  C   UNL     1      -7.088  -0.789   2.138  0.00  0.00    +0.111 C 
ATOM      4  N   UNL     1      -7.771  -1.664   1.175  0.00  0.00    -0.286 N 
ATOM      5  C   UNL     1      -7.220  -1.790  -0.180  0.00  0.00    +0.111 C 
ATOM      6  C   UNL     1      -5.744  -2.187  -0.077  0.00  0.00    +0.041 C 
ATOM      7  C   UNL     1      -8.883  -2.339   1.530  0.00  0.00    +0.302 C 
ATOM      8  O   UNL     1      -9.280  -2.296   2.679  0.00  0.00    -0.253 OA
ATOM      9  N   UNL     1      -9.554  -3.062   0.612  0.00  0.00    -0.296 N 
ATOM     10  H   UNL     1      -9.199  -3.155  -0.286  0.00  0.00    +0.151 HD
ENDROOT
BRANCH   9  11
ATOM     11  C   UNL     1     -10.819  -3.708   0.970  0.00  0.00    +0.078 C 
ATOM     12  C   UNL     1     -10.539  -5.107   1.522  0.00  0.00    +0.022 C 
ATOM     13  C   UNL     1      -9.824  -5.942   0.458  0.00  0.00    +0.002 C 
ATOM     14  C   UNL     1     -10.710  -6.052  -0.784  0.00  0.00    +0.000 C 
ATOM     15  C   UNL     1     -10.990  -4.652  -1.337  0.00  0.00    +0.006 C 
ATOM     16  C   UNL     1     -11.705  -3.818  -0.272  0.00  0.00    +0.015 C 
BRANCH  16  17
ATOM     17  C   UNL     1     -11.985  -2.419  -0.825  0.00  0.00    -0.033 C 
ATOM     18  C   UNL     1     -10.684  -1.808  -1.349  0.00  0.00    +0.011 C 
ATOM     19  C   UNL     1     -13.000  -2.514  -1.965  0.00  0.00    +0.011 C 
ATOM     20  C   UNL     1     -12.551  -1.535   0.289  0.00  0.00    +0.011 C 
ENDBRANCH  16  17
ENDBRANCH   9  11
BRANCH   1  23
ATOM     21  C   UNL     1      -2.670  -0.590   1.152  0.00  0.00    +0.248 C 
ATOM     22  O   UNL     1      -3.017   0.561   1.334  0.00  0.00    -0.270 OA
ATOM     23  N   UNL     1      -3.590  -1.536   0.883  0.00  0.00    -0.308 N 
ATOM     24  H   UNL     1      -3.313  -2.455   0.738  0.00  0.00    +0.149 HD
BRANCH  21  27
ATOM     25  C   UNL     1      -0.290   1.363   1.755  0.00  0.00    +0.087 C 
ATOM     26  C   UNL     1      -0.194  -0.117   1.488  0.00  0.00    +0.114 A 
ATOM     27  C   UNL     1      -1.242  -0.950   1.226  0.00  0.00    +0.077 A 
ATOM     28  C   UNL     1      -0.651  -2.282   1.035  0.00  0.00    +0.054 A 
ATOM     29  C   UNL     1       0.672  -2.125   1.197  0.00  0.00    +0.196 A 
ATOM     30  O   UNL     1       0.933  -0.835   1.460  0.00  0.00    -0.467 OA
ENDBRANCH  21  27
ENDBRANCH   1  23
TORSDOF 4
