REMARK  Name = ZINC37140087
REMARK  6 active torsions:
REMARK  status: ('A' for Active; 'I' for Inactive)
REMARK    1  A    between atoms: C_1  and  C_2
REMARK    2  A    between atoms: C_3  and  C_9
REMARK    3  A    between atoms: C_4  and  C_8
REMARK    4  A    between atoms: C_9  and  N_10
REMARK    5  A    between atoms: N_10  and  C_11
REMARK    6  A    between atoms: C_16  and  N_17
REMARK                            x       y       z     vdW  Elec       q    Type
REMARK                         _______ _______ _______ _____ _____    ______ ____
ROOT
ATOM      1  N   UNL     1       1.458  -0.631  -3.192  0.00  0.00    -0.338 N 
ATOM      2  H   UNL     1       2.213  -0.826  -2.615  0.00  0.00    +0.146 HD
ENDROOT
BRANCH   1   3
ATOM      3  C   UNL     1       1.657   0.039  -4.401  0.00  0.00    +0.058 A 
ATOM      4  C   UNL     1       0.598   0.211  -5.284  0.00  0.00    +0.026 A 
ATOM      5  C   UNL     1       0.798   0.875  -6.479  0.00  0.00    +0.017 A 
ATOM      6  C   UNL     1       2.052   1.367  -6.797  0.00  0.00    +0.020 A 
ATOM      7  C   UNL     1       3.108   1.196  -5.920  0.00  0.00    +0.050 A 
ATOM      8  C   UNL     1       2.912   0.539  -4.721  0.00  0.00    +0.148 A 
ATOM      9 BR   UNL     1       2.321   2.274  -8.434  0.00  0.00    -0.050 Br
BRANCH   8  10
ATOM     10  N   UNL     1       4.041   0.363  -3.780  0.00  0.00    +0.058 N 
ATOM     11  O   UNL     1       3.854   0.444  -2.588  0.00  0.00    -0.126 OA
ATOM     12  O   UNL     1       5.151   0.138  -4.203  0.00  0.00    -0.126 OA
ENDBRANCH   8  10
ENDBRANCH   1   3
BRANCH   1  13
ATOM     13  C   UNL     1       0.108  -1.040  -2.794  0.00  0.00    +0.140 C 
BRANCH  13  16
ATOM     14  C   UNL     1      -0.144   0.322   0.011  0.00  0.00    +0.065 C 
ATOM     15  C   UNL     1       0.057  -1.149  -0.247  0.00  0.00    +0.038 A 
ATOM     16  C   UNL     1       0.167  -1.739  -1.460  0.00  0.00    +0.013 A 
ATOM     17  C   UNL     1       0.344  -3.111  -1.257  0.00  0.00    +0.065 A 
ATOM     18  N   UNL     1       0.341  -3.338   0.031  0.00  0.00    -0.179 NA
ATOM     19  N   UNL     1       0.167  -2.114   0.690  0.00  0.00    -0.281 N 
ATOM     20  H   UNL     1       0.129  -1.983   1.651  0.00  0.00    +0.189 HD
ATOM     21  C   UNL     1       0.509  -4.150  -2.337  0.00  0.00    +0.068 C 
ENDBRANCH  13  16
ENDBRANCH   1  13
TORSDOF 4
