REMARK  Name = ZINC33057889
REMARK  9 active torsions:
REMARK  status: ('A' for Active; 'I' for Inactive)
REMARK    1  A    between atoms: C_1  and  C_2
REMARK    2  A    between atoms: C_6  and  N_9
REMARK    3  A    between atoms: C_7  and  C_8
REMARK    4  A    between atoms: C_10  and  C_12
REMARK    5  A    between atoms: C_12  and  C_14
REMARK    6  A    between atoms: C_12  and  N_15
REMARK    7  A    between atoms: C_20  and  C_22
REMARK    8  A    between atoms: N_24  and  C_31
REMARK    9  A    between atoms: C_25  and  N_26
REMARK                            x       y       z     vdW  Elec       q    Type
REMARK                         _______ _______ _______ _____ _____    ______ ____
ROOT
ATOM      1  N   UNL     1       2.568  -2.633  -0.349  0.00  0.00    -0.217 N 
ATOM      2  C   UNL     1       3.045  -3.478   0.589  0.00  0.00    +0.281 A 
ATOM      3  O   UNL     1       2.339  -3.842   1.513  0.00  0.00    -0.265 OA
ATOM      4  C   UNL     1       4.423  -3.951   0.474  0.00  0.00    +0.112 A 
ATOM      5  C   UNL     1       5.221  -3.464  -0.666  0.00  0.00    +0.123 A 
ATOM      6  C   UNL     1       4.575  -2.544  -1.607  0.00  0.00    +0.086 A 
ATOM      7  N   UNL     1       3.342  -2.187  -1.418  0.00  0.00    -0.171 NA
ATOM      8  C   UNL     1       5.341  -2.013  -2.790  0.00  0.00    +0.070 C 
ATOM      9  N   UNL     1       6.409  -4.010  -0.561  0.00  0.00    -0.162 NA
ATOM     10  N   UNL     1       6.443  -4.826   0.576  0.00  0.00    -0.215 N 
ATOM     11  C   UNL     1       5.246  -4.790   1.199  0.00  0.00    +0.154 A 
ENDROOT
BRANCH  10  12
ATOM     12  C   UNL     1       7.551  -5.569   1.002  0.00  0.00    +0.068 A 
ATOM     13  C   UNL     1       7.799  -5.732   2.358  0.00  0.00    +0.028 A 
ATOM     14  C   UNL     1       8.890  -6.469   2.775  0.00  0.00    +0.002 A 
ATOM     15  C   UNL     1       9.742  -7.035   1.843  0.00  0.00    +0.000 A 
ATOM     16  C   UNL     1       9.500  -6.869   0.492  0.00  0.00    +0.002 A 
ATOM     17  C   UNL     1       8.407  -6.138   0.069  0.00  0.00    +0.028 A 
ENDBRANCH  10  12
BRANCH  11  18
ATOM     18  N   UNL     1       4.904  -5.473   2.361  0.00  0.00    -0.307 N 
ATOM     19  C   UNL     1       4.235  -4.945   3.430  0.00  0.00    +0.092 A 
ATOM     20  C   UNL     1       4.088  -5.913   4.356  0.00  0.00    +0.019 A 
ATOM     21  C   UNL     1       4.696  -7.080   3.848  0.00  0.00    +0.019 A 
ATOM     22  C   UNL     1       5.187  -6.784   2.628  0.00  0.00    +0.092 A 
ENDBRANCH  11  18
BRANCH   1  23
ATOM     23  C   UNL     1       1.185  -2.163  -0.236  0.00  0.00    +0.194 C 
ATOM     24  C   UNL     1       0.401  -2.580  -1.482  0.00  0.00    +0.043 C 
BRANCH  23  26
ATOM     25  N   UNL     1       0.002  -0.004   0.002  0.00  0.00    -0.284 N 
ATOM     26  C   UNL     1       1.173  -0.661  -0.114  0.00  0.00    +0.242 C 
ATOM     27  O   UNL     1       2.217  -0.044  -0.121  0.00  0.00    -0.273 OA
ATOM     28  H   UNL     1      -0.939  -0.567   0.083  0.00  0.00    +0.155 HD
BRANCH  25  34
ATOM     29  C   UNL     1      -2.232   4.215  -1.172  0.00  0.00    +0.044 C 
ATOM     30  C   UNL     1      -1.087   3.466  -0.541  0.00  0.00    -0.046 A 
ATOM     31  C   UNL     1      -0.051   4.161   0.056  0.00  0.00    +0.004 A 
ATOM     32  C   UNL     1       1.002   3.477   0.635  0.00  0.00    +0.002 A 
ATOM     33  C   UNL     1       1.022   2.096   0.619  0.00  0.00    +0.023 A 
ATOM     34  C   UNL     1      -0.016   1.395   0.020  0.00  0.00    +0.037 A 
ATOM     35  C   UNL     1      -1.069   2.085  -0.566  0.00  0.00    -0.026 A 
ATOM     36  C   UNL     1      -2.195   1.328  -1.222  0.00  0.00    +0.046 C 
ENDBRANCH  25  34
ENDBRANCH  23  26
ENDBRANCH   1  23
TORSDOF 5
