REMARK  Name = ZINC49946481
REMARK  7 active torsions:
REMARK  status: ('A' for Active; 'I' for Inactive)
REMARK    1  A    between atoms: C_1  and  C_2
REMARK    2  A    between atoms: C_4  and  C_28
REMARK    3  A    between atoms: C_6  and  N_8
REMARK    4  A    between atoms: N_8  and  C_9
REMARK    5  A    between atoms: C_9  and  C_10
REMARK    6  A    between atoms: C_10  and  C_11
REMARK    7  A    between atoms: N_13  and  N_14
REMARK                            x       y       z     vdW  Elec       q    Type
REMARK                         _______ _______ _______ _____ _____    ______ ____
ROOT
ATOM      1  C   UNL     1       0.063  -2.332   6.131  0.00  0.00    +0.233 C 
ATOM      2  O   UNL     1       0.047  -1.120   6.140  0.00  0.00    -0.274 OA
ATOM      3  N   UNL     1       0.078  -3.015   7.293  0.00  0.00    -0.219 N 
ATOM      4  H   UNL     1       0.091  -3.985   7.286  0.00  0.00    +0.176 HD
ENDROOT
BRANCH   3   5
ATOM      5  N   UNL     1       0.075  -2.323   8.511  0.00  0.00    -0.212 N 
ATOM      6  C   UNL     1       1.211  -1.709   8.930  0.00  0.00    +0.223 A 
ATOM      7  N   UNL     1       1.249  -1.055  10.060  0.00  0.00    -0.228 NA
ATOM      8  C   UNL     1       0.172  -0.970  10.837  0.00  0.00    +0.116 A 
ATOM      9  C   UNL     1      -1.047  -1.572  10.488  0.00  0.00    +0.077 A 
ATOM     10  C   UNL     1      -1.056  -2.277   9.240  0.00  0.00    +0.280 A 
ATOM     11  O   UNL     1      -2.069  -2.829   8.848  0.00  0.00    -0.265 OA
ATOM     12  C   UNL     1      -2.143  -1.396  11.440  0.00  0.00    -0.023 A 
ATOM     13  C   UNL     1      -1.879  -0.678  12.552  0.00  0.00    -0.004 A 
ATOM     14  S   UNL     1      -0.179  -0.201  12.398  0.00  0.00    -0.073 S 
ATOM     15  C   UNL     1      -2.824  -0.357  13.670  0.00  0.00    +0.043 C 
ATOM     16  C   UNL     1      -4.254  -0.653  13.196  0.00  0.00    +0.005 C 
ATOM     17  C   UNL     1      -4.278  -2.035  12.539  0.00  0.00    +0.005 C 
ATOM     18  C   UNL     1      -3.530  -1.990  11.206  0.00  0.00    +0.037 C 
ENDBRANCH   3   5
BRANCH   1  19
ATOM     19  C   UNL     1       0.067  -3.076   4.820  0.00  0.00    +0.116 C 
BRANCH  19  20
ATOM     20  C   UNL     1       0.048  -2.073   3.665  0.00  0.00    +0.111 C 
BRANCH  20  21
ATOM     21  N   UNL     1       0.051  -2.796   2.390  0.00  0.00    -0.343 N 
ATOM     22  H   UNL     1       0.064  -3.766   2.383  0.00  0.00    +0.146 HD
BRANCH  21  28
ATOM     23  C   UNL     1      -0.018   1.503   0.010  0.00  0.00    +0.044 C 
ATOM     24  C   UNL     1       0.002  -0.004   0.002  0.00  0.00    -0.048 A 
ATOM     25  C   UNL     1       0.006  -0.688  -1.200  0.00  0.00    +0.006 A 
ATOM     26  C   UNL     1       0.024  -2.071  -1.212  0.00  0.00    -0.048 A 
ATOM     27  C   UNL     1       0.039  -2.773  -0.023  0.00  0.00    +0.026 A 
ATOM     28  C   UNL     1       0.036  -2.089   1.186  0.00  0.00    +0.028 A 
ATOM     29  C   UNL     1       0.023  -0.700   1.195  0.00  0.00    +0.026 A 
ATOM     30  C   UNL     1       0.027  -2.812  -2.524  0.00  0.00    +0.044 C 
ENDBRANCH  21  28
ENDBRANCH  20  21
ENDBRANCH  19  20
ENDBRANCH   1  19
TORSDOF 5
