REMARK  Name = ZINC64775231
REMARK  11 active torsions:
REMARK  status: ('A' for Active; 'I' for Inactive)
REMARK    1  A    between atoms: C_1  and  C_2
REMARK    2  A    between atoms: C_5  and  S_26
REMARK    3  A    between atoms: C_10  and  C_11
REMARK    4  A    between atoms: C_13  and  C_16
REMARK    5  A    between atoms: C_18  and  O_24
REMARK    6  A    between atoms: C_20  and  O_22
REMARK    7  A    between atoms: O_22  and  C_23
REMARK    8  A    between atoms: O_24  and  C_25
REMARK    9  A    between atoms: S_26  and  N_29
REMARK   10  A    between atoms: C_31  and  C_38
REMARK   11  A    between atoms: C_34  and  C_37
REMARK                            x       y       z     vdW  Elec       q    Type
REMARK                         _______ _______ _______ _____ _____    ______ ____
ROOT
ATOM      1  C   UNL     1      -0.018   1.503   0.010  0.00  0.00    +0.048 C 
ATOM      2  C   UNL     1       0.002  -0.004   0.002  0.00  0.00    +0.008 A 
ATOM      3  C   UNL     1       0.009  -0.877  -1.172  0.00  0.00    +0.026 A 
ATOM      4  C   UNL     1      -0.000  -0.655  -2.551  0.00  0.00    +0.040 A 
ATOM      5  C   UNL     1       0.010  -1.719  -3.408  0.00  0.00    +0.106 A 
ATOM      6  C   UNL     1       0.030  -3.017  -2.918  0.00  0.00    +0.032 A 
ATOM      7  C   UNL     1       0.039  -3.257  -1.560  0.00  0.00    +0.049 A 
ATOM      8  C   UNL     1       0.029  -2.191  -0.669  0.00  0.00    +0.136 A 
ATOM      9  O   UNL     1       0.034  -2.112   0.676  0.00  0.00    -0.450 OA
ATOM     10  C   UNL     1       0.024  -0.826   1.082  0.00  0.00    +0.196 A 
ENDROOT
BRANCH  10  11
ATOM     11  C   UNL     1       0.033  -0.381   2.484  0.00  0.00    +0.294 A 
ATOM     12  N   UNL     1       0.059  -1.163   3.542  0.00  0.00    -0.184 NA
ATOM     13  C   UNL     1       0.059  -0.421   4.658  0.00  0.00    +0.203 A 
ATOM     14  N   UNL     1       0.032   0.847   4.326  0.00  0.00    -0.056 NA
ATOM     15  O   UNL     1       0.021   0.896   2.907  0.00  0.00    -0.329 OA
BRANCH  13  16
ATOM     16  C   UNL     1       0.085  -0.949   6.046  0.00  0.00    +0.029 A 
ATOM     17  C   UNL     1       0.118  -2.323   6.269  0.00  0.00    +0.057 A 
ATOM     18  C   UNL     1       0.142  -2.813   7.565  0.00  0.00    +0.124 A 
ATOM     19  C   UNL     1       0.134  -1.935   8.639  0.00  0.00    +0.091 A 
ATOM     20  C   UNL     1       0.101  -0.566   8.420  0.00  0.00    +0.124 A 
ATOM     21  C   UNL     1       0.082  -0.070   7.127  0.00  0.00    +0.057 A 
BRANCH  20  22
ATOM     22  O   UNL     1       0.092   0.290   9.476  0.00  0.00    -0.495 OA
ATOM     23  C   UNL     1       0.119  -0.290  10.782  0.00  0.00    +0.277 C 
ENDBRANCH  20  22
BRANCH  18  24
ATOM     24  O   UNL     1       0.174  -4.154   7.783  0.00  0.00    -0.495 OA
ATOM     25  C   UNL     1       0.198  -4.589   9.144  0.00  0.00    +0.277 C 
ENDBRANCH  18  24
ENDBRANCH  13  16
ENDBRANCH  10  11
BRANCH   5  26
ATOM     26  S   UNL     1      -0.002  -1.441  -5.148  0.00  0.00    +0.061 S 
ATOM     27  O   UNL     1      -0.539  -2.614  -5.743  0.00  0.00    -0.153 OA
ATOM     28  O   UNL     1      -0.571  -0.155  -5.350  0.00  0.00    -0.153 OA
BRANCH  26  29
ATOM     29  N   UNL     1       1.577  -1.342  -5.639  0.00  0.00    -0.176 NA
ATOM     30  C   UNL     1       2.276  -0.049  -5.656  0.00  0.00    +0.112 C 
ATOM     31  C   UNL     1       3.574  -0.181  -4.853  0.00  0.00    +0.002 C 
ATOM     32  C   UNL     1       4.396  -1.347  -5.407  0.00  0.00    +0.009 C 
ATOM     33  C   UNL     1       3.603  -2.648  -5.260  0.00  0.00    +0.002 C 
ATOM     34  C   UNL     1       2.307  -2.545  -6.061  0.00  0.00    +0.112 C 
ATOM     35  C   UNL     1       4.438  -3.818  -5.783  0.00  0.00    +0.009 C 
ATOM     36  C   UNL     1       4.380   1.114  -4.971  0.00  0.00    +0.009 C 
ENDBRANCH  26  29
ENDBRANCH   5  26
TORSDOF 6
