REMARK  Name = ZINC08901306
REMARK  7 active torsions:
REMARK  status: ('A' for Active; 'I' for Inactive)
REMARK    1  A    between atoms: C_3  and  S_10
REMARK    2  A    between atoms: C_6  and  N_7
REMARK    3  A    between atoms: S_10  and  N_13
REMARK    4  A    between atoms: N_13  and  C_14
REMARK    5  A    between atoms: C_14  and  C_15
REMARK    6  A    between atoms: C_15  and  C_17
REMARK    7  A    between atoms: C_15  and  N_50
REMARK                            x       y       z     vdW  Elec       q    Type
REMARK                         _______ _______ _______ _____ _____    ______ ____
ROOT
ATOM      1  C   UNL     1       2.377  -2.576  -2.494  0.00  0.00    +0.095 C 
ENDROOT
BRANCH   1   2
ATOM      2  N   UNL     1       3.586  -2.928  -1.745  0.00  0.00    -0.191 NA
ATOM      3  H   UNL     1       4.093  -3.719  -1.986  0.00  0.00    +0.148 HD
BRANCH   2   4
ATOM      4  S   UNL     1       4.089  -1.974  -0.488  0.00  0.00    +0.058 S 
ATOM      5  O   UNL     1       4.079  -0.635  -0.965  0.00  0.00    -0.153 OA
ATOM      6  O   UNL     1       5.256  -2.584   0.044  0.00  0.00    -0.153 OA
BRANCH   4   9
ATOM      7  C   UNL     1       1.967  -3.121   2.725  0.00  0.00    +0.034 A 
ATOM      8  C   UNL     1       2.936  -3.046   1.742  0.00  0.00    +0.031 A 
ATOM      9  C   UNL     1       2.854  -2.071   0.765  0.00  0.00    +0.105 A 
ATOM     10  C   UNL     1       1.804  -1.171   0.772  0.00  0.00    +0.031 A 
ATOM     11  C   UNL     1       0.836  -1.247   1.755  0.00  0.00    +0.034 A 
ATOM     12  C   UNL     1       0.917  -2.222   2.732  0.00  0.00    +0.126 A 
BRANCH  12  13
ATOM     13  N   UNL     1      -0.120  -2.304   3.785  0.00  0.00    +0.056 N 
ATOM     14  O   UNL     1      -0.049  -3.163   4.645  0.00  0.00    -0.126 OA
ATOM     15  O   UNL     1      -1.046  -1.511   3.791  0.00  0.00    -0.126 OA
ENDBRANCH  12  13
ENDBRANCH   4   9
ENDBRANCH   2   4
ENDBRANCH   1   2
BRANCH   1  16
ATOM     16  C   UNL     1       2.342  -3.364  -3.805  0.00  0.00    -0.021 C 
BRANCH  16  23
ATOM     17  C   UNL     1      -0.073  -3.183  -3.606  0.00  0.00    -0.078 C 
ATOM     18  C   UNL     1      -1.389  -3.167  -4.335  0.00  0.00    -0.019 C 
ATOM     19  C   UNL     1      -1.818  -4.625  -4.604  0.00  0.00    -0.002 C 
ATOM     20  C   UNL     1      -1.107  -5.209  -5.735  0.00  0.00    -0.002 C 
ATOM     21  C   UNL     1       0.418  -5.257  -5.503  0.00  0.00    -0.019 C 
ATOM     22  C   UNL     1       0.982  -3.884  -5.751  0.00  0.00    -0.078 C 
ATOM     23  N   UNL     1       1.105  -3.024  -4.525  0.00  0.00    +0.385 N 
ATOM     24  H   UNL     1       1.153  -2.042  -4.822  0.00  0.00    -0.081 HD
ENDBRANCH  16  23
BRANCH  16  25
ATOM     25  C   UNL     1       3.512  -2.959  -4.665  0.00  0.00    -0.053 A 
ATOM     26  C   UNL     1       4.648  -3.744  -4.718  0.00  0.00    +0.009 A 
ATOM     27  C   UNL     1       5.680  -3.354  -5.506  0.00  0.00    +0.045 A 
ATOM     28  S   UNL     1       5.062  -1.828  -6.196  0.00  0.00    -0.105 S 
ATOM     29  C   UNL     1       3.467  -1.817  -5.393  0.00  0.00    +0.047 A 
ENDBRANCH  16  25
ENDBRANCH   1  16
TORSDOF 7
