REMARK  Name = ZINC58850054
REMARK  6 active torsions:
REMARK  status: ('A' for Active; 'I' for Inactive)
REMARK    1  A    between atoms: C_1  and  C_2
REMARK    2  A    between atoms: C_5  and  C_38
REMARK    3  A    between atoms: C_6  and  C_8
REMARK    4  A    between atoms: C_19  and  S_24
REMARK    5  A    between atoms: S_24  and  N_27
REMARK    6  A    between atoms: N_27  and  C_28
REMARK                            x       y       z     vdW  Elec       q    Type
REMARK                         _______ _______ _______ _____ _____    ______ ____
ROOT
ATOM      1  C   UNL     1      -0.037  -2.304   2.514  0.00  0.00    +0.105 C 
ATOM      2  C   UNL     1      -1.414  -2.846   2.754  0.00  0.00    +0.029 C 
ATOM      3  C   UNL     1      -2.511  -1.791   2.502  0.00  0.00    +0.033 C 
ATOM      4  C   UNL     1      -3.643  -2.223   3.409  0.00  0.00    -0.030 C 
ATOM      5  C   UNL     1      -3.216  -3.049   4.329  0.00  0.00    -0.023 C 
ATOM      6  C   UNL     1      -1.729  -3.264   4.188  0.00  0.00    +0.049 C 
ATOM      7  C   UNL     1      -1.037  -2.414   5.216  0.00  0.00    -0.018 A 
ATOM      8  C   UNL     1      -1.471  -2.490   6.532  0.00  0.00    +0.034 A 
ATOM      9  C   UNL     1      -0.875  -1.721   7.511  0.00  0.00    +0.109 A 
ATOM     10  C   UNL     1       0.163  -0.866   7.186  0.00  0.00    +0.030 A 
ATOM     11  C   UNL     1       0.603  -0.787   5.881  0.00  0.00    +0.025 A 
ATOM     12  C   UNL     1       0.006  -1.566   4.894  0.00  0.00    +0.031 A 
ATOM     13  N   UNL     1       0.494  -1.509   3.602  0.00  0.00    -0.336 N 
ATOM     14  H   UNL     1       1.210  -0.883   3.414  0.00  0.00    +0.147 HD
ENDROOT
BRANCH   1  20
ATOM     15  C   UNL     1      -0.143   2.212   0.359  0.00  0.00    +0.044 C 
ATOM     16  C   UNL     1      -0.121   0.710   0.241  0.00  0.00    -0.050 A 
ATOM     17  C   UNL     1      -0.132   0.114  -1.006  0.00  0.00    +0.003 A 
ATOM     18  C   UNL     1      -0.112  -1.264  -1.115  0.00  0.00    +0.004 A 
ATOM     19  C   UNL     1      -0.081  -2.046   0.025  0.00  0.00    -0.045 A 
ATOM     20  C   UNL     1      -0.070  -1.451   1.272  0.00  0.00    -0.024 A 
ATOM     21  C   UNL     1      -0.085  -0.072   1.380  0.00  0.00    +0.009 A 
ATOM     22  C   UNL     1      -0.061  -3.548  -0.093  0.00  0.00    +0.044 C 
ENDBRANCH   1  20
BRANCH   9  23
ATOM     23  S   UNL     1      -1.436  -1.829   9.178  0.00  0.00    +0.072 S 
ATOM     24  O   UNL     1      -1.079  -0.606   9.807  0.00  0.00    -0.150 OA
ATOM     25  O   UNL     1      -2.778  -2.295   9.125  0.00  0.00    -0.150 OA
BRANCH  23  26
ATOM     26  N   UNL     1      -0.551  -3.017   9.917  0.00  0.00    -0.216 N 
ATOM     27  H   UNL     1      -0.997  -3.796  10.286  0.00  0.00    +0.174 HD
BRANCH  26  28
ATOM     28  C   UNL     1       0.834  -2.900  10.008  0.00  0.00    +0.056 A 
ATOM     29  C   UNL     1       1.416  -1.664  10.198  0.00  0.00    +0.025 A 
ATOM     30  C   UNL     1       2.799  -1.536  10.291  0.00  0.00    +0.002 A 
ATOM     31  C   UNL     1       3.613  -2.623  10.197  0.00  0.00    +0.008 A 
ATOM     32  C   UNL     1       3.060  -3.900  10.004  0.00  0.00    -0.016 A 
ATOM     33  C   UNL     1       1.654  -4.045   9.913  0.00  0.00    +0.004 A 
ATOM     34  C   UNL     1       1.102  -5.322   9.725  0.00  0.00    +0.010 A 
ATOM     35  C   UNL     1       1.924  -6.404   9.637  0.00  0.00    +0.001 A 
ATOM     36  C   UNL     1       3.307  -6.264   9.732  0.00  0.00    +0.001 A 
ATOM     37  C   UNL     1       3.877  -5.040   9.903  0.00  0.00    +0.008 A 
ENDBRANCH  26  28
ENDBRANCH  23  26
ENDBRANCH   9  23
TORSDOF 4
