REMARK  Name = ZINC06301824
REMARK  10 active torsions:
REMARK  status: ('A' for Active; 'I' for Inactive)
REMARK    1  A    between atoms: C_1  and  C_2
REMARK    2  A    between atoms: C_4  and  C_40
REMARK    3  A    between atoms: C_7  and  C_14
REMARK    4  A    between atoms: C_14  and  C_16
REMARK    5  A    between atoms: C_14  and  N_74
REMARK    6  A    between atoms: N_20  and  C_21
REMARK    7  A    between atoms: C_27  and  C_28
REMARK    8  A    between atoms: C_27  and  N_74
REMARK    9  A    between atoms: C_33  and  C_34
REMARK   10  A    between atoms: C_33  and  N_74
REMARK                            x       y       z     vdW  Elec       q    Type
REMARK                         _______ _______ _______ _____ _____    ______ ____
ROOT
ATOM      1  C   UNL     1       0.055   4.110   1.863  0.00  0.00    +0.039 C 
ENDROOT
BRANCH   1   8
ATOM      2  C   UNL     1       1.898   0.221  -4.852  0.00  0.00    +0.044 C 
ATOM      3  C   UNL     1       1.694   1.122  -3.661  0.00  0.00    -0.048 A 
ATOM      4  C   UNL     1       2.365   2.336  -3.596  0.00  0.00    +0.007 A 
ATOM      5  C   UNL     1       2.194   3.167  -2.525  0.00  0.00    -0.041 A 
ATOM      6  C   UNL     1       1.337   2.792  -1.486  0.00  0.00    +0.002 A 
ATOM      7  C   UNL     1       1.131   3.658  -0.324  0.00  0.00    +0.018 A 
ATOM      8  C   UNL     1       0.289   3.242   0.654  0.00  0.00    +0.011 A 
ATOM      9  C   UNL     1      -0.365   1.996   0.545  0.00  0.00    +0.251 A 
ATOM     10  O   UNL     1      -1.115   1.639   1.438  0.00  0.00    -0.268 OA
ATOM     11  N   UNL     1      -0.187   1.196  -0.520  0.00  0.00    -0.322 N 
ATOM     12  H   UNL     1      -0.656   0.348  -0.565  0.00  0.00    +0.169 HD
ATOM     13  C   UNL     1       0.656   1.562  -1.548  0.00  0.00    +0.050 A 
ATOM     14  C   UNL     1       0.846   0.731  -2.648  0.00  0.00    +0.029 A 
ATOM     15  C   UNL     1       2.927   4.483  -2.465  0.00  0.00    +0.044 C 
ENDBRANCH   1   8
BRANCH   1  16
ATOM     16  C   UNL     1       0.626   3.435   3.084  0.00  0.00    +0.143 A 
ATOM     17  N   UNL     1       0.818   2.149   3.249  0.00  0.00    -0.115 NA
ATOM     18  N   UNL     1       1.322   1.969   4.421  0.00  0.00    -0.023 NA
ATOM     19  N   UNL     1       1.456   3.107   5.008  0.00  0.00    -0.044 NA
ATOM     20  N   UNL     1       1.043   4.036   4.213  0.00  0.00    -0.227 N 
BRANCH  20  21
ATOM     21  C   UNL     1       1.028   5.475   4.490  0.00  0.00    +0.111 C 
ATOM     22  C   UNL     1       2.455   5.958   4.758  0.00  0.00    +0.027 C 
ATOM     23  C   UNL     1       2.439   7.460   5.047  0.00  0.00    +0.002 C 
ATOM     24  C   UNL     1       1.569   7.734   6.276  0.00  0.00    +0.000 C 
ATOM     25  C   UNL     1       0.142   7.251   6.007  0.00  0.00    +0.002 C 
ATOM     26  C   UNL     1       0.158   5.749   5.718  0.00  0.00    +0.027 C 
ENDBRANCH  20  21
ENDBRANCH   1  16
BRANCH   1  27
ATOM     27  N   UNL     1      -1.401   4.289   2.048  0.00  0.00    +0.394 N 
ATOM     28  H   UNL     1      -1.849   3.366   2.082  0.00  0.00    -0.080 HD
BRANCH  27  29
ATOM     29  C   UNL     1      -1.963   5.055   0.916  0.00  0.00    -0.034 C 
BRANCH  29  30
ATOM     30  C   UNL     1      -2.451   4.080  -0.125  0.00  0.00    -0.027 A 
ATOM     31  C   UNL     1      -3.579   3.329  -0.129  0.00  0.00    +0.009 A 
ATOM     32  C   UNL     1      -3.827   2.498  -1.205  0.00  0.00    +0.008 A 
ATOM     33  C   UNL     1      -2.929   2.450  -2.219  0.00  0.00    +0.045 A 
ATOM     34  S   UNL     1      -1.689   3.610  -1.670  0.00  0.00    -0.103 S 
ENDBRANCH  29  30
ENDBRANCH  27  29
BRANCH  27  35
ATOM     35  C   UNL     1      -1.665   4.998   3.318  0.00  0.00    -0.045 C 
BRANCH  35  36
ATOM     36  C   UNL     1      -2.970   4.463   3.911  0.00  0.00    +0.102 C 
ATOM     37  C   UNL     1      -3.332   5.235   5.199  0.00  0.00    +0.032 C 
ATOM     38  C   UNL     1      -3.933   4.157   6.127  0.00  0.00    +0.030 C 
ATOM     39  C   UNL     1      -3.863   2.860   5.290  0.00  0.00    +0.160 C 
ATOM     40  O   UNL     1      -2.804   3.093   4.337  0.00  0.00    -0.378 OA
ENDBRANCH  35  36
ENDBRANCH  27  35
ENDBRANCH   1  27
TORSDOF 8
