REMARK  Name = ZINC12155828
REMARK  8 active torsions:
REMARK  status: ('A' for Active; 'I' for Inactive)
REMARK    1  A    between atoms: C_1  and  S_2
REMARK    2  A    between atoms: S_2  and  C_3
REMARK    3  A    between atoms: C_8  and  C_19
REMARK    4  A    between atoms: C_15  and  O_18
REMARK    5  A    between atoms: C_19  and  N_20
REMARK    6  A    between atoms: N_20  and  C_21
REMARK    7  A    between atoms: C_21  and  C_22
REMARK    8  A    between atoms: C_27  and  C_29
REMARK                            x       y       z     vdW  Elec       q    Type
REMARK                         _______ _______ _______ _____ _____    ______ ____
ROOT
ATOM      1  C   UNL     1       3.079   1.406  -1.992  0.00  0.00    +0.010 A 
ATOM      2  C   UNL     1       4.107   0.579  -1.521  0.00  0.00    +0.015 A 
ATOM      3  C   UNL     1       5.243   1.112  -0.997  0.00  0.00    +0.011 A 
ATOM      4  C   UNL     1       5.389   2.506  -0.915  0.00  0.00    -0.001 A 
ATOM      5  C   UNL     1       6.554   3.085  -0.372  0.00  0.00    +0.018 A 
ATOM      6  C   UNL     1       6.636   4.445  -0.319  0.00  0.00    +0.009 A 
ATOM      7  C   UNL     1       5.578   5.228  -0.799  0.00  0.00    +0.104 A 
ATOM      8  C   UNL     1       4.354   3.352  -1.384  0.00  0.00    +0.049 A 
ATOM      9  C   UNL     1       3.193   2.779  -1.925  0.00  0.00    +0.041 A 
ATOM     10  N   UNL     1       5.676   6.610  -0.739  0.00  0.00    -0.316 N 
ATOM     11  C   UNL     1       6.264   7.150  -1.972  0.00  0.00    +0.109 C 
ATOM     12  C   UNL     1       6.492   8.655  -1.814  0.00  0.00    +0.050 C 
ATOM     13  C   UNL     1       5.154   9.341  -1.521  0.00  0.00    +0.118 C 
ATOM     14  C   UNL     1       4.540   8.727  -0.260  0.00  0.00    +0.050 C 
ATOM     15  C   UNL     1       4.369   7.220  -0.463  0.00  0.00    +0.109 C 
ATOM     16  N   UNL     1       4.434   4.727  -1.331  0.00  0.00    -0.343 N 
ATOM     17  H   UNL     1       3.679   5.333  -1.672  0.00  0.00    +0.167 HD
ENDROOT
BRANCH   1  19
ATOM     18  C   UNL     1       1.921  -1.101  -2.553  0.00  0.00    +0.090 C 
ATOM     19  S   UNL     1       1.623   0.684  -2.672  0.00  0.00    -0.129 S 
ENDBRANCH   1  19
BRANCH  13  20
ATOM     20  O   UNL     1       5.369  10.738  -1.316  0.00  0.00    -0.392 OA
ATOM     21  H   UNL     1       5.757  11.192  -2.077  0.00  0.00    +0.210 HD
ENDBRANCH  13  20
BRANCH   6  22
ATOM     22  C   UNL     1       7.864   5.104   0.254  0.00  0.00    +0.147 C 
BRANCH  22  23
ATOM     23  N   UNL     1       7.607   5.488   1.645  0.00  0.00    -0.286 N 
ATOM     24  C   UNL     1       7.181   6.734   1.933  0.00  0.00    +0.247 C 
ATOM     25  O   UNL     1       6.945   7.518   1.034  0.00  0.00    -0.270 OA
BRANCH  24  26
ATOM     26  C   UNL     1       7.002   7.147   3.341  0.00  0.00    +0.038 A 
ATOM     27  C   UNL     1       7.794   6.583   4.343  0.00  0.00    +0.013 A 
ATOM     28  C   UNL     1       7.625   6.976   5.654  0.00  0.00    +0.002 A 
ATOM     29  C   UNL     1       6.667   7.919   5.980  0.00  0.00    +0.020 A 
ATOM     30  C   UNL     1       5.874   8.479   4.992  0.00  0.00    +0.042 A 
ATOM     31  C   UNL     1       6.036   8.097   3.675  0.00  0.00    +0.033 A 
ATOM     32 CL   UNL     1       4.673   9.661   5.410  0.00  0.00    -0.084 Cl
ENDBRANCH  24  26
BRANCH  23  33
ATOM     33  C   UNL     1       7.814   4.517   2.723  0.00  0.00    +0.182 C 
BRANCH  33  34
ATOM     34  C   UNL     1       9.249   4.059   2.717  0.00  0.00    +0.122 A 
ATOM     35  C   UNL     1      10.243   4.577   3.462  0.00  0.00    +0.046 A 
ATOM     36  C   UNL     1      11.414   3.851   3.143  0.00  0.00    +0.041 A 
ATOM     37  C   UNL     1      11.066   2.934   2.223  0.00  0.00    +0.195 A 
ATOM     38  O   UNL     1       9.752   3.060   1.974  0.00  0.00    -0.466 OA
ENDBRANCH  33  34
ENDBRANCH  23  33
ENDBRANCH  22  23
ENDBRANCH   6  22
TORSDOF 7
