REMARK  Name = ZINC08927647
REMARK  5 active torsions:
REMARK  status: ('A' for Active; 'I' for Inactive)
REMARK    1  A    between atoms: C_1  and  C_2
REMARK    2  A    between atoms: C_2  and  N_48
REMARK    3  A    between atoms: C_10  and  O_27
REMARK    4  A    between atoms: C_12  and  C_15
REMARK    5  A    between atoms: C_18  and  C_20
REMARK                            x       y       z     vdW  Elec       q    Type
REMARK                         _______ _______ _______ _____ _____    ______ ____
ROOT
ATOM      1  C   UNL     1       2.373   0.257   0.427  0.00  0.00    -0.074 C 
ATOM      2  C   UNL     1       2.465   1.722  -0.009  0.00  0.00    +0.018 C 
ATOM      3  C   UNL     1       1.060   2.312   0.004  0.00  0.00    -0.027 A 
ATOM      4  C   UNL     1      -0.018   1.492   0.010  0.00  0.00    -0.021 A 
ATOM      5  S   UNL     1      -1.418   2.579   0.022  0.00  0.00    -0.080 S 
ATOM      6  C   UNL     1      -0.591   4.077   0.029  0.00  0.00    +0.080 A 
ATOM      7  C   UNL     1       0.768   3.733   0.011  0.00  0.00    +0.067 A 
ATOM      8  C   UNL     1       1.750   4.848  -0.006  0.00  0.00    +0.220 C 
ATOM      9  N   UNL     1       1.306   6.051   0.240  0.00  0.00    -0.220 NA
ATOM     10  C   UNL     1      -0.070   6.371   0.595  0.00  0.00    +0.260 C 
ATOM     11  N   UNL     1      -1.017   5.382   0.046  0.00  0.00    -0.311 N 
ATOM     12  C   UNL     1       0.002  -0.004   0.002  0.00  0.00    -0.035 C 
ATOM     13  H   UNL     1      -1.892   5.640  -0.285  0.00  0.00    +0.149 HD
ATOM     14  N   UNL     1       1.363  -0.438  -0.398  0.00  0.00    +0.383 N 
ATOM     15  H   UNL     1       1.514  -0.196  -1.385  0.00  0.00    -0.081 HD
ENDROOT
BRANCH  10  16
ATOM     16  C   UNL     1      -0.199   6.391   2.097  0.00  0.00    +0.148 A 
ATOM     17  C   UNL     1       0.778   6.718   2.965  0.00  0.00    +0.049 A 
ATOM     18  C   UNL     1       0.234   6.607   4.260  0.00  0.00    +0.050 A 
ATOM     19  C   UNL     1      -1.059   6.213   4.109  0.00  0.00    +0.135 A 
ATOM     20  O   UNL     1      -1.309   6.091   2.792  0.00  0.00    -0.456 OA
BRANCH  19  21
ATOM     21  C   UNL     1      -2.023   5.967   5.202  0.00  0.00    +0.017 A 
ATOM     22  C   UNL     1      -1.633   6.131   6.532  0.00  0.00    +0.012 A 
ATOM     23  C   UNL     1      -2.539   5.906   7.547  0.00  0.00    +0.016 A 
ATOM     24  C   UNL     1      -3.831   5.506   7.249  0.00  0.00    +0.018 A 
ATOM     25  C   UNL     1      -4.223   5.337   5.932  0.00  0.00    +0.016 A 
ATOM     26  C   UNL     1      -3.327   5.564   4.908  0.00  0.00    +0.012 A 
ATOM     27 BR   UNL     1      -5.066   5.192   8.646  0.00  0.00    -0.050 Br
ENDBRANCH  19  21
ENDBRANCH  10  16
BRANCH  14  29
ATOM     28  C   UNL     1       0.592  -2.597  -1.256  0.00  0.00    -0.017 C 
ATOM     29  C   UNL     1       1.496  -1.901  -0.236  0.00  0.00    -0.082 C 
ENDBRANCH  14  29
BRANCH   8  30
ATOM     30  O   UNL     1       3.058   4.625  -0.269  0.00  0.00    -0.492 OA
ATOM     31  H   UNL     1       3.604   5.423  -0.254  0.00  0.00    +0.294 HD
ENDBRANCH   8  30
TORSDOF 4
