REMARK  Name = ZINC13751001
REMARK  11 active torsions:
REMARK  status: ('A' for Active; 'I' for Inactive)
REMARK    1  A    between atoms: C_1  and  C_2
REMARK    2  A    between atoms: C_2  and  C_3
REMARK    3  A    between atoms: C_3  and  C_4
REMARK    4  A    between atoms: C_4  and  C_5
REMARK    5  A    between atoms: C_5  and  O_6
REMARK    6  A    between atoms: O_6  and  C_7
REMARK    7  A    between atoms: C_10  and  N_13
REMARK    8  A    between atoms: C_18  and  C_32
REMARK    9  A    between atoms: N_20  and  C_26
REMARK   10  A    between atoms: C_35  and  N_39
REMARK   11  A    between atoms: C_37  and  O_38
REMARK                            x       y       z     vdW  Elec       q    Type
REMARK                         _______ _______ _______ _____ _____    ______ ____
ROOT
ATOM      1  N   UNL     1       3.933  -6.404  -6.837  0.00  0.00    -0.208 N 
ATOM      2  C   UNL     1       4.020  -7.765  -6.987  0.00  0.00    +0.235 C 
ATOM      3  O   UNL     1       3.419  -8.617  -6.369  0.00  0.00    -0.274 OA
ATOM      4  C   UNL     1       4.984  -7.960  -8.043  0.00  0.00    +0.146 C 
ATOM      5  C   UNL     1       5.381  -8.974  -9.033  0.00  0.00    +0.160 C 
ATOM      6  N   UNL     1       6.058  -8.146 -10.083  0.00  0.00    -0.244 N 
ATOM      7  O   UNL     1       5.939  -6.761  -9.689  0.00  0.00    -0.257 OA
ATOM      8  C   UNL     1       4.689  -6.719  -8.979  0.00  0.00    +0.249 C 
ATOM      9  C   UNL     1       4.512  -5.721  -7.867  0.00  0.00    +0.259 C 
ATOM     10  O   UNL     1       4.824  -4.550  -7.883  0.00  0.00    -0.272 OA
ENDROOT
BRANCH   1  14
ATOM     11  C   UNL     1       2.078  -4.553  -3.590  0.00  0.00    +0.121 A 
ATOM     12  C   UNL     1       2.645  -3.784  -4.596  0.00  0.00    +0.047 A 
ATOM     13  C   UNL     1       3.259  -4.396  -5.671  0.00  0.00    +0.027 A 
ATOM     14  C   UNL     1       3.309  -5.781  -5.744  0.00  0.00    +0.044 A 
ATOM     15  C   UNL     1       2.742  -6.551  -4.737  0.00  0.00    +0.027 A 
ATOM     16  C   UNL     1       2.133  -5.937  -3.661  0.00  0.00    +0.047 A 
BRANCH  11  17
ATOM     17  O   UNL     1       1.474  -3.950  -2.532  0.00  0.00    -0.492 OA
BRANCH  17  18
ATOM     18  C   UNL     1       1.455  -2.521  -2.524  0.00  0.00    +0.229 C 
BRANCH  18  19
ATOM     19  C   UNL     1       0.739  -2.027  -1.265  0.00  0.00    +0.041 C 
BRANCH  19  20
ATOM     20  C   UNL     1       0.718  -0.497  -1.257  0.00  0.00    +0.003 C 
BRANCH  20  22
ATOM     21  C   UNL     1      -0.019   1.526   0.010  0.00  0.00    +0.004 C 
ATOM     22  C   UNL     1       0.002  -0.004   0.002  0.00  0.00    -0.003 C 
ENDBRANCH  20  22
ENDBRANCH  19  20
ENDBRANCH  18  19
ENDBRANCH  17  18
ENDBRANCH  11  17
ENDBRANCH   1  14
BRANCH   6  23
ATOM     23  C   UNL     1       6.689  -8.627 -11.232  0.00  0.00    +0.065 A 
ATOM     24  C   UNL     1       6.724  -9.992 -11.489  0.00  0.00    +0.028 A 
ATOM     25  C   UNL     1       7.349 -10.463 -12.627  0.00  0.00    +0.002 A 
ATOM     26  C   UNL     1       7.940  -9.578 -13.510  0.00  0.00    +0.000 A 
ATOM     27  C   UNL     1       7.907  -8.219 -13.258  0.00  0.00    +0.002 A 
ATOM     28  C   UNL     1       7.279  -7.740 -12.125  0.00  0.00    +0.028 A 
ENDBRANCH   6  23
BRANCH   5  29
ATOM     29  C   UNL     1       6.339  -9.967  -8.428  0.00  0.00    +0.020 A 
ATOM     30  C   UNL     1       7.702  -9.788  -8.567  0.00  0.00    +0.011 A 
ATOM     31  C   UNL     1       8.581 -10.699  -8.012  0.00  0.00    +0.033 A 
ATOM     32  C   UNL     1       8.099 -11.792  -7.316  0.00  0.00    +0.130 A 
ATOM     33  C   UNL     1       6.738 -11.977  -7.174  0.00  0.00    +0.078 A 
ATOM     34  C   UNL     1       5.853 -11.060  -7.725  0.00  0.00    +0.124 A 
BRANCH  32  35
ATOM     35  N   UNL     1       9.043 -12.766  -6.723  0.00  0.00    +0.057 N 
ATOM     36  O   UNL     1      10.235 -12.605  -6.848  0.00  0.00    -0.126 OA
ATOM     37  O   UNL     1       8.622 -13.722  -6.115  0.00  0.00    -0.126 OA
ENDBRANCH  32  35
BRANCH  34  38
ATOM     38  O   UNL     1       4.513 -11.237  -7.582  0.00  0.00    -0.506 OA
ATOM     39  H   UNL     1       4.108 -11.760  -8.287  0.00  0.00    +0.292 HD
ENDBRANCH  34  38
ENDBRANCH   5  29
TORSDOF 10
