REMARK  Name = ZINC12618897
REMARK  9 active torsions:
REMARK  status: ('A' for Active; 'I' for Inactive)
REMARK    1  A    between atoms: C_1  and  C_2
REMARK    2  A    between atoms: N_4  and  C_5
REMARK    3  A    between atoms: C_8  and  C_11
REMARK    4  A    between atoms: C_11  and  O_13
REMARK    5  A    between atoms: O_13  and  C_14
REMARK    6  A    between atoms: C_14  and  C_16
REMARK    7  A    between atoms: C_14  and  C_22
REMARK    8  A    between atoms: N_24  and  C_25
REMARK    9  A    between atoms: C_28  and  N_32
REMARK                            x       y       z     vdW  Elec       q    Type
REMARK                         _______ _______ _______ _____ _____    ______ ____
ROOT
ATOM      1  C   UNL     1      -6.341   5.102  -0.394  0.00  0.00    +0.292 C 
ENDROOT
BRANCH   1   2
ATOM      2  C   UNL     1      -6.802   5.192  -1.826  0.00  0.00    +0.002 A 
ATOM      3  C   UNL     1      -5.894   5.481  -2.828  0.00  0.00    +0.008 A 
ATOM      4  C   UNL     1      -6.316   5.559  -4.142  0.00  0.00    +0.000 A 
ATOM      5  C   UNL     1      -7.647   5.356  -4.453  0.00  0.00    +0.000 A 
ATOM      6  C   UNL     1      -8.556   5.073  -3.451  0.00  0.00    +0.000 A 
ATOM      7  C   UNL     1      -8.133   4.990  -2.137  0.00  0.00    +0.008 A 
ENDBRANCH   1   2
BRANCH   1   8
ATOM      8  C   UNL     1      -6.319   6.481   0.214  0.00  0.00    +0.263 C 
ATOM      9  O   UNL     1      -5.267   6.975   0.559  0.00  0.00    -0.271 OA
ATOM     10  N   UNL     1      -7.469   7.165   0.374  0.00  0.00    -0.281 N 
ATOM     11  H   UNL     1      -8.318   6.740   0.173  0.00  0.00    +0.155 HD
BRANCH  10  12
ATOM     12  C   UNL     1      -7.439   8.488   0.829  0.00  0.00    +0.048 A 
ATOM     13  C   UNL     1      -6.305   9.265   0.635  0.00  0.00    +0.026 A 
ATOM     14  C   UNL     1      -6.278  10.571   1.085  0.00  0.00    +0.034 A 
ATOM     15  C   UNL     1      -7.379  11.104   1.730  0.00  0.00    +0.127 A 
ATOM     16  C   UNL     1      -8.511  10.334   1.925  0.00  0.00    +0.049 A 
ATOM     17  C   UNL     1      -8.546   9.029   1.472  0.00  0.00    +0.041 A 
ATOM     18 BR   UNL     1     -10.097   7.978   1.732  0.00  0.00    -0.048 Br
BRANCH  15  19
ATOM     19  N   UNL     1      -7.347  12.504   2.211  0.00  0.00    +0.056 N 
ATOM     20  O   UNL     1      -6.351  13.184   2.039  0.00  0.00    -0.126 OA
ATOM     21  O   UNL     1      -8.316  12.975   2.779  0.00  0.00    -0.126 OA
ENDBRANCH  15  19
ENDBRANCH  10  12
ENDBRANCH   1   8
BRANCH   1  22
ATOM     22  O   UNL     1      -5.006   4.533  -0.350  0.00  0.00    -0.444 OA
BRANCH  22  23
ATOM     23  C   UNL     1      -4.915   3.192  -0.248  0.00  0.00    +0.340 C 
ATOM     24  O   UNL     1      -5.925   2.518  -0.198  0.00  0.00    -0.245 OA
BRANCH  23  28
ATOM     25  C   UNL     1      -1.104   1.326  -0.106  0.00  0.00    +0.033 A 
ATOM     26  C   UNL     1      -1.196   2.711  -0.205  0.00  0.00    +0.024 A 
ATOM     27  C   UNL     1      -2.430   3.319  -0.257  0.00  0.00    +0.017 A 
ATOM     28  C   UNL     1      -3.592   2.544  -0.198  0.00  0.00    +0.059 A 
ATOM     29  C   UNL     1      -3.496   1.153  -0.093  0.00  0.00    +0.017 A 
ATOM     30  C   UNL     1      -2.259   0.552  -0.047  0.00  0.00    +0.024 A 
BRANCH  25  34
ATOM     31  C   UNL     1       2.497   0.618   0.706  0.00  0.00    +0.109 C 
ATOM     32  C   UNL     1       1.173   1.323   0.568  0.00  0.00    +0.214 C 
ATOM     33  O   UNL     1       1.030   2.439   1.020  0.00  0.00    -0.276 OA
ATOM     34  N   UNL     1       0.147   0.713  -0.059  0.00  0.00    -0.286 N 
ATOM     35  H   UNL     1       0.280  -0.150  -0.481  0.00  0.00    +0.155 HD
ENDBRANCH  25  34
ENDBRANCH  23  28
ENDBRANCH  22  23
ENDBRANCH   1  22
TORSDOF 8
