REMARK  Name = ZINC60356594
REMARK  14 active torsions:
REMARK  status: ('A' for Active; 'I' for Inactive)
REMARK    1  A    between atoms: C_1  and  C_2
REMARK    2  A    between atoms: C_2  and  C_3
REMARK    3  A    between atoms: C_3  and  C_4
REMARK    4  A    between atoms: C_4  and  N_5
REMARK    5  A    between atoms: C_6  and  N_35
REMARK    6  A    between atoms: C_7  and  N_14
REMARK    7  A    between atoms: N_14  and  C_15
REMARK    8  A    between atoms: C_15  and  C_16
REMARK    9  A    between atoms: C_17  and  C_19
REMARK   10  A    between atoms: C_19  and  N_20
REMARK   11  A    between atoms: N_20  and  C_21
REMARK   12  A    between atoms: N_20  and  C_22
REMARK   13  A    between atoms: C_22  and  C_23
REMARK   14  A    between atoms: C_28  and  C_29
REMARK                            x       y       z     vdW  Elec       q    Type
REMARK                         _______ _______ _______ _____ _____    ______ ____
ROOT
ATOM      1  N   UNL     1      -4.298  -3.069   2.110  0.00  0.00    -0.266 N 
ATOM      2  C   UNL     1      -3.869  -2.792   3.360  0.00  0.00    +0.203 C 
ATOM      3  O   UNL     1      -2.736  -2.398   3.539  0.00  0.00    -0.277 OA
ENDROOT
BRANCH   1   6
ATOM      4  N   UNL     1      -2.981  -1.591  -0.985  0.00  0.00    -0.280 N 
ATOM      5  C   UNL     1      -3.813  -1.831   0.083  0.00  0.00    +0.127 A 
ATOM      6  C   UNL     1      -3.466  -2.799   1.003  0.00  0.00    +0.140 A 
ATOM      7  C   UNL     1      -2.266  -3.512   0.819  0.00  0.00    +0.277 A 
ATOM      8  O   UNL     1      -1.935  -4.373   1.616  0.00  0.00    -0.266 OA
ATOM      9  N   UNL     1      -1.487  -3.237  -0.245  0.00  0.00    -0.273 N 
ATOM     10  H   UNL     1      -0.660  -3.729  -0.374  0.00  0.00    +0.173 HD
ATOM     11  C   UNL     1      -1.845  -2.294  -1.135  0.00  0.00    +0.331 A 
ATOM     12  O   UNL     1      -1.125  -2.070  -2.089  0.00  0.00    -0.246 OA
BRANCH   5  13
ATOM     13  N   UNL     1      -4.977  -1.116   0.233  0.00  0.00    -0.343 N 
ATOM     14  H   UNL     1      -5.184  -0.393  -0.379  0.00  0.00    +0.144 HD
ATOM     15  H   UNL     1      -5.591  -1.334   0.952  0.00  0.00    +0.144 HD
ENDBRANCH   5  13
BRANCH   4  16
ATOM     16  C   UNL     1      -3.338  -0.566  -1.970  0.00  0.00    +0.128 C 
BRANCH  16  17
ATOM     17  C   UNL     1      -4.176  -1.198  -3.083  0.00  0.00    +0.021 C 
BRANCH  17  19
ATOM     18  C   UNL     1      -5.387  -0.760  -5.224  0.00  0.00    +0.004 C 
ATOM     19  C   UNL     1      -4.549  -0.128  -4.111  0.00  0.00    -0.002 C 
ENDBRANCH  17  19
ENDBRANCH  16  17
ENDBRANCH   4  16
ENDBRANCH   1   6
BRANCH   1  20
ATOM     20  C   UNL     1      -5.627  -3.649   1.903  0.00  0.00    +0.110 C 
ATOM     21  C   UNL     1      -5.547  -5.171   2.047  0.00  0.00    +0.025 C 
ENDBRANCH   1  20
BRANCH   2  22
ATOM     22  C   UNL     1      -4.798  -2.974   4.532  0.00  0.00    +0.019 C 
BRANCH  22  23
ATOM     23  N   UNL     1      -4.099  -2.609   5.772  0.00  0.00    +0.386 N 
ATOM     24  C   UNL     1      -3.778  -1.176   5.749  0.00  0.00    -0.095 C 
ATOM     25  H   UNL     1      -3.247  -3.143   5.847  0.00  0.00    -0.081 HD
BRANCH  23  26
ATOM     26  C   UNL     1      -4.963  -2.899   6.924  0.00  0.00    -0.042 C 
BRANCH  26  27
ATOM     27  C   UNL     1      -4.195  -2.664   8.199  0.00  0.00    -0.056 A 
ATOM     28  C   UNL     1      -4.455  -1.547   8.968  0.00  0.00    +0.002 A 
ATOM     29  C   UNL     1      -3.751  -1.330  10.138  0.00  0.00    +0.000 A 
ATOM     30  C   UNL     1      -2.783  -2.230  10.546  0.00  0.00    +0.001 A 
ATOM     31  C   UNL     1      -2.514  -3.350   9.785  0.00  0.00    +0.009 A 
ATOM     32  C   UNL     1      -3.224  -3.576   8.607  0.00  0.00    -0.017 A 
BRANCH  32  33
ATOM     33  C   UNL     1      -2.944  -4.781   7.788  0.00  0.00    -0.018 A 
ATOM     34  C   UNL     1      -3.970  -5.673   7.482  0.00  0.00    +0.008 A 
ATOM     35  C   UNL     1      -3.703  -6.792   6.719  0.00  0.00    +0.001 A 
ATOM     36  C   UNL     1      -2.420  -7.029   6.259  0.00  0.00    +0.000 A 
ATOM     37  C   UNL     1      -1.398  -6.147   6.561  0.00  0.00    +0.001 A 
ATOM     38  C   UNL     1      -1.654  -5.022   7.318  0.00  0.00    +0.008 A 
ENDBRANCH  32  33
ENDBRANCH  26  27
ENDBRANCH  23  26
ENDBRANCH  22  23
ENDBRANCH   2  22
TORSDOF 11
