REMARK  Name = ZINC14457906
REMARK  9 active torsions:
REMARK  status: ('A' for Active; 'I' for Inactive)
REMARK    1  A    between atoms: C_1  and  C_2
REMARK    2  A    between atoms: C_6  and  C_37
REMARK    3  A    between atoms: C_7  and  N_8
REMARK    4  A    between atoms: N_8  and  S_9
REMARK    5  A    between atoms: S_9  and  C_12
REMARK    6  A    between atoms: C_25  and  C_28
REMARK    7  A    between atoms: C_29  and  C_36
REMARK    8  A    between atoms: C_31  and  C_35
REMARK    9  A    between atoms: C_33  and  C_34
REMARK                            x       y       z     vdW  Elec       q    Type
REMARK                         _______ _______ _______ _____ _____    ______ ____
ROOT
ATOM      1  C   UNL     1       0.827  -3.386  -1.429  0.00  0.00    +0.109 A 
ATOM      2  C   UNL     1       2.202  -3.264  -1.521  0.00  0.00    +0.030 A 
ATOM      3  C   UNL     1       2.795  -2.022  -1.430  0.00  0.00    +0.025 A 
ATOM      4  C   UNL     1       2.018  -0.885  -1.245  0.00  0.00    +0.031 A 
ATOM      5  C   UNL     1       0.629  -1.016  -1.143  0.00  0.00    -0.018 A 
ATOM      6  C   UNL     1       0.045  -2.261  -1.240  0.00  0.00    +0.034 A 
ATOM      7  C   UNL     1      -0.159   0.216  -0.926  0.00  0.00    +0.049 C 
ATOM      8  C   UNL     1      -1.576   0.329  -1.359  0.00  0.00    -0.023 C 
ATOM      9  C   UNL     1      -1.822   1.594  -1.678  0.00  0.00    -0.030 C 
ATOM     10  C   UNL     1      -0.553   2.432  -1.510  0.00  0.00    +0.033 C 
ATOM     11  C   UNL     1       0.543   1.374  -1.696  0.00  0.00    +0.029 C 
ATOM     12  C   UNL     1       1.857   1.603  -0.971  0.00  0.00    +0.105 C 
ATOM     13  N   UNL     1       2.643   0.366  -1.171  0.00  0.00    -0.336 N 
ATOM     14  H   UNL     1       3.608   0.423  -1.253  0.00  0.00    +0.147 HD
ENDROOT
BRANCH  12  15
ATOM     15  C   UNL     1       2.580   2.785  -1.564  0.00  0.00    -0.021 A 
ATOM     16  C   UNL     1       3.111   2.702  -2.838  0.00  0.00    -0.045 A 
ATOM     17  C   UNL     1       3.771   3.787  -3.384  0.00  0.00    +0.007 A 
ATOM     18  C   UNL     1       3.908   4.952  -2.653  0.00  0.00    -0.050 A 
ATOM     19  C   UNL     1       3.381   5.034  -1.377  0.00  0.00    +0.007 A 
ATOM     20  C   UNL     1       2.718   3.950  -0.833  0.00  0.00    -0.045 A 
ATOM     21  C   UNL     1       2.144   4.038   0.558  0.00  0.00    +0.044 C 
ATOM     22  C   UNL     1       4.630   6.134  -3.247  0.00  0.00    +0.044 C 
ATOM     23  C   UNL     1       2.967   1.430  -3.633  0.00  0.00    +0.044 C 
ENDBRANCH  12  15
BRANCH   1  24
ATOM     24  S   UNL     1       0.072  -4.973  -1.554  0.00  0.00    +0.072 S 
ATOM     25  O   UNL     1       1.032  -5.916  -1.097  0.00  0.00    -0.150 OA
ATOM     26  O   UNL     1      -1.219  -4.856  -0.972  0.00  0.00    -0.150 OA
BRANCH  24  27
ATOM     27  N   UNL     1      -0.161  -5.278  -3.165  0.00  0.00    -0.216 N 
ATOM     28  H   UNL     1      -1.060  -5.303  -3.529  0.00  0.00    +0.174 HD
BRANCH  27  35
ATOM     29  C   UNL     1       0.613  -3.201  -4.948  0.00  0.00    +0.046 C 
ATOM     30  C   UNL     1       1.349  -4.514  -4.886  0.00  0.00    -0.028 A 
ATOM     31  C   UNL     1       2.437  -4.736  -5.706  0.00  0.00    +0.005 A 
ATOM     32  C   UNL     1       3.110  -5.943  -5.654  0.00  0.00    +0.001 A 
ATOM     33  C   UNL     1       2.699  -6.930  -4.777  0.00  0.00    +0.005 A 
ATOM     34  C   UNL     1       1.614  -6.713  -3.950  0.00  0.00    -0.028 A 
ATOM     35  C   UNL     1       0.936  -5.501  -4.000  0.00  0.00    +0.054 A 
ATOM     36  C   UNL     1       1.167  -7.789  -2.994  0.00  0.00    +0.046 C 
ENDBRANCH  27  35
ENDBRANCH  24  27
ENDBRANCH   1  24
TORSDOF 4
