REMARK  Name = ZINC46864727
REMARK  8 active torsions:
REMARK  status: ('A' for Active; 'I' for Inactive)
REMARK    1  A    between atoms: C_1  and  C_2
REMARK    2  A    between atoms: C_3  and  C_16
REMARK    3  A    between atoms: C_4  and  C_15
REMARK    4  A    between atoms: C_9  and  C_11
REMARK    5  A    between atoms: C_16  and  C_17
REMARK    6  A    between atoms: N_19  and  C_20
REMARK    7  A    between atoms: C_20  and  C_22
REMARK    8  A    between atoms: C_20  and  C_23
REMARK                            x       y       z     vdW  Elec       q    Type
REMARK                         _______ _______ _______ _____ _____    ______ ____
ROOT
ATOM      1  C   UNL     1      -2.893   0.356   1.435  0.00  0.00    +0.218 C 
ATOM      2  O   UNL     1      -2.160   0.039   2.347  0.00  0.00    -0.275 OA
ATOM      3  N   UNL     1      -4.040   1.016   1.690  0.00  0.00    -0.308 N 
ATOM      4  H   UNL     1      -4.627   1.270   0.960  0.00  0.00    +0.149 HD
ENDROOT
BRANCH   3   5
ATOM      5  C   UNL     1      -4.402   1.350   3.070  0.00  0.00    +0.100 C 
ATOM      6  C   UNL     1      -5.116   0.158   3.712  0.00  0.00    +0.033 C 
BRANCH   5   7
ATOM      7  C   UNL     1      -5.319   2.546   3.074  0.00  0.00    -0.026 A 
ATOM      8  C   UNL     1      -6.309   2.659   2.115  0.00  0.00    +0.009 A 
ATOM      9  C   UNL     1      -7.155   3.753   2.113  0.00  0.00    +0.048 A 
ATOM     10  C   UNL     1      -7.010   4.739   3.072  0.00  0.00    +0.142 A 
ATOM     11  C   UNL     1      -6.010   4.626   4.038  0.00  0.00    +0.076 A 
ATOM     12  C   UNL     1      -5.170   3.525   4.039  0.00  0.00    +0.032 A 
ATOM     13  N   UNL     1      -5.872   5.634   5.003  0.00  0.00    -0.280 N 
ATOM     14  C   UNL     1      -6.881   6.515   5.178  0.00  0.00    +0.255 C 
ATOM     15  O   UNL     1      -6.771   7.414   5.985  0.00  0.00    -0.272 OA
ATOM     16  C   UNL     1      -8.143   6.378   4.366  0.00  0.00    +0.325 C 
ATOM     17  O   UNL     1      -7.833   5.821   3.086  0.00  0.00    -0.481 OA
ATOM     18  H   UNL     1      -5.065   5.697   5.537  0.00  0.00    +0.155 HD
ENDBRANCH   5   7
ENDBRANCH   3   5
BRANCH   1  19
ATOM     19  C   UNL     1      -2.521   0.013   0.015  0.00  0.00    +0.134 C 
BRANCH  19  22
ATOM     20  C   UNL     1      -0.018   1.503   0.010  0.00  0.00    +0.066 C 
ATOM     21  C   UNL     1       0.002  -0.004   0.002  0.00  0.00    +0.047 A 
ATOM     22  C   UNL     1      -1.203  -0.717   0.004  0.00  0.00    +0.004 A 
ATOM     23  C   UNL     1      -1.170  -2.075  -0.004  0.00  0.00    +0.049 A 
ATOM     24  N   UNL     1       0.034  -2.706  -0.014  0.00  0.00    -0.200 N 
ATOM     25  C   UNL     1       1.192  -1.980  -0.015  0.00  0.00    +0.254 A 
ATOM     26  N   UNL     1       1.150  -0.642  -0.012  0.00  0.00    -0.216 NA
ATOM     27  N   UNL     1       2.199  -2.846  -0.025  0.00  0.00    -0.186 NA
ATOM     28  C   UNL     1       1.725  -4.084  -0.030  0.00  0.00    +0.257 A 
ATOM     29  N   UNL     1       0.413  -4.054  -0.023  0.00  0.00    -0.139 NA
ATOM     30  C   UNL     1      -2.450  -2.870  -0.002  0.00  0.00    +0.066 C 
BRANCH  28  31
ATOM     31  C   UNL     1       2.565  -5.336  -0.042  0.00  0.00    +0.454 C 
ATOM     32  F   UNL     1       3.884  -5.015   0.295  0.00  0.00    -0.163 F 
ATOM     33  F   UNL     1       2.055  -6.248   0.888  0.00  0.00    -0.163 F 
ATOM     34  F   UNL     1       2.535  -5.905  -1.319  0.00  0.00    -0.163 F 
ENDBRANCH  28  31
ENDBRANCH  19  22
ENDBRANCH   1  19
TORSDOF 5
