REMARK  Name = ZINC05296797
REMARK  7 active torsions:
REMARK  status: ('A' for Active; 'I' for Inactive)
REMARK    1  A    between atoms: C_1  and  C_2
REMARK    2  A    between atoms: C_3  and  C_9
REMARK    3  A    between atoms: C_4  and  C_8
REMARK    4  A    between atoms: N_5  and  C_7
REMARK    5  A    between atoms: N_10  and  N_11
REMARK    6  A    between atoms: C_12  and  C_14
REMARK    7  A    between atoms: C_16  and  C_20
REMARK                            x       y       z     vdW  Elec       q    Type
REMARK                         _______ _______ _______ _____ _____    ______ ____
ROOT
ATOM      1  C   UNL     1       1.033  -6.532  -0.044  0.00  0.00    +0.122 A 
ATOM      2  C   UNL     1       0.256  -7.675  -0.037  0.00  0.00    +0.062 A 
ATOM      3  C   UNL     1       1.171  -8.746  -0.058  0.00  0.00    +0.094 A 
ATOM      4  N   UNL     1       2.384  -8.232  -0.065  0.00  0.00    -0.173 NA
ATOM      5  N   UNL     1       2.335  -6.949  -0.058  0.00  0.00    -0.272 N 
ATOM      6  H   UNL     1       3.131  -6.344  -0.061  0.00  0.00    +0.189 HD
ENDROOT
BRANCH   3   7
ATOM      7  C   UNL     1       0.830 -10.188  -0.062  0.00  0.00    +0.010 A 
ATOM      8  C   UNL     1      -0.493 -10.605  -0.052  0.00  0.00    +0.011 A 
ATOM      9  C   UNL     1      -0.842 -11.954  -0.056  0.00  0.00    +0.005 A 
ATOM     10  C   UNL     1       0.121 -12.919  -0.069  0.00  0.00    -0.039 A 
ATOM     11  C   UNL     1       1.454 -12.520  -0.079  0.00  0.00    -0.011 A 
ATOM     12  C   UNL     1       1.847 -11.171  -0.082  0.00  0.00    -0.008 A 
ATOM     13  C   UNL     1       3.219 -10.886  -0.088  0.00  0.00    +0.009 A 
ATOM     14  C   UNL     1       4.108 -11.923  -0.101  0.00  0.00    +0.001 A 
ATOM     15  C   UNL     1       3.696 -13.257  -0.104  0.00  0.00    +0.004 A 
ATOM     16  C   UNL     1       2.370 -13.568  -0.093  0.00  0.00    -0.039 A 
ATOM     17  C   UNL     1       1.585 -14.856  -0.092  0.00  0.00    +0.040 C 
ATOM     18  C   UNL     1       0.101 -14.429  -0.076  0.00  0.00    +0.040 C 
ENDBRANCH   3   7
BRANCH   1  20
ATOM     19  N   UNL     1       1.437  -4.124  -0.034  0.00  0.00    -0.202 N 
ATOM     20  C   UNL     1       0.553  -5.141  -0.032  0.00  0.00    +0.281 C 
ATOM     21  O   UNL     1      -0.641  -4.910  -0.020  0.00  0.00    -0.267 OA
ATOM     22  H   UNL     1       2.389  -4.308  -0.044  0.00  0.00    +0.178 HD
BRANCH  19  24
ATOM     23  C   UNL     1       1.831  -1.819  -0.025  0.00  0.00    +0.141 C 
ATOM     24  N   UNL     1       0.980  -2.799  -0.023  0.00  0.00    -0.187 NA
BRANCH  23  27
ATOM     25  C   UNL     1      -1.206  -0.905   0.008  0.00  0.00    +0.068 C 
ATOM     26  C   UNL     1       0.002  -0.004   0.002  0.00  0.00    +0.069 A 
ATOM     27  C   UNL     1       1.350  -0.425  -0.013  0.00  0.00    +0.038 A 
ATOM     28  C   UNL     1       2.132   0.710  -0.015  0.00  0.00    +0.045 A 
ATOM     29  N   UNL     1       1.302   1.772  -0.001  0.00  0.00    -0.271 N 
ATOM     30  N   UNL     1      -0.016   1.301   0.009  0.00  0.00    -0.176 NA
ATOM     31  C   UNL     1       1.711   3.179   0.002  0.00  0.00    +0.172 C 
ATOM     32  C   UNL     1       3.639   0.755  -0.029  0.00  0.00    +0.066 C 
ENDBRANCH  23  27
ENDBRANCH  19  24
ENDBRANCH   1  20
TORSDOF 4
