REMARK  Name = ZINC06712945
REMARK  6 active torsions:
REMARK  status: ('A' for Active; 'I' for Inactive)
REMARK    1  A    between atoms: C_1  and  C_2
REMARK    2  A    between atoms: C_5  and  O_22
REMARK    3  A    between atoms: C_6  and  N_8
REMARK    4  A    between atoms: C_9  and  C_15
REMARK    5  A    between atoms: C_20  and  N_21
REMARK    6  A    between atoms: O_22  and  C_23
REMARK                            x       y       z     vdW  Elec       q    Type
REMARK                         _______ _______ _______ _____ _____    ______ ____
ROOT
ATOM      1  N   UNL     1      -0.406   1.358  -0.410  0.00  0.00    -0.251 N 
ATOM      2  C   UNL     1       0.018  -0.020  -0.098  0.00  0.00    +0.172 C 
ATOM      3  S   UNL     1       1.663   0.275   0.682  0.00  0.00    -0.124 S 
ATOM      4  C   UNL     1       1.920   1.967  -0.009  0.00  0.00    +0.167 C 
ATOM      5  C   UNL     1       0.491   2.335  -0.378  0.00  0.00    +0.231 C 
ATOM      6  O   UNL     1       0.183   3.480  -0.633  0.00  0.00    -0.274 OA
ENDROOT
BRANCH   1  12
ATOM      7  C   UNL     1      -4.962   2.550   1.004  0.00  0.00    +0.044 C 
ATOM      8  C   UNL     1      -3.969   2.212  -0.078  0.00  0.00    -0.048 A 
ATOM      9  C   UNL     1      -4.376   2.171  -1.399  0.00  0.00    +0.007 A 
ATOM     10  C   UNL     1      -3.470   1.860  -2.396  0.00  0.00    +0.048 A 
ATOM     11  C   UNL     1      -2.150   1.590  -2.073  0.00  0.00    +0.141 A 
ATOM     12  C   UNL     1      -1.739   1.631  -0.743  0.00  0.00    +0.080 A 
ATOM     13  C   UNL     1      -2.655   1.938   0.253  0.00  0.00    +0.030 A 
BRANCH  11  14
ATOM     14  O   UNL     1      -1.258   1.285  -3.053  0.00  0.00    -0.493 OA
ATOM     15  C   UNL     1      -1.750   1.261  -4.394  0.00  0.00    +0.277 C 
ENDBRANCH  11  14
ENDBRANCH   1  12
BRANCH   2  16
ATOM     16  C   UNL     1      -0.932  -0.672   0.873  0.00  0.00    +0.004 A 
ATOM     17  C   UNL     1      -0.666  -0.641   2.228  0.00  0.00    +0.008 A 
ATOM     18  C   UNL     1      -1.540  -1.236   3.119  0.00  0.00    +0.000 A 
ATOM     19  C   UNL     1      -2.678  -1.871   2.658  0.00  0.00    +0.002 A 
ATOM     20  C   UNL     1      -2.948  -1.910   1.304  0.00  0.00    +0.023 A 
ATOM     21  C   UNL     1      -2.075  -1.310   0.406  0.00  0.00    +0.030 A 
BRANCH  21  22
ATOM     22  N   UNL     1      -2.345  -1.347  -0.964  0.00  0.00    -0.358 N 
ATOM     23  H   UNL     1      -1.735  -0.927  -1.591  0.00  0.00    +0.142 HD
ATOM     24  H   UNL     1      -3.143  -1.793  -1.289  0.00  0.00    +0.142 HD
ENDBRANCH  21  22
ENDBRANCH   2  16
TORSDOF 4
