REMARK  Name = ZINC20477085
REMARK  9 active torsions:
REMARK  status: ('A' for Active; 'I' for Inactive)
REMARK    1  A    between atoms: C_1  and  C_2
REMARK    2  A    between atoms: C_2  and  O_3
REMARK    3  A    between atoms: O_3  and  C_4
REMARK    4  A    between atoms: C_6  and  C_21
REMARK    5  A    between atoms: C_9  and  O_10
REMARK    6  A    between atoms: O_10  and  C_11
REMARK    7  A    between atoms: C_11  and  C_12
REMARK    8  A    between atoms: C_21  and  N_22
REMARK    9  A    between atoms: N_22  and  C_23
REMARK                            x       y       z     vdW  Elec       q    Type
REMARK                         _______ _______ _______ _____ _____    ______ ____
ROOT
ATOM      1  C   UNL     1      -1.247   3.562   0.032  0.00  0.00    +0.163 A 
ATOM      2  C   UNL     1      -1.226   2.176   0.020  0.00  0.00    +0.054 A 
ATOM      3  C   UNL     1      -0.018   1.503   0.010  0.00  0.00    -0.029 A 
ATOM      4  C   UNL     1       1.170   2.209   0.003  0.00  0.00    +0.024 A 
ATOM      5  C   UNL     1       1.157   3.592   0.010  0.00  0.00    +0.063 A 
ATOM      6  C   UNL     1      -0.051   4.273   0.025  0.00  0.00    +0.176 A 
ATOM      7 BR   UNL     1       2.785   4.554  -0.001  0.00  0.00    -0.046 Br
ENDROOT
BRANCH   1   8
ATOM      8  O   UNL     1      -2.434   4.225   0.047  0.00  0.00    -0.489 OA
BRANCH   8  10
ATOM      9  C   UNL     1      -4.847   4.345   0.070  0.00  0.00    +0.048 C 
ATOM     10  C   UNL     1      -3.621   3.430   0.054  0.00  0.00    +0.226 C 
ENDBRANCH   8  10
ENDBRANCH   1   8
BRANCH   6  11
ATOM     11  O   UNL     1      -0.067   5.633   0.032  0.00  0.00    -0.483 OA
BRANCH  11  12
ATOM     12  C   UNL     1      -0.086   6.288  -1.238  0.00  0.00    +0.266 C 
BRANCH  12  13
ATOM     13  C   UNL     1      -0.101   7.781  -1.032  0.00  0.00    +0.008 A 
ATOM     14  C   UNL     1      -0.095   8.302   0.248  0.00  0.00    +0.010 A 
ATOM     15  C   UNL     1      -0.109   9.671   0.438  0.00  0.00    +0.020 A 
ATOM     16  C   UNL     1      -0.128  10.521  -0.654  0.00  0.00    +0.042 A 
ATOM     17  C   UNL     1      -0.134  10.000  -1.935  0.00  0.00    +0.040 A 
ATOM     18  C   UNL     1      -0.115   8.630  -2.124  0.00  0.00    +0.049 A 
ATOM     19 CL   UNL     1      -0.115   7.975  -3.732  0.00  0.00    -0.083 Cl
ATOM     20 CL   UNL     1      -0.146  12.240  -0.416  0.00  0.00    -0.083 Cl
ENDBRANCH  12  13
ENDBRANCH  11  12
ENDBRANCH   6  11
BRANCH   3  21
ATOM     21  C   UNL     1       0.002  -0.004   0.002  0.00  0.00    +0.116 C 
BRANCH  21  22
ATOM     22  N   UNL     1       0.022  -0.501   1.384  0.00  0.00    -0.311 NA
ATOM     23  H   UNL     1       0.920  -0.125   1.896  0.00  0.00    +0.122 HD
BRANCH  22  24
ATOM     24  C   UNL     1       0.042  -1.970   1.415  0.00  0.00    +0.040 C 
ATOM     25  C   UNL     1       1.487  -2.465   1.303  0.00  0.00    -0.060 C 
ATOM     26  N   UNL     1       1.827  -3.248   2.499  0.00  0.00    +0.381 N 
ATOM     27  C   UNL     1       0.970  -4.436   2.614  0.00  0.00    -0.078 C 
ATOM     28  C   UNL     1      -0.489  -3.997   2.763  0.00  0.00    -0.014 C 
ATOM     29  C   UNL     1      -0.549  -2.464   2.741  0.00  0.00    +0.001 C 
ATOM     30  C   UNL     1       0.310  -1.924   3.892  0.00  0.00    -0.014 C 
ATOM     31  C   UNL     1       1.747  -2.422   3.712  0.00  0.00    -0.078 C 
ATOM     32  H   UNL     1       2.867  -3.590   2.392  0.00  0.00    -0.082 HD
ENDBRANCH  22  24
ENDBRANCH  21  22
ENDBRANCH   3  21
TORSDOF 8
