REMARK  Name = ZINC39674699
REMARK  7 active torsions:
REMARK  status: ('A' for Active; 'I' for Inactive)
REMARK    1  A    between atoms: C_1  and  C_2
REMARK    2  A    between atoms: C_4  and  C_14
REMARK    3  A    between atoms: C_7  and  C_12
REMARK    4  A    between atoms: C_14  and  C_15
REMARK    5  A    between atoms: C_15  and  N_16
REMARK    6  A    between atoms: C_17  and  C_19
REMARK    7  A    between atoms: C_30  and  C_32
REMARK                            x       y       z     vdW  Elec       q    Type
REMARK                         _______ _______ _______ _____ _____    ______ ____
ROOT
ATOM      1  C   UNL     1       0.999  -0.778  -7.942  0.00  0.00    +0.100 C 
ATOM      2  C   UNL     1       1.152   0.759  -7.939  0.00  0.00    +0.121 C 
ATOM      3  N   UNL     1       2.522   1.001  -8.450  0.00  0.00    -0.296 N 
ATOM      4  C   UNL     1       2.695  -0.002  -9.528  0.00  0.00    +0.115 C 
ATOM      5  C   UNL     1       2.011  -1.274  -8.988  0.00  0.00    -0.004 C 
ATOM      6  C   UNL     1       3.042  -2.189  -8.335  0.00  0.00    -0.010 C 
ATOM      7  C   UNL     1       4.003  -2.713  -9.405  0.00  0.00    -0.082 C 
ATOM      8  N   UNL     1       3.247  -3.447 -10.427  0.00  0.00    +0.379 N 
ATOM      9  C   UNL     1       2.322  -2.538 -11.115  0.00  0.00    -0.082 C 
ATOM     10  C   UNL     1       1.290  -2.005 -10.117  0.00  0.00    -0.010 C 
ATOM     11  C   UNL     1       3.410   1.923  -8.029  0.00  0.00    +0.247 C 
ATOM     12  O   UNL     1       3.168   2.595  -7.045  0.00  0.00    -0.270 OA
ATOM     13  H   UNL     1       3.888  -3.843 -11.098  0.00  0.00    -0.086 HD
ATOM     14  H   UNL     1       2.723  -4.189  -9.988  0.00  0.00    -0.086 HD
ENDROOT
BRANCH  11  15
ATOM     15  C   UNL     1       4.678   2.118  -8.764  0.00  0.00    +0.038 A 
ATOM     16  C   UNL     1       4.790   1.700 -10.091  0.00  0.00    +0.013 A 
ATOM     17  C   UNL     1       5.975   1.884 -10.772  0.00  0.00    +0.002 A 
ATOM     18  C   UNL     1       7.052   2.483 -10.143  0.00  0.00    +0.020 A 
ATOM     19  C   UNL     1       6.948   2.901  -8.827  0.00  0.00    +0.042 A 
ATOM     20  C   UNL     1       5.765   2.726  -8.136  0.00  0.00    +0.033 A 
ATOM     21 CL   UNL     1       8.305   3.651  -8.046  0.00  0.00    -0.084 Cl
ENDBRANCH  11  15
BRANCH   1  23
ATOM     22  N   UNL     1       0.832  -2.535  -6.208  0.00  0.00    -0.315 N 
ATOM     23  C   UNL     1       1.331  -1.341  -6.584  0.00  0.00    +0.218 C 
ATOM     24  O   UNL     1       2.047  -0.719  -5.828  0.00  0.00    -0.275 OA
ATOM     25  H   UNL     1       0.259  -3.032  -6.813  0.00  0.00    +0.149 HD
BRANCH  22  26
ATOM     26  C   UNL     1       1.154  -3.082  -4.888  0.00  0.00    +0.108 C 
BRANCH  26  27
ATOM     27  C   UNL     1       0.466  -4.437  -4.715  0.00  0.00    +0.052 C 
BRANCH  27  30
ATOM     28  C   UNL     1      -1.199  -6.332  -2.681  0.00  0.00    +0.035 C 
ATOM     29  C   UNL     1       0.327  -6.315  -2.778  0.00  0.00    +0.103 C 
ATOM     30  C   UNL     1       0.798  -5.000  -3.357  0.00  0.00    -0.037 C 
ATOM     31  C   UNL     1       1.579  -4.428  -2.406  0.00  0.00    +0.000 A 
ATOM     32  C   UNL     1       2.291  -3.200  -2.377  0.00  0.00    +0.028 A 
ATOM     33  C   UNL     1       3.023  -2.853  -1.265  0.00  0.00    +0.052 A 
ATOM     34  C   UNL     1       3.086  -3.725  -0.097  0.00  0.00    +0.021 A 
ATOM     35  C   UNL     1       2.429  -4.903  -0.068  0.00  0.00    +0.027 A 
ATOM     36  C   UNL     1       1.635  -5.322  -1.228  0.00  0.00    +0.043 A 
ATOM     37  N   UNL     1       0.920  -6.402  -1.440  0.00  0.00    -0.378 N 
ATOM     38  H   UNL     1       0.803  -7.135  -0.816  0.00  0.00    +0.160 HD
BRANCH  33  39
ATOM     39  C   UNL     1       3.735  -1.611  -1.253  0.00  0.00    +0.099 C 
ATOM     40  N   UNL     1       4.300  -0.625  -1.244  0.00  0.00    -0.191 NA
ENDBRANCH  33  39
ENDBRANCH  27  30
ENDBRANCH  26  27
ENDBRANCH  22  26
ENDBRANCH   1  23
TORSDOF 6
