REMARK  Name = ZINC06442493
REMARK  7 active torsions:
REMARK  status: ('A' for Active; 'I' for Inactive)
REMARK    1  A    between atoms: C_1  and  C_2
REMARK    2  A    between atoms: C_7  and  C_15
REMARK    3  A    between atoms: C_13  and  C_14
REMARK    4  A    between atoms: C_15  and  C_17
REMARK    5  A    between atoms: C_15  and  N_74
REMARK    6  A    between atoms: N_21  and  C_22
REMARK    7  A    between atoms: C_22  and  C_23
REMARK                            x       y       z     vdW  Elec       q    Type
REMARK                         _______ _______ _______ _____ _____    ______ ____
ROOT
ATOM      1  C   UNL     1       4.959   1.184  -0.037  0.00  0.00    +0.039 C 
ENDROOT
BRANCH   1   8
ATOM      2  C   UNL     1      -2.477   3.766   1.254  0.00  0.00    +0.044 C 
ATOM      3  C   UNL     1      -1.159   3.065   1.047  0.00  0.00    -0.046 A 
ATOM      4  C   UNL     1      -1.092   1.682   1.156  0.00  0.00    +0.004 A 
ATOM      5  C   UNL     1       0.093   1.027   0.978  0.00  0.00    +0.010 A 
ATOM      6  C   UNL     1       1.248   1.755   0.673  0.00  0.00    -0.001 A 
ATOM      7  C   UNL     1       2.534   1.085   0.470  0.00  0.00    +0.017 A 
ATOM      8  C   UNL     1       3.620   1.842   0.177  0.00  0.00    +0.011 A 
ATOM      9  C   UNL     1       3.501   3.244   0.072  0.00  0.00    +0.251 A 
ATOM     10  O   UNL     1       4.490   3.906  -0.193  0.00  0.00    -0.268 OA
ATOM     11  N   UNL     1       2.325   3.869   0.256  0.00  0.00    -0.322 N 
ATOM     12  H   UNL     1       2.278   4.834   0.176  0.00  0.00    +0.169 HD
ATOM     13  C   UNL     1       1.184   3.156   0.557  0.00  0.00    +0.052 A 
ATOM     14  C   UNL     1      -0.034   3.802   0.748  0.00  0.00    -0.024 A 
ATOM     15  C   UNL     1      -0.122   5.301   0.628  0.00  0.00    +0.046 C 
ENDBRANCH   1   8
BRANCH   1  26
ATOM     16  C   UNL     1       4.649   1.170  -2.438  0.00  0.00    -0.077 C 
ATOM     17  C   UNL     1       5.174   1.748  -3.754  0.00  0.00    -0.018 C 
ATOM     18  C   UNL     1       6.610   1.267  -3.980  0.00  0.00    +0.003 C 
ATOM     19  C   UNL     1       7.475   1.692  -2.791  0.00  0.00    -0.044 C 
ATOM     20  C   UNL     1       6.884   1.116  -1.503  0.00  0.00    -0.071 C 
ATOM     21  C   UNL     1       7.503   3.219  -2.702  0.00  0.00    +0.005 C 
ATOM     22  C   UNL     1       8.090   3.795  -3.993  0.00  0.00    +0.000 C 
ATOM     23  C   UNL     1       9.514   3.268  -4.184  0.00  0.00    +0.000 C 
ATOM     24  C   UNL     1       9.486   1.741  -4.272  0.00  0.00    +0.000 C 
ATOM     25  C   UNL     1       8.899   1.166  -2.982  0.00  0.00    +0.005 C 
ATOM     26  N   UNL     1       5.511   1.636  -1.331  0.00  0.00    +0.390 N 
ATOM     27  H   UNL     1       5.540   2.662  -1.341  0.00  0.00    -0.080 HD
ENDBRANCH   1  26
BRANCH   1  28
ATOM     28  C   UNL     1       5.901   1.590   1.067  0.00  0.00    +0.143 A 
ATOM     29  N   UNL     1       6.483   2.756   1.210  0.00  0.00    -0.115 NA
ATOM     30  N   UNL     1       7.209   2.711   2.273  0.00  0.00    -0.023 NA
ATOM     31  N   UNL     1       7.105   1.546   2.812  0.00  0.00    -0.044 NA
ATOM     32  N   UNL     1       6.303   0.829   2.101  0.00  0.00    -0.228 N 
BRANCH  32  33
ATOM     33  C   UNL     1       5.908  -0.557   2.367  0.00  0.00    +0.178 C 
BRANCH  33  34
ATOM     34  C   UNL     1       6.888  -1.508   1.679  0.00  0.00    +0.140 C 
ATOM     35  C   UNL     1       6.415  -2.967   1.857  0.00  0.00    +0.035 C 
ATOM     36  C   UNL     1       7.752  -3.721   2.093  0.00  0.00    +0.031 C 
ATOM     37  C   UNL     1       8.559  -2.651   2.872  0.00  0.00    +0.160 C 
ATOM     38  O   UNL     1       8.181  -1.395   2.285  0.00  0.00    -0.375 OA
ENDBRANCH  33  34
ENDBRANCH  32  33
ENDBRANCH   1  28
TORSDOF 5
