REMARK  Name = ZINC20681850
REMARK  8 active torsions:
REMARK  status: ('A' for Active; 'I' for Inactive)
REMARK    1  A    between atoms: C_1  and  C_2
REMARK    2  A    between atoms: C_2  and  C_3
REMARK    3  A    between atoms: C_2  and  N_4
REMARK    4  A    between atoms: N_4  and  S_5
REMARK    5  A    between atoms: S_5  and  C_8
REMARK    6  A    between atoms: C_21  and  C_24
REMARK    7  A    between atoms: C_27  and  O_31
REMARK    8  A    between atoms: C_29  and  O_30
REMARK                            x       y       z     vdW  Elec       q    Type
REMARK                         _______ _______ _______ _____ _____    ______ ____
ROOT
ATOM      1  C   UNL     1       0.013   5.236  -0.282  0.00  0.00    +0.106 A 
ATOM      2  C   UNL     1      -0.642   4.018  -0.317  0.00  0.00    +0.030 A 
ATOM      3  C   UNL     1       0.088   2.848  -0.251  0.00  0.00    +0.025 A 
ATOM      4  C   UNL     1       1.473   2.896  -0.163  0.00  0.00    +0.031 A 
ATOM      5  C   UNL     1       2.134   4.114  -0.136  0.00  0.00    -0.018 A 
ATOM      6  C   UNL     1       1.389   5.284  -0.196  0.00  0.00    +0.034 A 
ATOM      7  C   UNL     1       3.624   4.215  -0.048  0.00  0.00    +0.049 C 
ATOM      8  C   UNL     1       4.068   4.633   1.334  0.00  0.00    -0.023 C 
ATOM      9  C   UNL     1       5.183   4.024   1.655  0.00  0.00    -0.030 C 
ATOM     10  C   UNL     1       5.639   3.119   0.526  0.00  0.00    +0.033 C 
ATOM     11  C   UNL     1       4.333   2.867  -0.283  0.00  0.00    +0.029 C 
ATOM     12  C   UNL     1       3.568   1.745   0.425  0.00  0.00    +0.108 C 
ATOM     13  N   UNL     1       2.198   1.701  -0.098  0.00  0.00    -0.336 N 
ATOM     14  H   UNL     1       1.766   0.745  -0.427  0.00  0.00    +0.147 HD
ENDROOT
BRANCH  12  15
ATOM     15  C   UNL     1       3.534   2.014   1.907  0.00  0.00    +0.015 A 
ATOM     16  C   UNL     1       2.558   2.837   2.437  0.00  0.00    +0.012 A 
ATOM     17  C   UNL     1       2.524   3.086   3.796  0.00  0.00    +0.046 A 
ATOM     18  C   UNL     1       3.470   2.509   4.632  0.00  0.00    +0.120 A 
ATOM     19  C   UNL     1       4.450   1.683   4.103  0.00  0.00    +0.091 A 
ATOM     20  C   UNL     1       4.479   1.431   2.739  0.00  0.00    +0.125 A 
BRANCH  20  21
ATOM     21  O   UNL     1       5.434   0.618   2.218  0.00  0.00    -0.506 OA
ATOM     22  H   UNL     1       6.183   0.155   2.879  0.00  0.00    +0.292 HD
ENDBRANCH  20  21
BRANCH  18  23
ATOM     23  O   UNL     1       3.436   2.754   5.968  0.00  0.00    -0.507 OA
ATOM     24  H   UNL     1       4.186   2.296   6.630  0.00  0.00    +0.292 HD
ENDBRANCH  18  23
ENDBRANCH  12  15
BRANCH   1  25
ATOM     25  S   UNL     1      -0.914   6.732  -0.355  0.00  0.00    +0.059 S 
ATOM     26  O   UNL     1      -2.219   6.426   0.118  0.00  0.00    -0.153 OA
ATOM     27  O   UNL     1      -0.107   7.740   0.237  0.00  0.00    -0.153 OA
BRANCH  25  28
ATOM     28  N   UNL     1      -1.073   7.133  -1.954  0.00  0.00    -0.187 NA
ATOM     29  H   UNL     1      -0.469   7.955  -2.365  0.00  0.00    +0.148 HD
BRANCH  28  31
ATOM     30  C   UNL     1      -2.567   7.123  -3.891  0.00  0.00    +0.025 C 
ATOM     31  C   UNL     1      -1.839   6.266  -2.854  0.00  0.00    +0.070 C 
ATOM     32  C   UNL     1      -0.887   5.302  -3.566  0.00  0.00    +0.025 C 
ENDBRANCH  28  31
ENDBRANCH  25  28
ENDBRANCH   1  25
TORSDOF 6
