REMARK  Name = ZINC08818466
REMARK  8 active torsions:
REMARK  status: ('A' for Active; 'I' for Inactive)
REMARK    1  A    between atoms: C_1  and  C_2
REMARK    2  A    between atoms: C_6  and  C_8
REMARK    3  A    between atoms: N_9  and  N_10
REMARK    4  A    between atoms: C_11  and  N_34
REMARK    5  A    between atoms: C_12  and  C_23
REMARK    6  A    between atoms: N_25  and  C_26
REMARK    7  A    between atoms: C_26  and  C_27
REMARK    8  A    between atoms: C_27  and  C_28
REMARK                            x       y       z     vdW  Elec       q    Type
REMARK                         _______ _______ _______ _____ _____    ______ ____
ROOT
ATOM      1  N   UNL     1       1.153  -2.038  -0.020  0.00  0.00    -0.198 N 
ATOM      2  C   UNL     1       1.181  -2.820   1.097  0.00  0.00    +0.134 A 
ATOM      3  C   UNL     1       1.190  -4.166   0.748  0.00  0.00    +0.105 A 
ATOM      4  C   UNL     1       1.177  -4.217  -0.723  0.00  0.00    +0.124 A 
ATOM      5  C   UNL     1       1.153  -2.818  -1.161  0.00  0.00    +0.183 A 
ATOM      6  N   UNL     1       1.137  -2.543  -2.448  0.00  0.00    -0.224 NA
ATOM      7  C   UNL     1       1.143  -3.539  -3.343  0.00  0.00    +0.092 A 
ATOM      8  C   UNL     1       1.126  -3.253  -4.721  0.00  0.00    +0.030 A 
ATOM      9  C   UNL     1       1.131  -4.271  -5.623  0.00  0.00    +0.002 A 
ATOM     10  C   UNL     1       1.153  -5.601  -5.204  0.00  0.00    +0.002 A 
ATOM     11  C   UNL     1       1.170  -5.916  -3.881  0.00  0.00    +0.030 A 
ATOM     12  C   UNL     1       1.165  -4.890  -2.917  0.00  0.00    +0.090 A 
ATOM     13  N   UNL     1       1.181  -5.189  -1.613  0.00  0.00    -0.241 NA
ENDROOT
BRANCH   3  14
ATOM     14  C   UNL     1       1.214  -5.306   1.662  0.00  0.00    +0.250 C 
ATOM     15  O   UNL     1       2.279  -5.766   2.033  0.00  0.00    -0.270 OA
ATOM     16  N   UNL     1       0.059  -5.847   2.095  0.00  0.00    -0.311 N 
ATOM     17  H   UNL     1      -0.789  -5.480   1.800  0.00  0.00    +0.149 HD
BRANCH  16  18
ATOM     18  C   UNL     1       0.083  -6.990   3.011  0.00  0.00    +0.109 C 
BRANCH  18  19
ATOM     19  C   UNL     1      -1.351  -7.407   3.344  0.00  0.00    +0.049 C 
BRANCH  19  20
ATOM     20  C   UNL     1      -1.327  -8.582   4.287  0.00  0.00    -0.072 C 
ATOM     21  C   UNL     1      -1.417  -8.345   5.556  0.00  0.00    -0.028 C 
ATOM     22  C   UNL     1      -1.397  -9.409   6.614  0.00  0.00    +0.027 C 
ATOM     23  C   UNL     1      -1.683 -10.777   5.991  0.00  0.00    +0.004 C 
ATOM     24  C   UNL     1      -0.770 -10.955   4.771  0.00  0.00    +0.005 C 
ATOM     25  C   UNL     1      -1.205  -9.956   3.695  0.00  0.00    +0.030 C 
ENDBRANCH  19  20
ENDBRANCH  18  19
ENDBRANCH  16  18
ENDBRANCH   3  14
BRANCH   2  26
ATOM     26  N   UNL     1       1.193  -2.345   2.384  0.00  0.00    -0.342 N 
ATOM     27  H   UNL     1       1.183  -1.389   2.548  0.00  0.00    +0.144 HD
ATOM     28  H   UNL     1       1.213  -2.965   3.129  0.00  0.00    +0.144 HD
ENDBRANCH   2  26
BRANCH   1  30
ATOM     29  C   UNL     1       0.002  -0.004   0.002  0.00  0.00    +0.141 C 
ATOM     30  N   UNL     1       1.134  -0.637  -0.012  0.00  0.00    -0.171 NA
BRANCH  29  36
ATOM     31  C   UNL     1      -2.558   4.276   0.047  0.00  0.00    +0.044 C 
ATOM     32  C   UNL     1      -1.246   3.535   0.032  0.00  0.00    -0.050 A 
ATOM     33  C   UNL     1      -0.056   4.240   0.025  0.00  0.00    +0.003 A 
ATOM     34  C   UNL     1       1.154   3.568   0.010  0.00  0.00    +0.001 A 
ATOM     35  C   UNL     1       1.180   2.189   0.003  0.00  0.00    +0.009 A 
ATOM     36  C   UNL     1      -0.018   1.471   0.010  0.00  0.00    -0.005 A 
ATOM     37  C   UNL     1      -1.235   2.156   0.020  0.00  0.00    +0.012 A 
ENDBRANCH  29  36
ENDBRANCH   1  30
TORSDOF 7
