REMARK  Name = ZINC63349326
REMARK  10 active torsions:
REMARK  status: ('A' for Active; 'I' for Inactive)
REMARK    1  A    between atoms: C_1  and  C_2
REMARK    2  A    between atoms: C_5  and  N_8
REMARK    3  A    between atoms: N_8  and  C_9
REMARK    4  A    between atoms: C_12  and  C_30
REMARK    5  A    between atoms: C_14  and  N_17
REMARK    6  A    between atoms: C_18  and  C_20
REMARK    7  A    between atoms: C_20  and  C_21
REMARK    8  A    between atoms: C_21  and  C_22
REMARK    9  A    between atoms: C_23  and  C_29
REMARK   10  A    between atoms: C_26  and  C_28
REMARK                            x       y       z     vdW  Elec       q    Type
REMARK                         _______ _______ _______ _____ _____    ______ ____
ROOT
ATOM      1  C   UNL     1       0.074  -4.907   1.244  0.00  0.00    +0.202 C 
ATOM      2  N   UNL     1      -0.179  -6.363   1.023  0.00  0.00    -0.277 NA
ATOM      3  C   UNL     1       0.308  -7.142   2.176  0.00  0.00    +0.173 C 
ATOM      4  C   UNL     1       1.756  -6.718   2.540  0.00  0.00    +0.160 C 
ATOM      5  S   UNL     1       1.772  -4.968   1.960  0.00  0.00    -0.099 S 
ATOM      6  H   UNL     1      -1.158  -6.538   0.856  0.00  0.00    +0.125 HD
ENDROOT
BRANCH   3   7
ATOM      7  C   UNL     1       0.293  -8.608   1.829  0.00  0.00    +0.230 C 
ATOM      8  O   UNL     1       0.247  -8.956   0.668  0.00  0.00    -0.274 OA
ATOM      9  N   UNL     1       0.330  -9.533   2.809  0.00  0.00    -0.328 N 
ATOM     10  H   UNL     1       0.367  -9.255   3.737  0.00  0.00    +0.145 HD
ATOM     11  H   UNL     1       0.320 -10.477   2.585  0.00  0.00    +0.145 HD
ENDBRANCH   3   7
BRANCH   4  12
ATOM     12  N   UNL     1       1.980  -6.796   3.986  0.00  0.00    -0.301 N 
ATOM     13  C   UNL     1       3.109  -7.356   4.463  0.00  0.00    +0.214 C 
ATOM     14  O   UNL     1       3.939  -7.794   3.696  0.00  0.00    -0.276 OA
ATOM     15  H   UNL     1       1.315  -6.445   4.599  0.00  0.00    +0.150 HD
BRANCH  13  16
ATOM     16  C   UNL     1       3.339  -7.436   5.950  0.00  0.00    +0.100 C 
BRANCH  16  17
ATOM     17  C   UNL     1       4.686  -8.110   6.222  0.00  0.00    +0.044 C 
BRANCH  17  18
ATOM     18  C   UNL     1       4.916  -8.191   7.709  0.00  0.00    -0.021 C 
ATOM     19  C   UNL     1       4.655  -9.212   8.528  0.00  0.00    +0.061 C 
ATOM     20  N   UNL     1       5.000  -8.909   9.799  0.00  0.00    -0.159 NA
ATOM     21  N   UNL     1       5.473  -7.780   9.945  0.00  0.00    -0.180 NA
ATOM     22  C   UNL     1       5.505  -7.131   8.623  0.00  0.00    +0.153 C 
ATOM     23  C   UNL     1       4.637  -5.871   8.621  0.00  0.00    +0.039 C 
ATOM     24  C   UNL     1       4.057 -10.526   8.093  0.00  0.00    +0.067 C 
ENDBRANCH  17  18
ENDBRANCH  16  17
ENDBRANCH  13  16
ENDBRANCH   4  12
BRANCH   1  25
ATOM     25  N   UNL     1       0.058  -4.167  -0.021  0.00  0.00    -0.320 N 
ATOM     26  H   UNL     1       0.060  -4.648  -0.864  0.00  0.00    +0.148 HD
BRANCH  25  31
ATOM     27  C   UNL     1      -0.018   1.503   0.010  0.00  0.00    +0.044 C 
ATOM     28  C   UNL     1       0.002  -0.004   0.002  0.00  0.00    -0.050 A 
ATOM     29  C   UNL     1       0.006  -0.687  -1.200  0.00  0.00    +0.005 A 
ATOM     30  C   UNL     1       0.024  -2.068  -1.212  0.00  0.00    +0.023 A 
ATOM     31  C   UNL     1       0.040  -2.771  -0.013  0.00  0.00    +0.029 A 
ATOM     32  C   UNL     1       0.036  -2.081   1.193  0.00  0.00    +0.023 A 
ATOM     33  C   UNL     1       0.023  -0.700   1.197  0.00  0.00    +0.005 A 
ENDBRANCH  25  31
ENDBRANCH   1  25
TORSDOF 7
