REMARK  Name = ZINC06894732
REMARK  6 active torsions:
REMARK  status: ('A' for Active; 'I' for Inactive)
REMARK    1  A    between atoms: C_1  and  C_2
REMARK    2  A    between atoms: C_2  and  O_3
REMARK    3  A    between atoms: O_3  and  C_4
REMARK    4  A    between atoms: C_7  and  C_10
REMARK    5  A    between atoms: C_10  and  N_11
REMARK    6  A    between atoms: C_12  and  C_14
REMARK                            x       y       z     vdW  Elec       q    Type
REMARK                         _______ _______ _______ _____ _____    ______ ____
ROOT
ATOM      1  C   UNL     1      -0.792   1.613  -1.211  0.00  0.00    +0.076 C 
ATOM      2  C   UNL     1      -0.095   1.270   0.119  0.00  0.00    -0.003 C 
ATOM      3  C   UNL     1      -1.009   1.819   1.229  0.00  0.00    -0.066 C 
ATOM      4  C   UNL     1      -0.153   2.623   2.224  0.00  0.00    -0.017 C 
ATOM      5  C   UNL     1      -0.597   4.093   2.050  0.00  0.00    -0.020 C 
ATOM      6  C   UNL     1      -1.228   4.100   0.635  0.00  0.00    -0.077 C 
ATOM      7  C   UNL     1      -2.078   2.348  -0.819  0.00  0.00    +0.052 C 
ATOM      8  C   UNL     1      -2.342   3.506  -1.742  0.00  0.00    -0.027 A 
ATOM      9  C   UNL     1      -1.635   4.645  -2.056  0.00  0.00    +0.004 A 
ATOM     10  C   UNL     1      -2.150   5.551  -2.966  0.00  0.00    +0.000 A 
ATOM     11  C   UNL     1      -3.375   5.309  -3.560  0.00  0.00    +0.002 A 
ATOM     12  C   UNL     1      -4.087   4.169  -3.249  0.00  0.00    +0.023 A 
ATOM     13  C   UNL     1      -3.576   3.252  -2.333  0.00  0.00    +0.036 A 
ATOM     14  N   UNL     1      -4.097   2.045  -1.863  0.00  0.00    -0.286 N 
ATOM     15  C   UNL     1      -3.280   1.451  -0.974  0.00  0.00    +0.212 C 
ATOM     16  O   UNL     1      -3.473   0.397  -0.406  0.00  0.00    -0.277 OA
ATOM     17  H   UNL     1      -4.949   1.678  -2.144  0.00  0.00    +0.155 HD
ATOM     18  N   UNL     1      -1.884   2.776   0.580  0.00  0.00    +0.394 N 
ATOM     19  H   UNL     1      -2.790   2.816   1.060  0.00  0.00    -0.079 HD
ENDROOT
BRANCH   1  21
ATOM     20  N   UNL     1      -0.041   2.520  -3.387  0.00  0.00    -0.311 N 
ATOM     21  C   UNL     1       0.087   2.509  -2.045  0.00  0.00    +0.216 C 
ATOM     22  O   UNL     1       0.909   3.221  -1.509  0.00  0.00    -0.276 OA
ATOM     23  H   UNL     1      -0.699   1.951  -3.816  0.00  0.00    +0.149 HD
BRANCH  20  24
ATOM     24  C   UNL     1       0.813   3.391  -4.197  0.00  0.00    +0.139 C 
BRANCH  24  28
ATOM     25  C   UNL     1      -0.154   2.891  -8.330  0.00  0.00    +0.121 A 
ATOM     26  C   UNL     1      -0.812   3.851  -7.573  0.00  0.00    +0.046 A 
ATOM     27  C   UNL     1      -0.497   4.010  -6.237  0.00  0.00    +0.009 A 
ATOM     28  C   UNL     1       0.472   3.215  -5.655  0.00  0.00    -0.030 A 
ATOM     29  C   UNL     1       1.133   2.262  -6.408  0.00  0.00    +0.009 A 
ATOM     30  C   UNL     1       0.818   2.094  -7.742  0.00  0.00    +0.046 A 
BRANCH  25  31
ATOM     31  O   UNL     1      -0.461   2.733  -9.644  0.00  0.00    -0.492 OA
BRANCH  31  33
ATOM     32  C   UNL     1      -0.223   1.696 -11.814  0.00  0.00    +0.048 C 
ATOM     33  C   UNL     1       0.256   1.726 -10.361  0.00  0.00    +0.225 C 
ENDBRANCH  31  33
ENDBRANCH  25  31
ENDBRANCH  24  28
ENDBRANCH  20  24
ENDBRANCH   1  21
TORSDOF 5
