REMARK  Name = ZINC14623729
REMARK  12 active torsions:
REMARK  status: ('A' for Active; 'I' for Inactive)
REMARK    1  A    between atoms: C_1  and  C_2
REMARK    2  A    between atoms: C_2  and  C_3
REMARK    3  A    between atoms: C_3  and  C_4
REMARK    4  A    between atoms: C_4  and  N_5
REMARK    5  A    between atoms: C_6  and  N_34
REMARK    6  A    between atoms: C_7  and  N_14
REMARK    7  A    between atoms: N_14  and  C_15
REMARK    8  A    between atoms: C_15  and  C_16
REMARK    9  A    between atoms: C_16  and  C_17
REMARK   10  A    between atoms: C_17  and  C_18
REMARK   11  A    between atoms: C_19  and  C_21
REMARK   12  A    between atoms: C_30  and  C_33
REMARK                            x       y       z     vdW  Elec       q    Type
REMARK                         _______ _______ _______ _____ _____    ______ ____
ROOT
ATOM      1  N   UNL     1      -0.701   0.972   1.334  0.00  0.00    -0.260 N 
ATOM      2  C   UNL     1      -1.800   0.243   1.612  0.00  0.00    +0.251 C 
ATOM      3  O   UNL     1      -2.115  -0.682   0.888  0.00  0.00    -0.270 OA
ENDROOT
BRANCH   2   4
ATOM      4  C   UNL     1      -2.619   0.566   2.795  0.00  0.00    +0.039 A 
ATOM      5  C   UNL     1      -2.700   1.886   3.248  0.00  0.00    +0.014 A 
ATOM      6  C   UNL     1      -3.468   2.185   4.351  0.00  0.00    +0.017 A 
ATOM      7  C   UNL     1      -4.159   1.178   5.012  0.00  0.00    +0.030 A 
ATOM      8  C   UNL     1      -4.085  -0.148   4.571  0.00  0.00    +0.048 A 
ATOM      9  C   UNL     1      -3.318  -0.446   3.456  0.00  0.00    +0.037 A 
ATOM     10  N   UNL     1      -4.766  -1.172   5.226  0.00  0.00    -0.284 N 
ATOM     11  C   UNL     1      -5.824  -1.032   6.019  0.00  0.00    +0.230 C 
ATOM     12  O   UNL     1      -6.310  -2.030   6.508  0.00  0.00    -0.274 OA
ATOM     13  C   UNL     1      -6.454   0.295   6.342  0.00  0.00    +0.134 C 
ATOM     14  S   UNL     1      -5.148   1.558   6.424  0.00  0.00    -0.111 S 
ATOM     15  C   UNL     1      -7.458   0.666   5.250  0.00  0.00    +0.029 C 
ATOM     16  H   UNL     1      -4.436  -2.074   5.090  0.00  0.00    +0.155 HD
ENDBRANCH   2   4
BRANCH   1  19
ATOM     17  N   UNL     1       0.247   3.066   4.200  0.00  0.00    -0.280 N 
ATOM     18  C   UNL     1      -0.063   1.951   3.458  0.00  0.00    +0.127 A 
ATOM     19  C   UNL     1      -0.383   2.097   2.123  0.00  0.00    +0.140 A 
ATOM     20  C   UNL     1      -0.392   3.389   1.565  0.00  0.00    +0.277 A 
ATOM     21  O   UNL     1      -0.675   3.548   0.389  0.00  0.00    -0.266 OA
ATOM     22  N   UNL     1      -0.085   4.449   2.337  0.00  0.00    -0.273 N 
ATOM     23  H   UNL     1      -0.090   5.368   1.941  0.00  0.00    +0.173 HD
ATOM     24  C   UNL     1       0.229   4.287   3.635  0.00  0.00    +0.331 A 
ATOM     25  O   UNL     1       0.502   5.261   4.309  0.00  0.00    -0.246 OA
BRANCH  18  26
ATOM     26  N   UNL     1      -0.050   0.704   4.037  0.00  0.00    -0.343 N 
ATOM     27  H   UNL     1      -0.169  -0.087   3.488  0.00  0.00    +0.144 HD
ATOM     28  H   UNL     1       0.078   0.616   4.994  0.00  0.00    +0.144 HD
ENDBRANCH  18  26
BRANCH  17  29
ATOM     29  C   UNL     1       0.593   2.925   5.617  0.00  0.00    +0.128 C 
BRANCH  29  30
ATOM     30  C   UNL     1      -0.677   3.019   6.464  0.00  0.00    +0.021 C 
BRANCH  30  32
ATOM     31  C   UNL     1      -1.586   2.965   8.790  0.00  0.00    +0.004 C 
ATOM     32  C   UNL     1      -0.316   2.871   7.943  0.00  0.00    -0.002 C 
ENDBRANCH  30  32
ENDBRANCH  29  30
ENDBRANCH  17  29
ENDBRANCH   1  19
BRANCH   1  33
ATOM     33  C   UNL     1       0.162   0.597   0.211  0.00  0.00    +0.114 C 
BRANCH  33  34
ATOM     34  C   UNL     1      -0.401   1.184  -1.084  0.00  0.00    +0.019 C 
BRANCH  34  35
ATOM     35  C   UNL     1       0.419   0.678  -2.272  0.00  0.00    -0.002 C 
ATOM     36  C   UNL     1      -0.144   1.265  -3.568  0.00  0.00    +0.004 C 
ENDBRANCH  34  35
ENDBRANCH  33  34
ENDBRANCH   1  33
TORSDOF 9
