REMARK  Name = ZINC65348434
REMARK  4 active torsions:
REMARK  status: ('A' for Active; 'I' for Inactive)
REMARK    1  A    between atoms: C_4  and  C_10
REMARK    2  A    between atoms: C_6  and  C_7
REMARK    3  A    between atoms: C_13  and  N_19
REMARK    4  A    between atoms: C_15  and  C_16
REMARK                            x       y       z     vdW  Elec       q    Type
REMARK                         _______ _______ _______ _____ _____    ______ ____
ROOT
ATOM      1  C   UNL     1       3.710  -0.675  -0.040  0.00  0.00    +0.015 A 
ATOM      2  C   UNL     1       4.078  -1.449  -1.137  0.00  0.00    +0.093 A 
ATOM      3  N   UNL     1       5.231  -2.084  -1.159  0.00  0.00    -0.349 N 
ATOM      4  C   UNL     1       6.088  -2.022  -0.152  0.00  0.00    +0.094 A 
ATOM      5  C   UNL     1       5.805  -1.273   0.985  0.00  0.00    +0.057 A 
ATOM      6  C   UNL     1       4.598  -0.576   1.053  0.00  0.00    +0.075 A 
ATOM      7  H   UNL     1       5.459  -2.616  -1.938  0.00  0.00    +0.167 HD
ENDROOT
BRANCH   1  11
ATOM      8  C   UNL     1      -0.017   1.395   0.010  0.00  0.00    +0.018 A 
ATOM      9  C   UNL     1       1.166   2.103   0.002  0.00  0.00    +0.040 A 
ATOM     10  C   UNL     1       2.379   1.436  -0.013  0.00  0.00    +0.131 A 
ATOM     11  C   UNL     1       2.411   0.037  -0.022  0.00  0.00    +0.020 A 
ATOM     12  C   UNL     1       1.222  -0.683  -0.014  0.00  0.00    +0.026 A 
ATOM     13  C   UNL     1       0.002  -0.004   0.002  0.00  0.00    +0.064 A 
ATOM     14  F   UNL     1       3.534   2.137  -0.021  0.00  0.00    -0.205 F 
BRANCH  13  15
ATOM     15  C   UNL     1      -1.264  -0.760   0.011  0.00  0.00    +0.387 C 
ATOM     16  O   UNL     1      -2.332  -0.164   0.024  0.00  0.00    -0.241 OA
ATOM     17  O   UNL     1      -1.246  -1.983   0.004  0.00  0.00    -0.241 OA
ENDBRANCH  13  15
ENDBRANCH   1  11
BRANCH   6  18
ATOM     18  C   UNL     1       4.256   0.237   2.238  0.00  0.00    +0.387 C 
ATOM     19  O   UNL     1       5.038   0.310   3.175  0.00  0.00    -0.241 OA
ATOM     20  O   UNL     1       3.191   0.837   2.282  0.00  0.00    -0.241 OA
ENDBRANCH   6  18
BRANCH   4  21
ATOM     21  N   UNL     1       7.290  -2.715  -0.233  0.00  0.00    -0.345 N 
ATOM     22  H   UNL     1       7.495  -3.240  -1.023  0.00  0.00    +0.144 HD
ATOM     23  H   UNL     1       7.924  -2.675   0.500  0.00  0.00    +0.144 HD
ENDBRANCH   4  21
TORSDOF 4
