REMARK  Name = ZINC17026686
REMARK  8 active torsions:
REMARK  status: ('A' for Active; 'I' for Inactive)
REMARK    1  A    between atoms: C_1  and  C_2
REMARK    2  A    between atoms: C_5  and  C_33
REMARK    3  A    between atoms: C_6  and  N_8
REMARK    4  A    between atoms: C_9  and  C_22
REMARK    5  A    between atoms: C_12  and  S_13
REMARK    6  A    between atoms: S_13  and  C_14
REMARK    7  A    between atoms: C_14  and  C_15
REMARK    8  A    between atoms: C_22  and  C_23
REMARK                            x       y       z     vdW  Elec       q    Type
REMARK                         _______ _______ _______ _____ _____    ______ ____
ROOT
ATOM      1  N   UNL     1       1.248  -5.498  -2.406  0.00  0.00    -0.274 N 
ATOM      2  C   UNL     1       1.270  -6.684  -1.721  0.00  0.00    +0.144 A 
ATOM      3  N   UNL     1       1.278  -6.397  -0.450  0.00  0.00    -0.133 NA
ATOM      4  N   UNL     1       1.268  -5.123  -0.284  0.00  0.00    -0.122 NA
ATOM      5  C   UNL     1       1.244  -4.520  -1.450  0.00  0.00    +0.196 A 
ENDROOT
BRANCH   1  11
ATOM      6  C   UNL     1       3.702  -4.939  -6.632  0.00  0.00    +0.044 C 
ATOM      7  C   UNL     1       2.407  -5.050  -5.870  0.00  0.00    -0.048 A 
ATOM      8  C   UNL     1       1.201  -4.979  -6.543  0.00  0.00    +0.004 A 
ATOM      9  C   UNL     1       0.011  -5.080  -5.847  0.00  0.00    +0.005 A 
ATOM     10  C   UNL     1       0.023  -5.252  -4.476  0.00  0.00    -0.026 A 
ATOM     11  C   UNL     1       1.232  -5.324  -3.798  0.00  0.00    +0.053 A 
ATOM     12  C   UNL     1       2.426  -5.216  -4.499  0.00  0.00    +0.030 A 
ATOM     13  C   UNL     1      -1.275  -5.363  -3.718  0.00  0.00    +0.046 C 
ENDBRANCH   1  11
BRANCH   5  14
ATOM     14  S   UNL     1       1.219  -2.780  -1.731  0.00  0.00    -0.081 S 
BRANCH  14  15
ATOM     15  C   UNL     1       1.227  -2.186  -0.021  0.00  0.00    +0.112 C 
BRANCH  15  16
ATOM     16  C   UNL     1       1.208  -0.679  -0.013  0.00  0.00    -0.037 A 
ATOM     17  C   UNL     1       0.002  -0.004   0.002  0.00  0.00    +0.007 A 
ATOM     18  C   UNL     1      -0.017   1.378   0.010  0.00  0.00    +0.038 A 
ATOM     19  C   UNL     1       1.173   2.086   0.002  0.00  0.00    +0.123 A 
ATOM     20  C   UNL     1       2.381   1.408  -0.013  0.00  0.00    +0.038 A 
ATOM     21  C   UNL     1       2.397   0.026  -0.020  0.00  0.00    +0.007 A 
ATOM     22  F   UNL     1       1.156   3.437   0.009  0.00  0.00    -0.205 F 
ENDBRANCH  15  16
ENDBRANCH  14  15
ENDBRANCH   5  14
BRANCH   2  23
ATOM     23  C   UNL     1       1.281  -8.065  -2.325  0.00  0.00    +0.130 C 
BRANCH  23  24
ATOM     24  C   UNL     1       2.705  -8.507  -2.541  0.00  0.00    +0.033 A 
ATOM     25  C   UNL     1       3.330  -9.260  -1.610  0.00  0.00    +0.091 A 
ATOM     26  C   UNL     1       4.668  -9.663  -1.835  0.00  0.00    +0.254 A 
ATOM     27  O   UNL     1       5.252 -10.343  -1.011  0.00  0.00    -0.268 OA
ATOM     28  N   UNL     1       5.290  -9.288  -2.971  0.00  0.00    -0.275 N 
ATOM     29  H   UNL     1       6.236  -9.568  -3.137  0.00  0.00    +0.173 HD
ATOM     30  C   UNL     1       4.644  -8.536  -3.882  0.00  0.00    +0.327 A 
ATOM     31  O   UNL     1       5.218  -8.205  -4.901  0.00  0.00    -0.247 OA
ATOM     32  N   UNL     1       3.370  -8.152  -3.683  0.00  0.00    -0.311 N 
ATOM     33  H   UNL     1       2.905  -7.601  -4.375  0.00  0.00    +0.170 HD
ENDBRANCH  23  24
ENDBRANCH   2  23
TORSDOF 6
