REMARK  Name = ZINC14468551
REMARK  6 active torsions:
REMARK  status: ('A' for Active; 'I' for Inactive)
REMARK    1  A    between atoms: C_1  and  C_2
REMARK    2  A    between atoms: C_2  and  O_4
REMARK    3  A    between atoms: O_4  and  C_5
REMARK    4  A    between atoms: C_8  and  C_13
REMARK    5  A    between atoms: C_10  and  O_11
REMARK    6  A    between atoms: O_11  and  C_12
REMARK                            x       y       z     vdW  Elec       q    Type
REMARK                         _______ _______ _______ _____ _____    ______ ____
ROOT
ATOM      1  C   UNL     1       3.524   3.437   0.565  0.00  0.00    +0.105 C 
ATOM      2  C   UNL     1       2.790   4.622  -0.066  0.00  0.00    +0.029 C 
ATOM      3  C   UNL     1       3.027   5.864   0.840  0.00  0.00    +0.033 C 
ATOM      4  C   UNL     1       1.999   5.701   1.942  0.00  0.00    -0.030 C 
ATOM      5  C   UNL     1       1.028   4.914   1.550  0.00  0.00    -0.023 C 
ATOM      6  C   UNL     1       1.272   4.435   0.138  0.00  0.00    +0.050 C 
ATOM      7  C   UNL     1       0.870   2.997  -0.010  0.00  0.00    +0.002 A 
ATOM      8  C   UNL     1       1.792   1.973  -0.136  0.00  0.00    +0.051 A 
ATOM      9  C   UNL     1       1.352   0.655  -0.261  0.00  0.00    +0.064 A 
ATOM     10  C   UNL     1       0.003   0.366  -0.265  0.00  0.00    +0.043 A 
ATOM     11  C   UNL     1      -0.919   1.391  -0.144  0.00  0.00    +0.061 A 
ATOM     12  C   UNL     1      -0.487   2.697  -0.017  0.00  0.00    +0.065 A 
ATOM     13 CL   UNL     1      -1.652   3.977   0.128  0.00  0.00    -0.082 Cl
ATOM     14 CL   UNL     1      -2.618   1.034  -0.151  0.00  0.00    -0.082 Cl
ATOM     15 CL   UNL     1       2.510  -0.629  -0.413  0.00  0.00    -0.082 Cl
ATOM     16  N   UNL     1       3.167   2.208  -0.145  0.00  0.00    -0.335 N 
ATOM     17  H   UNL     1       3.672   1.417   0.225  0.00  0.00    +0.147 HD
ENDROOT
BRANCH   1  21
ATOM     18  C   UNL     1       2.393   3.081   4.674  0.00  0.00    +0.173 A 
ATOM     19  C   UNL     1       1.798   2.276   3.716  0.00  0.00    +0.050 A 
ATOM     20  C   UNL     1       2.162   2.397   2.388  0.00  0.00    +0.009 A 
ATOM     21  C   UNL     1       3.127   3.313   2.013  0.00  0.00    -0.023 A 
ATOM     22  C   UNL     1       3.724   4.120   2.963  0.00  0.00    +0.055 A 
ATOM     23  C   UNL     1       3.360   4.008   4.296  0.00  0.00    +0.163 A 
BRANCH  23  24
ATOM     24  O   UNL     1       3.947   4.801   5.232  0.00  0.00    -0.491 OA
ATOM     25  C   UNL     1       4.931   5.729   4.771  0.00  0.00    +0.277 C 
ENDBRANCH  23  24
BRANCH  18  26
ATOM     26  O   UNL     1       2.033   2.967   5.980  0.00  0.00    -0.422 OA
BRANCH  26  28
ATOM     27  C   UNL     1       0.711   3.814   7.886  0.00  0.00    +0.136 C 
ATOM     28  C   UNL     1       1.080   3.802   6.425  0.00  0.00    +0.309 C 
ATOM     29  O   UNL     1       0.519   4.544   5.654  0.00  0.00    -0.251 OA
ENDBRANCH  26  28
ENDBRANCH  18  26
ENDBRANCH   1  21
TORSDOF 4
