REMARK  Name = ZINC09452151
REMARK  13 active torsions:
REMARK  status: ('A' for Active; 'I' for Inactive)
REMARK    1  A    between atoms: C_1  and  C_2
REMARK    2  A    between atoms: C_2  and  N_63
REMARK    3  A    between atoms: C_3  and  C_4
REMARK    4  A    between atoms: C_3  and  N_63
REMARK    5  A    between atoms: C_5  and  C_6
REMARK    6  A    between atoms: C_5  and  N_63
REMARK    7  A    between atoms: C_6  and  N_7
REMARK    8  A    between atoms: C_8  and  C_28
REMARK    9  A    between atoms: C_10  and  C_15
REMARK   10  A    between atoms: C_11  and  O_14
REMARK   11  A    between atoms: C_15  and  C_17
REMARK   12  A    between atoms: C_24  and  C_27
REMARK   13  A    between atoms: C_32  and  O_34
REMARK                            x       y       z     vdW  Elec       q    Type
REMARK                         _______ _______ _______ _____ _____    ______ ____
ROOT
ATOM      1  N   UNL     1      -5.011   0.784  -0.737  0.00  0.00    -0.285 N 
ATOM      2  C   UNL     1      -3.571   1.067  -0.745  0.00  0.00    +0.144 C 
ATOM      3  C   UNL     1      -3.434   2.544  -1.035  0.00  0.00    +0.071 C 
ATOM      4  C   UNL     1      -4.688   3.034  -1.168  0.00  0.00    +0.188 C 
ATOM      5  C   UNL     1      -5.660   1.935  -0.987  0.00  0.00    +0.282 C 
ATOM      6  O   UNL     1      -6.868   2.055  -1.051  0.00  0.00    -0.267 OA
ENDROOT
BRANCH   2   7
ATOM      7  C   UNL     1      -2.891   0.263  -1.823  0.00  0.00    -0.019 A 
ATOM      8  C   UNL     1      -3.479   0.140  -3.069  0.00  0.00    +0.006 A 
ATOM      9  C   UNL     1      -2.855  -0.592  -4.061  0.00  0.00    +0.004 A 
ATOM     10  C   UNL     1      -1.647  -1.213  -3.807  0.00  0.00    +0.045 A 
ATOM     11  C   UNL     1      -1.058  -1.096  -2.557  0.00  0.00    +0.117 A 
ATOM     12  C   UNL     1      -1.683  -0.356  -1.564  0.00  0.00    +0.051 A 
BRANCH  11  13
ATOM     13  O   UNL     1       0.130  -1.706  -2.305  0.00  0.00    -0.507 OA
ATOM     14  H   UNL     1       0.045  -2.606  -1.962  0.00  0.00    +0.292 HD
ENDBRANCH  11  13
ENDBRANCH   2   7
BRANCH   4  15
ATOM     15  O   UNL     1      -5.003   4.324  -1.428  0.00  0.00    -0.502 OA
ATOM     16  H   UNL     1      -5.997   4.421  -1.478  0.00  0.00    +0.292 HD
ENDBRANCH   4  15
BRANCH   3  17
ATOM     17  C   UNL     1      -2.183   3.302  -1.143  0.00  0.00    +0.195 C 
ATOM     18  O   UNL     1      -1.851   3.777  -2.213  0.00  0.00    -0.287 OA
BRANCH  17  19
ATOM     19  C   UNL     1      -1.327   3.487   0.045  0.00  0.00    +0.023 A 
ATOM     20  C   UNL     1      -1.737   3.005   1.292  0.00  0.00    +0.015 A 
ATOM     21  C   UNL     1      -0.940   3.180   2.397  0.00  0.00    +0.046 A 
ATOM     22  C   UNL     1       0.290   3.833   2.286  0.00  0.00    +0.124 A 
ATOM     23  C   UNL     1       0.693   4.311   1.042  0.00  0.00    -0.002 A 
ATOM     24  C   UNL     1      -0.096   4.143  -0.068  0.00  0.00    +0.019 A 
ATOM     25  C   UNL     1       2.043   4.975   1.238  0.00  0.00    +0.083 C 
ATOM     26  C   UNL     1       2.097   5.137   2.776  0.00  0.00    +0.175 C 
ATOM     27  O   UNL     1       1.225   4.093   3.239  0.00  0.00    -0.488 OA
ATOM     28  C   UNL     1       1.568   6.510   3.195  0.00  0.00    +0.052 C 
ENDBRANCH  17  19
ENDBRANCH   3  17
BRANCH   1  29
ATOM     29  C   UNL     1      -5.631  -0.522  -0.498  0.00  0.00    +0.090 C 
BRANCH  29  30
ATOM     30  C   UNL     1      -5.894  -0.695   0.999  0.00  0.00    -0.060 C 
BRANCH  30  31
ATOM     31  N   UNL     1      -6.499  -2.024   1.226  0.00  0.00    +0.380 N 
ATOM     32  H   UNL     1      -5.917  -2.738   0.773  0.00  0.00    -0.082 HD
BRANCH  31  34
ATOM     33  C   UNL     1      -5.172  -2.706   3.162  0.00  0.00    -0.017 C 
ATOM     34  C   UNL     1      -6.567  -2.308   2.675  0.00  0.00    -0.082 C 
ENDBRANCH  31  34
BRANCH  31  35
ATOM     35  C   UNL     1      -7.855  -2.068   0.639  0.00  0.00    -0.082 C 
ATOM     36  C   UNL     1      -8.312  -3.527   0.566  0.00  0.00    -0.017 C 
ENDBRANCH  31  35
ENDBRANCH  30  31
ENDBRANCH  29  30
ENDBRANCH   1  29
TORSDOF 10
