REMARK  Name = ZINC02151292
REMARK  10 active torsions:
REMARK  status: ('A' for Active; 'I' for Inactive)
REMARK    1  A    between atoms: C_1  and  C_2
REMARK    2  A    between atoms: C_2  and  O_3
REMARK    3  A    between atoms: O_3  and  C_4
REMARK    4  A    between atoms: C_4  and  C_6
REMARK    5  A    between atoms: C_11  and  O_12
REMARK    6  A    between atoms: O_12  and  C_13
REMARK    7  A    between atoms: C_13  and  C_14
REMARK    8  A    between atoms: C_16  and  C_22
REMARK    9  A    between atoms: C_19  and  O_20
REMARK   10  A    between atoms: O_20  and  C_21
REMARK                            x       y       z     vdW  Elec       q    Type
REMARK                         _______ _______ _______ _____ _____    ______ ____
ROOT
ATOM      1  C   UNL     1      -1.425   3.409   2.465  0.00  0.00    +0.031 A 
ATOM      2  C   UNL     1      -1.531   4.776   2.627  0.00  0.00    +0.013 A 
ATOM      3  C   UNL     1      -1.003   5.630   1.677  0.00  0.00    -0.055 A 
ATOM      4  C   UNL     1      -0.368   5.117   0.561  0.00  0.00    +0.006 A 
ATOM      5  C   UNL     1      -0.253   3.751   0.396  0.00  0.00    +0.046 A 
ATOM      6  C   UNL     1      -0.787   2.892   1.346  0.00  0.00    +0.126 A 
ENDROOT
BRANCH   3   7
ATOM      7  C   UNL     1      -1.120   7.122   1.857  0.00  0.00    +0.007 C 
ATOM      8  C   UNL     1      -2.253   7.647   1.008  0.00  0.00    +0.010 A 
ATOM      9  C   UNL     1      -2.157   8.775   0.268  0.00  0.00    -0.022 A 
ATOM     10  C   UNL     1      -3.425   8.956  -0.402  0.00  0.00    +0.003 A 
ATOM     11  C   UNL     1      -3.904   9.930  -1.284  0.00  0.00    +0.010 A 
ATOM     12  C   UNL     1      -5.193   9.782  -1.733  0.00  0.00    +0.001 A 
ATOM     13  C   UNL     1      -5.993   8.722  -1.338  0.00  0.00    +0.002 A 
ATOM     14  C   UNL     1      -5.545   7.743  -0.467  0.00  0.00    +0.026 A 
ATOM     15  C   UNL     1      -4.240   7.868   0.005  0.00  0.00    +0.047 A 
ATOM     16  N   UNL     1      -3.498   7.099   0.856  0.00  0.00    -0.359 N 
ATOM     17  H   UNL     1      -3.807   6.287   1.288  0.00  0.00    +0.166 HD
ATOM     18  C   UNL     1      -0.916   9.630   0.212  0.00  0.00    +0.018 C 
ATOM     19  C   UNL     1      -0.014   9.234   1.388  0.00  0.00    -0.076 C 
ATOM     20  N   UNL     1       0.141   7.764   1.426  0.00  0.00    +0.387 N 
ATOM     21  H   UNL     1       0.389   7.427   0.489  0.00  0.00    -0.084 HD
ATOM     22  H   UNL     1       0.887   7.520   2.087  0.00  0.00    -0.084 HD
ENDBRANCH   3   7
BRANCH   6  23
ATOM     23  O   UNL     1      -0.682   1.547   1.184  0.00  0.00    -0.495 OA
ATOM     24  C   UNL     1      -0.013   1.086   0.008  0.00  0.00    +0.277 C 
ENDBRANCH   6  23
BRANCH   1  25
ATOM     25  C   UNL     1      -2.000   2.479   3.502  0.00  0.00    +0.268 C 
BRANCH  25  26
ATOM     26  O   UNL     1      -2.599   3.245   4.548  0.00  0.00    -0.486 OA
BRANCH  26  32
ATOM     27  C   UNL     1      -3.775   3.240   6.630  0.00  0.00    +0.101 A 
ATOM     28  C   UNL     1      -4.357   2.518   7.676  0.00  0.00    +0.018 A 
ATOM     29  C   UNL     1      -4.331   1.141   7.657  0.00  0.00    +0.001 A 
ATOM     30  C   UNL     1      -3.730   0.467   6.605  0.00  0.00    +0.004 A 
ATOM     31  C   UNL     1      -3.156   1.168   5.563  0.00  0.00    +0.046 A 
ATOM     32  C   UNL     1      -3.168   2.555   5.569  0.00  0.00    +0.135 A 
BRANCH  27  33
ATOM     33  C   UNL     1      -3.799   4.714   6.644  0.00  0.00    +0.343 C 
ATOM     34  O   UNL     1      -3.292   5.339   5.733  0.00  0.00    -0.245 OA
BRANCH  33  35
ATOM     35  O   UNL     1      -4.383   5.369   7.666  0.00  0.00    -0.461 OA
BRANCH  35  37
ATOM     36  C   UNL     1      -5.074   7.382   8.850  0.00  0.00    +0.048 C 
ATOM     37  C   UNL     1      -4.370   6.820   7.614  0.00  0.00    +0.229 C 
ENDBRANCH  35  37
ENDBRANCH  33  35
ENDBRANCH  27  33
ENDBRANCH  26  32
ENDBRANCH  25  26
ENDBRANCH   1  25
TORSDOF 8
