REMARK  Name = ZINC39692340
REMARK  12 active torsions:
REMARK  status: ('A' for Active; 'I' for Inactive)
REMARK    1  A    between atoms: C_1  and  O_2
REMARK    2  A    between atoms: O_2  and  C_3
REMARK    3  A    between atoms: C_8  and  C_9
REMARK    4  A    between atoms: C_13  and  S_19
REMARK    5  A    between atoms: N_15  and  C_16
REMARK    6  A    between atoms: C_16  and  C_17
REMARK    7  A    between atoms: S_19  and  C_20
REMARK    8  A    between atoms: C_20  and  C_21
REMARK    9  A    between atoms: N_23  and  CA_24
REMARK   10  A    between atoms: CA_24  and  CB_26
REMARK   11  A    between atoms: CA_24  and  C_36
REMARK   12  A    between atoms: CB_26  and  CG_27
REMARK                            x       y       z     vdW  Elec       q    Type
REMARK                         _______ _______ _______ _____ _____    ______ ____
ROOT
ATOM      1  S   UNK A   0       1.672  -5.551   2.105  0.00  0.00    -0.150 S 
ENDROOT
BRANCH   1   5
ATOM      2  C   UNK A   0       0.150  -2.794  -0.138  0.00  0.00    +0.053 C 
ATOM      3  N   UNK A   0       0.449  -2.200   1.192  0.00  0.00    -0.266 NA
ATOM      4  N   UNK A   0       0.197  -3.286   2.143  0.00  0.00    -0.262 NA
ATOM      5  C   UNK A   0       0.336  -4.552   1.395  0.00  0.00    +0.078 C 
ATOM      6  N   UNK A   0       0.660  -4.184  -0.005  0.00  0.00    +0.413 N 
ATOM      7  H   UNK A   0       1.407  -1.890   1.242  0.00  0.00    +0.139 HD
ATOM      8  H   UNK A   0      -0.723  -3.205   2.549  0.00  0.00    +0.140 HD
ATOM      9  H   UNK A   0       1.658  -4.210  -0.153  0.00  0.00    -0.075 HD
BRANCH   2  15
ATOM     10  C   UNK A   0       0.909  -0.671  -1.235  0.00  0.00    +0.123 A 
ATOM     11  C   UNK A   0       1.591   0.004  -2.237  0.00  0.00    +0.046 A 
ATOM     12  C   UNK A   0       2.240  -0.706  -3.228  0.00  0.00    +0.004 A 
ATOM     13  C   UNK A   0       2.211  -2.089  -3.222  0.00  0.00    +0.000 A 
ATOM     14  C   UNK A   0       1.532  -2.763  -2.225  0.00  0.00    +0.007 A 
ATOM     15  C   UNK A   0       0.885  -2.058  -1.228  0.00  0.00    -0.004 A 
BRANCH  10  17
ATOM     16  C   UNK A   0       0.336   1.452  -0.330  0.00  0.00    +0.277 C 
ATOM     17  O   UNK A   0       0.270   0.026  -0.259  0.00  0.00    -0.495 OA
ENDBRANCH  10  17
ENDBRANCH   2  15
BRANCH   6  18
ATOM     18  C   UNK A   0      -0.026  -5.077  -0.949  0.00  0.00    -0.045 C 
BRANCH  18  19
ATOM     19  C   UNK A   0       0.609  -6.442  -0.901  0.00  0.00    -0.053 C 
ATOM     20  C   UNK A   0      -0.126  -7.499  -0.661  0.00  0.00    +0.002 C 
ENDBRANCH  18  19
ENDBRANCH   6  18
ENDBRANCH   1   5
BRANCH   1  21
ATOM     21  C   UNK A   0       3.134  -4.484   1.977  0.00  0.00    +0.164 C 
BRANCH  21  22
ATOM     22  C   UNK A   0       4.332  -5.204   2.541  0.00  0.00    +0.223 C 
ATOM     23  O   UNK A   0       4.212  -6.326   2.985  0.00  0.00    -0.275 OA
ATOM     24  N   TRP A   1       5.537  -4.601   2.551  0.00  0.00    -0.301 N 
ATOM     25  H   TRP A   1       5.633  -3.703   2.195  0.00  0.00    +0.150 HD
BRANCH  24  26
ATOM     26  CA  TRP A   1       6.702  -5.301   3.098  0.00  0.00    +0.191 C 
BRANCH  26  27
ATOM     27  C   TRP A   1       6.751  -5.102   4.591  0.00  0.00    +0.376 C 
ATOM     28  O   TRP A   1       7.239  -5.962   5.305  0.00  0.00    -0.244 OA
ATOM     29  OXT TRP A   1       6.303  -4.082   5.086  0.00  0.00    -0.244 OA
ENDBRANCH  26  27
BRANCH  26  30
ATOM     30  CB  TRP A   1       7.977  -4.739   2.467  0.00  0.00    +0.071 C 
BRANCH  30  31
ATOM     31  CG  TRP A   1       7.985  -5.046   0.992  0.00  0.00    -0.020 A 
ATOM     32  CD2 TRP A   1       7.347  -4.258  -0.066  0.00  0.00    +0.003 A 
ATOM     33  CE3 TRP A   1       6.595  -3.082  -0.080  0.00  0.00    +0.010 A 
ATOM     34  CZ3 TRP A   1       6.129  -2.589  -1.267  0.00  0.00    +0.001 A 
ATOM     35  CH2 TRP A   1       6.397  -3.248  -2.458  0.00  0.00    +0.002 A 
ATOM     36  CZ2 TRP A   1       7.138  -4.411  -2.467  0.00  0.00    +0.026 A 
ATOM     37  CE2 TRP A   1       7.622  -4.930  -1.271  0.00  0.00    +0.047 A 
ATOM     38  NE1 TRP A   1       8.371  -6.041  -0.955  0.00  0.00    -0.360 N 
ATOM     39  CD1 TRP A   1       8.582  -6.090   0.397  0.00  0.00    +0.087 A 
ATOM     40  HE1 TRP A   1       8.704  -6.690  -1.595  0.00  0.00    +0.165 HD
ENDBRANCH  30  31
ENDBRANCH  26  30
ENDBRANCH  24  26
ENDBRANCH  21  22
ENDBRANCH   1  21
TORSDOF 11
