REMARK  Name = ZINC20569008
REMARK  13 active torsions:
REMARK  status: ('A' for Active; 'I' for Inactive)
REMARK    1  A    between atoms: C_1  and  C_2
REMARK    2  A    between atoms: C_3  and  C_26
REMARK    3  A    between atoms: C_12  and  N_21
REMARK    4  A    between atoms: C_13  and  C_14
REMARK    5  A    between atoms: C_14  and  O_16
REMARK    6  A    between atoms: O_16  and  C_17
REMARK    7  A    between atoms: C_17  and  C_18
REMARK    8  A    between atoms: C_18  and  O_19
REMARK    9  A    between atoms: O_19  and  C_20
REMARK   10  A    between atoms: C_26  and  O_28
REMARK   11  A    between atoms: O_28  and  C_29
REMARK   12  A    between atoms: C_29  and  C_30
REMARK   13  A    between atoms: C_29  and  C_31
REMARK                            x       y       z     vdW  Elec       q    Type
REMARK                         _______ _______ _______ _____ _____    ______ ____
ROOT
ATOM      1  C   UNL     1       1.155   5.490  -1.845  0.00  0.00    +0.087 C 
ATOM      2  C   UNL     1       0.351   4.700  -0.845  0.00  0.00    +0.117 C 
ATOM      3  C   UNL     1      -0.770   4.026  -1.156  0.00  0.00    +0.100 C 
ATOM      4  C   UNL     1      -1.236   3.390   0.136  0.00  0.00    +0.164 C 
ATOM      5  C   UNL     1      -2.586   3.922   0.518  0.00  0.00    +0.001 A 
ATOM      6  C   UNL     1      -2.703   5.218   0.989  0.00  0.00    +0.022 A 
ATOM      7  C   UNL     1      -3.941   5.721   1.343  0.00  0.00    +0.018 A 
ATOM      8  C   UNL     1      -5.072   4.931   1.229  0.00  0.00    +0.017 A 
ATOM      9  C   UNL     1      -4.963   3.637   0.760  0.00  0.00    +0.024 A 
ATOM     10  C   UNL     1      -3.720   3.129   0.404  0.00  0.00    +0.037 A 
ATOM     11  N   UNL     1      -3.617   1.817  -0.067  0.00  0.00    -0.302 N 
ATOM     12  C   UNL     1      -2.403   1.183  -0.090  0.00  0.00    +0.097 C 
ATOM     13  C   UNL     1      -1.236   1.898   0.014  0.00  0.00    +0.098 C 
ATOM     14 BR   UNL     1      -4.090   7.494   1.985  0.00  0.00    -0.050 Br
ATOM     15  C   UNL     1      -0.196   3.837   1.141  0.00  0.00    +0.332 C 
ATOM     16  O   UNL     1      -0.156   3.570   2.318  0.00  0.00    -0.249 OA
ATOM     17  O   UNL     1       0.674   4.593   0.450  0.00  0.00    -0.429 OA
ATOM     18  H   UNL     1      -4.513   1.288  -0.422  0.00  0.00    +0.153 HD
ENDROOT
BRANCH  12  19
ATOM     19  N   UNL     1      -2.353  -0.181  -0.214  0.00  0.00    -0.346 N 
ATOM     20  H   UNL     1      -1.381  -0.697  -0.233  0.00  0.00    +0.143 HD
ATOM     21  H   UNL     1      -3.284  -0.761  -0.293  0.00  0.00    +0.143 HD
ENDBRANCH  12  19
BRANCH  13  22
ATOM     22  C   UNL     1      -0.014   1.215   0.001  0.00  0.00    +0.340 C 
ATOM     23  O   UNL     1       0.653   1.181  -1.018  0.00  0.00    -0.245 OA
BRANCH  22  24
ATOM     24  O   UNL     1       0.427   0.599   1.119  0.00  0.00    -0.459 OA
BRANCH  24  25
ATOM     25  C   UNL     1       1.685  -0.074   1.035  0.00  0.00    +0.260 C 
BRANCH  25  26
ATOM     26  C   UNL     1       2.017  -0.707   2.388  0.00  0.00    +0.200 C 
BRANCH  26  27
ATOM     27  O   UNL     1       1.061  -1.728   2.683  0.00  0.00    -0.380 OA
ATOM     28  C   UNL     1       1.280  -2.386   3.932  0.00  0.00    +0.194 C 
ENDBRANCH  26  27
ENDBRANCH  25  26
ENDBRANCH  24  25
ENDBRANCH  22  24
ENDBRANCH  13  22
BRANCH   3  29
ATOM     29  C   UNL     1      -1.386   3.930  -2.429  0.00  0.00    +0.340 C 
ATOM     30  O   UNL     1      -0.896   4.498  -3.386  0.00  0.00    -0.245 OA
BRANCH  29  31
ATOM     31  O   UNL     1      -2.516   3.208  -2.578  0.00  0.00    -0.459 OA
BRANCH  31  32
ATOM     32  C   UNL     1      -3.083   3.155  -3.889  0.00  0.00    +0.171 C 
ATOM     33  C   UNL     1      -3.813   1.823  -4.075  0.00  0.00    +0.052 C 
ATOM     34  C   UNL     1      -4.072   4.308  -4.064  0.00  0.00    +0.052 C 
ENDBRANCH  31  32
ENDBRANCH  29  31
ENDBRANCH   3  29
TORSDOF 9
