REMARK  Name = ZINC40784065
REMARK  4 active torsions:
REMARK  status: ('A' for Active; 'I' for Inactive)
REMARK    1  A    between atoms: C_14  and  N_28
REMARK    2  A    between atoms: C_15  and  N_19
REMARK    3  A    between atoms: N_19  and  C_20
REMARK    4  A    between atoms: C_20  and  C_21
REMARK                            x       y       z     vdW  Elec       q    Type
REMARK                         _______ _______ _______ _____ _____    ______ ____
ROOT
ATOM      1  C   UNL     1       2.353   1.421   2.396  0.00  0.00    +0.005 A 
ATOM      2  C   UNL     1       2.361   2.079   1.173  0.00  0.00    +0.018 A 
ATOM      3  C   UNL     1       2.402   1.341   0.008  0.00  0.00    +0.084 A 
ATOM      4  N   UNL     1       2.433   0.022   0.043  0.00  0.00    -0.350 N 
ATOM      5  C   UNL     1       2.427  -0.642   1.189  0.00  0.00    +0.099 A 
ATOM      6  C   UNL     1       2.387   0.039   2.402  0.00  0.00    +0.042 A 
ATOM      7  N   UNL     1       2.461  -2.032   1.179  0.00  0.00    -0.314 N 
ATOM      8  C   UNL     1       2.586  -2.785   2.435  0.00  0.00    +0.125 C 
ATOM      9  C   UNL     1       1.420  -3.777   2.530  0.00  0.00    +0.125 C 
ATOM     10  N   UNL     1       1.330  -4.519   1.264  0.00  0.00    -0.311 N 
ATOM     11  C   UNL     1       1.205  -3.765   0.009  0.00  0.00    +0.125 C 
ATOM     12  C   UNL     1       2.365  -2.774  -0.086  0.00  0.00    +0.125 C 
ATOM     13  C   UNL     1       1.364  -5.908   1.255  0.00  0.00    +0.147 A 
ATOM     14  C   UNL     1       0.178  -6.646   1.250  0.00  0.00    +0.105 A 
ATOM     15  C   UNL     1       0.269  -8.039   1.240  0.00  0.00    +0.145 A 
ATOM     16  N   UNL     1       1.473  -8.606   1.236  0.00  0.00    -0.219 NA
ATOM     17  C   UNL     1       2.567  -7.873   1.242  0.00  0.00    +0.225 A 
ATOM     18  N   UNL     1       2.526  -6.556   1.246  0.00  0.00    -0.219 NA
ATOM     19  H   UNL     1       2.462  -0.473  -0.790  0.00  0.00    +0.166 HD
ENDROOT
BRANCH  14  20
ATOM     20  N   UNL     1      -1.071  -6.004   1.254  0.00  0.00    -0.353 N 
ATOM     21  H   UNL     1      -1.120  -5.038   1.188  0.00  0.00    +0.143 HD
ATOM     22  H   UNL     1      -1.885  -6.527   1.325  0.00  0.00    +0.143 HD
ENDBRANCH  14  20
BRANCH  15  23
ATOM     23  N   UNL     1      -0.880  -8.820   1.235  0.00  0.00    -0.323 N 
ATOM     24  H   UNL     1      -1.754  -8.399   1.238  0.00  0.00    +0.148 HD
BRANCH  23  25
ATOM     25  C   UNL     1      -0.772 -10.281   1.224  0.00  0.00    +0.138 C 
BRANCH  25  26
ATOM     26  C   UNL     1      -2.152 -10.887   1.220  0.00  0.00    -0.030 A 
ATOM     27  C   UNL     1      -2.786 -11.168   2.416  0.00  0.00    +0.006 A 
ATOM     28  C   UNL     1      -4.052 -11.724   2.413  0.00  0.00    +0.020 A 
ATOM     29  C   UNL     1      -4.683 -11.999   1.213  0.00  0.00    +0.041 A 
ATOM     30  C   UNL     1      -4.048 -11.718   0.017  0.00  0.00    +0.020 A 
ATOM     31  C   UNL     1      -2.784 -11.157   0.021  0.00  0.00    +0.006 A 
ATOM     32 CL   UNL     1      -6.273 -12.698   1.209  0.00  0.00    -0.084 Cl
ENDBRANCH  25  26
ENDBRANCH  23  25
ENDBRANCH  15  23
TORSDOF 4
