REMARK  Name = ZINC40822099
REMARK  9 active torsions:
REMARK  status: ('A' for Active; 'I' for Inactive)
REMARK    1  A    between atoms: C_1  and  C_2
REMARK    2  A    between atoms: C_2  and  O_3
REMARK    3  A    between atoms: O_3  and  C_4
REMARK    4  A    between atoms: C_4  and  C_6
REMARK    5  A    between atoms: C_7  and  C_29
REMARK    6  A    between atoms: N_15  and  N_16
REMARK    7  A    between atoms: C_17  and  C_19
REMARK    8  A    between atoms: C_19  and  O_20
REMARK    9  A    between atoms: O_20  and  C_21
REMARK                            x       y       z     vdW  Elec       q    Type
REMARK                         _______ _______ _______ _____ _____    ______ ____
ROOT
ATOM      1  C   UNL     1       1.449  -2.345  -2.517  0.00  0.00    +0.215 A 
ATOM      2  C   UNL     1       1.617  -3.672  -2.800  0.00  0.00    +0.011 A 
ATOM      3  C   UNL     1       2.307  -3.728  -4.017  0.00  0.00    +0.042 A 
ATOM      4  C   UNL     1       2.533  -2.434  -4.424  0.00  0.00    +0.115 A 
ATOM      5  O   UNL     1       2.005  -1.619  -3.515  0.00  0.00    -0.452 OA
ATOM      6  C   UNL     1       3.260  -2.090  -5.699  0.00  0.00    +0.075 C 
ATOM      7  C   UNL     1       4.106  -3.288  -6.141  0.00  0.00    +0.014 C 
ATOM      8  C   UNL     1       3.249  -4.556  -6.219  0.00  0.00    +0.058 C 
ATOM      9  C   UNL     1       2.762  -4.888  -4.816  0.00  0.00    +0.070 C 
ATOM     10  N   UNL     1       2.746  -6.101  -4.354  0.00  0.00    -0.184 NA
ATOM     11  C   UNL     1       1.153  -4.840  -1.969  0.00  0.00    +0.048 C 
ENDROOT
BRANCH  10  12
ATOM     12  N   UNL     1       3.189  -7.161  -5.155  0.00  0.00    -0.204 N 
ATOM     13  C   UNL     1       3.173  -8.421  -4.675  0.00  0.00    +0.270 C 
ATOM     14  O   UNL     1       2.775  -8.636  -3.549  0.00  0.00    -0.270 OA
ATOM     15  H   UNL     1       3.507  -6.989  -6.055  0.00  0.00    +0.177 HD
BRANCH  13  16
ATOM     16  C   UNL     1       3.649  -9.561  -5.537  0.00  0.00    +0.326 C 
BRANCH  16  17
ATOM     17  O   UNL     1       3.536 -10.787  -4.810  0.00  0.00    -0.481 OA
BRANCH  17  18
ATOM     18  C   UNL     1       3.927 -11.921  -5.449  0.00  0.00    +0.140 A 
ATOM     19  C   UNL     1       4.415 -11.855  -6.745  0.00  0.00    +0.048 A 
ATOM     20  C   UNL     1       4.812 -13.010  -7.393  0.00  0.00    +0.023 A 
ATOM     21  C   UNL     1       4.723 -14.231  -6.749  0.00  0.00    +0.043 A 
ATOM     22  C   UNL     1       4.236 -14.300  -5.456  0.00  0.00    +0.043 A 
ATOM     23  C   UNL     1       3.843 -13.147  -4.802  0.00  0.00    +0.084 A 
ATOM     24 CL   UNL     1       3.239 -13.232  -3.177  0.00  0.00    -0.080 Cl
ATOM     25 CL   UNL     1       5.221 -15.680  -7.565  0.00  0.00    -0.083 Cl
ENDBRANCH  17  18
ENDBRANCH  16  17
ENDBRANCH  13  16
ENDBRANCH  10  12
BRANCH   1  26
ATOM     26  C   UNL     1       0.776  -1.800  -1.335  0.00  0.00    +0.375 C 
ATOM     27  O   UNL     1       0.312  -2.552  -0.499  0.00  0.00    -0.241 OA
BRANCH  26  28
ATOM     28  O   UNL     1       0.671  -0.465  -1.174  0.00  0.00    -0.459 OA
BRANCH  28  30
ATOM     29  C   UNL     1      -0.019   1.526   0.010  0.00  0.00    +0.048 C 
ATOM     30  C   UNL     1       0.002  -0.004   0.002  0.00  0.00    +0.229 C 
ENDBRANCH  28  30
ENDBRANCH  26  28
ENDBRANCH   1  26
TORSDOF 7
