REMARK  Name = ZINC10040261
REMARK  10 active torsions:
REMARK  status: ('A' for Active; 'I' for Inactive)
REMARK    1  A    between atoms: C_1  and  C_2
REMARK    2  A    between atoms: C_2  and  C_3
REMARK    3  A    between atoms: C_2  and  C_4
REMARK    4  A    between atoms: C_4  and  C_6
REMARK    5  A    between atoms: C_4  and  N_21
REMARK    6  A    between atoms: N_8  and  N_9
REMARK    7  A    between atoms: N_9  and  C_10
REMARK    8  A    between atoms: C_15  and  O_18
REMARK    9  A    between atoms: O_18  and  C_19
REMARK   10  A    between atoms: C_22  and  C_24
REMARK                            x       y       z     vdW  Elec       q    Type
REMARK                         _______ _______ _______ _____ _____    ______ ____
ROOT
ATOM      1  C   UNL     1      -2.125  -0.137  -1.266  0.00  0.00    +0.250 C 
ATOM      2  O   UNL     1      -3.122   0.552  -1.228  0.00  0.00    -0.272 OA
ATOM      3  N   UNL     1      -1.635  -0.549  -2.452  0.00  0.00    -0.235 N 
ATOM      4  H   UNL     1      -0.837  -1.100  -2.483  0.00  0.00    +0.173 HD
ENDROOT
BRANCH   3   5
ATOM      5  N   UNL     1      -2.277  -0.180  -3.642  0.00  0.00    -0.271 N 
ATOM      6  H   UNL     1      -3.075   0.371  -3.611  0.00  0.00    +0.169 HD
BRANCH   5   7
ATOM      7  C   UNL     1      -1.790  -0.590  -4.823  0.00  0.00    +0.099 C 
ATOM      8  C   UNL     1      -2.430  -0.223  -6.008  0.00  0.00    +0.042 C 
ATOM      9  C   UNL     1      -3.591   0.586  -5.981  0.00  0.00    +0.033 C 
ATOM     10  C   UNL     1      -4.201   0.934  -7.144  0.00  0.00    +0.045 C 
ATOM     11  C   UNL     1      -3.711   0.513  -8.379  0.00  0.00    +0.069 C 
ATOM     12  C   UNL     1      -2.597  -0.268  -8.476  0.00  0.00    +0.169 C 
ATOM     13  C   UNL     1      -1.911  -0.661  -7.308  0.00  0.00    +0.229 C 
ATOM     14  O   UNL     1      -0.907  -1.357  -7.377  0.00  0.00    -0.283 OA
ATOM     15 CL   UNL     1      -5.625   1.926  -7.091  0.00  0.00    -0.083 Cl
BRANCH  12  16
ATOM     16  O   UNL     1      -2.145  -0.662  -9.697  0.00  0.00    -0.491 OA
ATOM     17  C   UNL     1      -2.886  -0.222 -10.836  0.00  0.00    +0.277 C 
ENDBRANCH  12  16
ENDBRANCH   5   7
ENDBRANCH   3   5
BRANCH   1  18
ATOM     18  C   UNL     1      -1.433  -0.534   0.013  0.00  0.00    +0.163 C 
BRANCH  18  19
ATOM     19  N   UNL     1      -2.155   0.035   1.154  0.00  0.00    -0.300 N 
ATOM     20  C   UNL     1      -2.067  -0.550   2.366  0.00  0.00    +0.245 C 
ATOM     21  O   UNL     1      -1.389  -1.549   2.511  0.00  0.00    -0.270 OA
ATOM     22  H   UNL     1      -2.696   0.831   1.038  0.00  0.00    +0.150 HD
BRANCH  20  23
ATOM     23  C   UNL     1      -2.795   0.023   3.517  0.00  0.00    +0.038 A 
ATOM     24  C   UNL     1      -3.579   1.167   3.352  0.00  0.00    +0.014 A 
ATOM     25  C   UNL     1      -4.256   1.698   4.429  0.00  0.00    +0.022 A 
ATOM     26  C   UNL     1      -4.160   1.099   5.675  0.00  0.00    +0.059 A 
ATOM     27  C   UNL     1      -3.383  -0.036   5.846  0.00  0.00    +0.060 A 
ATOM     28  C   UNL     1      -2.706  -0.580   4.773  0.00  0.00    +0.034 A 
ATOM     29 CL   UNL     1      -3.268  -0.780   7.410  0.00  0.00    -0.082 Cl
ATOM     30 CL   UNL     1      -5.014   1.774   7.027  0.00  0.00    -0.082 Cl
ENDBRANCH  20  23
ENDBRANCH  18  19
BRANCH  18  32
ATOM     31  C   UNL     1      -0.019   1.526   0.010  0.00  0.00    +0.009 C 
ATOM     32  C   UNL     1       0.002  -0.004   0.002  0.00  0.00    +0.012 C 
ATOM     33  C   UNL     1       0.742  -0.511   1.242  0.00  0.00    +0.009 C 
ENDBRANCH  18  32
ENDBRANCH   1  18
TORSDOF 7
