REMARK  Name = ZINC60364558
REMARK  15 active torsions:
REMARK  status: ('A' for Active; 'I' for Inactive)
REMARK    1  A    between atoms: C_1  and  C_2
REMARK    2  A    between atoms: C_2  and  N_3
REMARK    3  A    between atoms: C_4  and  C_31
REMARK    4  A    between atoms: C_7  and  S_8
REMARK    5  A    between atoms: S_8  and  C_9
REMARK    6  A    between atoms: C_9  and  C_10
REMARK    7  A    between atoms: N_12  and  C_13
REMARK    8  A    between atoms: C_14  and  C_26
REMARK    9  A    between atoms: C_18  and  C_24
REMARK   10  A    between atoms: C_18  and  C_25
REMARK   11  A    between atoms: C_20  and  C_22
REMARK   12  A    between atoms: C_20  and  C_23
REMARK   13  A    between atoms: C_26  and  O_28
REMARK   14  A    between atoms: O_28  and  C_29
REMARK   15  A    between atoms: C_29  and  C_30
REMARK                            x       y       z     vdW  Elec       q    Type
REMARK                         _______ _______ _______ _____ _____    ______ ____
ROOT
ATOM      1  C   UNL     1       8.255  -1.169   0.499  0.00  0.00    +0.086 A 
ATOM      2  C   UNL     1       9.593  -1.455   0.259  0.00  0.00    +0.091 A 
ATOM      3  C   UNL     1      10.510  -1.274   1.362  0.00  0.00    -0.024 A 
ATOM      4  C   UNL     1       9.934  -0.844   2.509  0.00  0.00    -0.016 A 
ATOM      5  S   UNL     1       8.221  -0.679   2.106  0.00  0.00    -0.079 S 
ATOM      6  C   UNL     1      10.627  -0.591   3.805  0.00  0.00    -0.041 C 
ATOM      7  N   UNL     1      12.083  -0.643   3.678  0.00  0.00    +0.389 N 
ATOM      8  C   UNL     1      12.626  -0.499   2.334  0.00  0.00    -0.069 C 
ATOM      9  C   UNL     1      12.013  -1.505   1.353  0.00  0.00    +0.024 C 
ATOM     10  C   UNL     1      12.416   0.921   1.804  0.00  0.00    -0.010 C 
ATOM     11  C   UNL     1      14.143  -0.762   2.393  0.00  0.00    -0.010 C 
ATOM     12  C   UNL     1      10.194   0.774   4.358  0.00  0.00    -0.005 C 
ATOM     13  C   UNL     1      10.181  -1.670   4.811  0.00  0.00    -0.005 C 
ATOM     14  H   UNL     1      12.487   0.085   4.271  0.00  0.00    -0.084 HD
ATOM     15  H   UNL     1      12.411  -1.529   4.068  0.00  0.00    -0.084 HD
ENDROOT
BRANCH   1  18
ATOM     16  C   UNL     1       5.947  -0.946   0.019  0.00  0.00    +0.228 C 
ATOM     17  O   UNL     1       5.756  -0.573   1.157  0.00  0.00    -0.275 OA
ATOM     18  N   UNL     1       7.192  -1.266  -0.386  0.00  0.00    -0.279 N 
ATOM     19  H   UNL     1       7.345  -1.565  -1.296  0.00  0.00    +0.155 HD
BRANCH  16  20
ATOM     20  C   UNL     1       4.792  -1.052  -0.943  0.00  0.00    +0.173 C 
BRANCH  20  21
ATOM     21  S   UNL     1       3.261  -0.556  -0.107  0.00  0.00    -0.077 S 
BRANCH  21  26
ATOM     22  N   UNL     1       0.688  -0.476  -1.203  0.00  0.00    -0.306 N 
ATOM     23  C   UNL     1       0.126  -0.748  -2.420  0.00  0.00    +0.131 A 
ATOM     24  N   UNL     1       1.084  -1.140  -3.211  0.00  0.00    -0.134 NA
ATOM     25  N   UNL     1       2.205  -1.136  -2.582  0.00  0.00    -0.123 NA
ATOM     26  C   UNL     1       2.021  -0.732  -1.347  0.00  0.00    +0.192 A 
ATOM     27  C   UNL     1      -1.332  -0.617  -2.780  0.00  0.00    +0.088 C 
BRANCH  22  29
ATOM     28  C   UNL     1      -0.019   1.526   0.010  0.00  0.00    +0.027 C 
ATOM     29  C   UNL     1       0.002  -0.004   0.002  0.00  0.00    +0.122 C 
ENDBRANCH  22  29
ENDBRANCH  21  26
ENDBRANCH  20  21
ENDBRANCH  16  20
ENDBRANCH   1  18
BRANCH   2  30
ATOM     30  C   UNL     1      10.042  -1.921  -1.056  0.00  0.00    +0.342 C 
ATOM     31  O   UNL     1      10.388  -1.117  -1.900  0.00  0.00    -0.245 OA
BRANCH  30  32
ATOM     32  O   UNL     1      10.071  -3.241  -1.330  0.00  0.00    -0.461 OA
BRANCH  32  33
ATOM     33  C   UNL     1      10.519  -3.624  -2.631  0.00  0.00    +0.229 C 
ATOM     34  C   UNL     1      10.484  -5.148  -2.755  0.00  0.00    +0.048 C 
ENDBRANCH  32  33
ENDBRANCH  30  32
ENDBRANCH   2  30
TORSDOF 8
