REMARK  Name = ZINC65330192
REMARK  5 active torsions:
REMARK  status: ('A' for Active; 'I' for Inactive)
REMARK    1  A    between atoms: C_7  and  C_10
REMARK    2  A    between atoms: C_10  and  C_11
REMARK    3  A    between atoms: C_11  and  N_12
REMARK    4  A    between atoms: C_13  and  C_15
REMARK    5  A    between atoms: C_17  and  N_22
REMARK                            x       y       z     vdW  Elec       q    Type
REMARK                         _______ _______ _______ _____ _____    ______ ____
ROOT
ATOM      1  C   UNL     1      -1.742  -6.551  -2.633  0.00  0.00    +0.187 C 
ATOM      2  C   UNL     1      -3.205  -6.058  -2.473  0.00  0.00    +0.176 C 
ATOM      3  S   UNL     1      -4.108  -7.310  -3.478  0.00  0.00    -0.041 S 
ATOM      4  N   UNL     1      -2.701  -8.259  -4.059  0.00  0.00    -0.198 NA
ATOM      5  N   UNL     1      -1.611  -7.273  -3.913  0.00  0.00    -0.232 NA
ATOM      6  H   UNL     1      -2.819  -8.527  -5.025  0.00  0.00    +0.154 HD
ATOM      7  H   UNL     1      -1.598  -6.631  -4.691  0.00  0.00    +0.142 HD
ENDROOT
BRANCH   2   8
ATOM      8  N   UNL     1      -3.372  -4.713  -3.030  0.00  0.00    -0.284 N 
ATOM      9  C   UNL     1      -4.437  -4.433  -3.807  0.00  0.00    +0.303 C 
ATOM     10  O   UNL     1      -5.216  -5.316  -4.112  0.00  0.00    -0.253 OA
ATOM     11  N   UNL     1      -4.639  -3.175  -4.245  0.00  0.00    -0.281 N 
ATOM     12  C   UNL     1      -5.853  -2.820  -4.997  0.00  0.00    +0.137 C 
ATOM     13  C   UNL     1      -6.479  -1.580  -4.349  0.00  0.00    +0.179 C 
ATOM     14  O   UNL     1      -5.485  -0.559  -4.230  0.00  0.00    -0.377 OA
ATOM     15  C   UNL     1      -4.385  -0.908  -3.386  0.00  0.00    +0.179 C 
ATOM     16  C   UNL     1      -3.655  -2.113  -3.980  0.00  0.00    +0.137 C 
ATOM     17  H   UNL     1      -2.717  -4.024  -2.838  0.00  0.00    +0.151 HD
ENDBRANCH   2   8
BRANCH   1  19
ATOM     18  N   UNL     1      -0.461  -4.793  -1.456  0.00  0.00    -0.314 N 
ATOM     19  C   UNL     1      -0.808  -5.369  -2.624  0.00  0.00    +0.234 C 
ATOM     20  O   UNL     1      -0.368  -4.935  -3.668  0.00  0.00    -0.274 OA
ATOM     21  H   UNL     1      -0.812  -5.140  -0.621  0.00  0.00    +0.149 HD
BRANCH  18  22
ATOM     22  C   UNL     1       0.448  -3.644  -1.446  0.00  0.00    +0.108 C 
BRANCH  22  23
ATOM     23  C   UNL     1       0.676  -3.186  -0.005  0.00  0.00    +0.052 C 
BRANCH  23  30
ATOM     24  C   UNL     1      -0.056   1.343   0.063  0.00  0.00    +0.001 A 
ATOM     25  C   UNL     1       1.122   2.103   0.064  0.00  0.00    +0.002 A 
ATOM     26  C   UNL     1       2.350   1.544   0.047  0.00  0.00    +0.026 A 
ATOM     27  C   UNL     1       2.496   0.129   0.027  0.00  0.00    +0.043 A 
ATOM     28  N   UNL     1       3.558  -0.639   0.007  0.00  0.00    -0.380 N 
ATOM     29  C   UNL     1       3.123  -2.040  -0.008  0.00  0.00    +0.144 C 
ATOM     30  C   UNL     1       1.611  -2.004   0.005  0.00  0.00    -0.040 C 
ATOM     31  C   UNL     1       1.267  -0.696   0.025  0.00  0.00    -0.001 A 
ATOM     32  C   UNL     1      -0.030  -0.009   0.045  0.00  0.00    +0.010 A 
ATOM     33  H   UNL     1       4.479  -0.332   0.004  0.00  0.00    +0.160 HD
ENDBRANCH  23  30
ENDBRANCH  22  23
ENDBRANCH  18  22
ENDBRANCH   1  19
TORSDOF 5
