REMARK  Name = ZINC39710971
REMARK  13 active torsions:
REMARK  status: ('A' for Active; 'I' for Inactive)
REMARK    1  A    between atoms: C_1  and  C_2
REMARK    2  A    between atoms: C_2  and  C_3
REMARK    3  A    between atoms: C_3  and  C_4
REMARK    4  A    between atoms: C_3  and  C_5
REMARK    5  A    between atoms: C_3  and  N_6
REMARK    6  A    between atoms: C_7  and  C_12
REMARK    7  A    between atoms: C_12  and  C_14
REMARK    8  A    between atoms: C_12  and  N_27
REMARK    9  A    between atoms: C_21  and  C_26
REMARK   10  A    between atoms: N_27  and  C_28
REMARK   11  A    between atoms: N_27  and  C_34
REMARK   12  A    between atoms: C_28  and  C_29
REMARK   13  A    between atoms: C_34  and  C_35
REMARK                            x       y       z     vdW  Elec       q    Type
REMARK                         _______ _______ _______ _____ _____    ______ ____
ROOT
ATOM      1  C   UNL     1       0.999  -3.302  -3.509  0.00  0.00    -0.009 C 
ENDROOT
BRANCH   1   2
ATOM      2  C   UNL     1       0.044  -2.313  -4.179  0.00  0.00    +0.088 C 
ATOM      3  C   UNL     1      -1.021  -1.936  -3.169  0.00  0.00    -0.006 C 
ATOM      4  C   UNL     1      -2.319  -2.179  -3.509  0.00  0.00    -0.007 A 
ATOM      5  C   UNL     1      -3.410  -1.846  -2.592  0.00  0.00    +0.009 A 
ATOM      6  C   UNL     1      -4.688  -2.106  -2.973  0.00  0.00    +0.001 A 
ATOM      7  C   UNL     1      -4.974  -2.679  -4.212  0.00  0.00    +0.005 A 
ATOM      8  C   UNL     1      -4.007  -3.011  -5.107  0.00  0.00    -0.029 A 
ATOM      9  C   UNL     1      -2.651  -2.783  -4.811  0.00  0.00    +0.043 A 
ATOM     10  N   UNL     1      -1.711  -3.112  -5.697  0.00  0.00    -0.284 N 
ATOM     11  C   UNL     1      -0.420  -2.927  -5.481  0.00  0.00    +0.223 C 
ATOM     12  O   UNL     1       0.392  -3.248  -6.328  0.00  0.00    -0.275 OA
ATOM     13  C   UNL     1      -4.391  -3.628  -6.427  0.00  0.00    +0.045 C 
ATOM     14  H   UNL     1      -1.987  -3.506  -6.539  0.00  0.00    +0.155 HD
ENDBRANCH   1   2
BRANCH   1  16
ATOM     15  N   UNL     1       0.743  -1.989  -1.431  0.00  0.00    -0.182 NA
ATOM     16  C   UNL     1       1.720  -2.609  -2.351  0.00  0.00    +0.205 C 
ATOM     17  N   UNL     1       2.431  -3.593  -1.524  0.00  0.00    -0.152 NA
ATOM     18  N   UNL     1       1.974  -3.557  -0.379  0.00  0.00    -0.070 NA
ATOM     19  N   UNL     1       0.953  -2.619  -0.233  0.00  0.00    -0.179 N 
ATOM     20  H   UNL     1       0.467  -2.441   0.588  0.00  0.00    +0.191 HD
BRANCH  15  21
ATOM     21  C   UNL     1       0.975  -0.543  -1.314  0.00  0.00    +0.037 C 
ATOM     22  C   UNL     1       0.972   0.089  -2.707  0.00  0.00    +0.029 C 
ATOM     23  C   UNL     1       2.329  -0.297  -0.645  0.00  0.00    +0.029 C 
BRANCH  21  25
ATOM     24  C   UNL     1       0.108   1.590  -0.344  0.00  0.00    +0.006 C 
ATOM     25  C   UNL     1      -0.134   0.084  -0.467  0.00  0.00    +0.020 C 
ENDBRANCH  21  25
ENDBRANCH  15  21
ENDBRANCH   1  16
BRANCH   1  26
ATOM     26  N   UNL     1       1.986  -3.772  -4.490  0.00  0.00    +0.389 N 
ATOM     27  H   UNL     1       1.509  -4.194  -5.272  0.00  0.00    -0.081 HD
BRANCH  26  28
ATOM     28  C   UNL     1       2.868  -4.765  -3.861  0.00  0.00    -0.035 C 
BRANCH  28  29
ATOM     29  C   UNL     1       2.053  -5.957  -3.428  0.00  0.00    -0.027 A 
ATOM     30  C   UNL     1       1.808  -7.111  -4.096  0.00  0.00    +0.009 A 
ATOM     31  C   UNL     1       1.024  -8.079  -3.497  0.00  0.00    +0.008 A 
ATOM     32  C   UNL     1       0.523  -7.845  -2.259  0.00  0.00    +0.045 A 
ATOM     33  S   UNL     1       1.167  -6.219  -1.901  0.00  0.00    -0.103 S 
ENDBRANCH  28  29
ENDBRANCH  26  28
BRANCH  26  34
ATOM     34  C   UNL     1       2.788  -2.635  -4.961  0.00  0.00    -0.046 C 
BRANCH  34  35
ATOM     35  C   UNL     1       3.720  -3.097  -6.083  0.00  0.00    +0.102 C 
ATOM     36  C   UNL     1       4.650  -1.939  -6.502  0.00  0.00    +0.032 C 
ATOM     37  C   UNL     1       4.711  -2.107  -8.044  0.00  0.00    +0.030 C 
ATOM     38  C   UNL     1       3.280  -2.621  -8.341  0.00  0.00    +0.160 C 
ATOM     39  O   UNL     1       2.949  -3.473  -7.230  0.00  0.00    -0.378 OA
ENDBRANCH  34  35
ENDBRANCH  26  34
ENDBRANCH   1  26
TORSDOF 9
