REMARK  Name = ZINC14975211
REMARK  10 active torsions:
REMARK  status: ('A' for Active; 'I' for Inactive)
REMARK    1  A    between atoms: C_1  and  O_2
REMARK    2  A    between atoms: O_2  and  C_3
REMARK    3  A    between atoms: C_6  and  C_10
REMARK    4  A    between atoms: C_7  and  O_9
REMARK    5  A    between atoms: C_10  and  N_58
REMARK    6  A    between atoms: C_17  and  C_22
REMARK    7  A    between atoms: C_19  and  O_20
REMARK    8  A    between atoms: O_20  and  C_21
REMARK    9  A    between atoms: C_27  and  O_28
REMARK   10  A    between atoms: O_28  and  C_29
REMARK                            x       y       z     vdW  Elec       q    Type
REMARK                         _______ _______ _______ _____ _____    ______ ____
ROOT
ATOM      1  C   UNL     1      -7.972   0.029  -0.278  0.00  0.00    -0.036 C 
ATOM      2  C   UNL     1      -7.455   0.599   1.025  0.00  0.00    +0.211 C 
ATOM      3  O   UNL     1      -6.411   1.551   0.784  0.00  0.00    -0.490 OA
ATOM      4  C   UNL     1      -5.162   1.025   0.652  0.00  0.00    +0.163 A 
ATOM      5  C   UNL     1      -4.848   0.258  -0.453  0.00  0.00    -0.018 A 
ATOM      6  C   UNL     1      -3.599  -0.310  -0.582  0.00  0.00    +0.014 A 
ATOM      7  C   UNL     1      -2.640  -0.102   0.409  0.00  0.00    -0.010 A 
ATOM      8  C   UNL     1      -2.948   0.682   1.519  0.00  0.00    +0.058 A 
ATOM      9  C   UNL     1      -4.207   1.242   1.644  0.00  0.00    +0.162 A 
ATOM     10  C   UNL     1      -5.889   0.062  -1.539  0.00  0.00    -0.039 C 
ATOM     11  N   UNL     1      -6.966  -0.792  -0.987  0.00  0.00    +0.387 N 
ATOM     12  H   UNL     1      -6.553  -1.454  -0.320  0.00  0.00    -0.081 HD
ENDROOT
BRANCH   7  13
ATOM     13  C   UNL     1      -1.293  -0.710   0.279  0.00  0.00    +0.025 A 
ATOM     14  C   UNL     1      -1.162  -2.067  -0.008  0.00  0.00    +0.032 A 
ATOM     15  C   UNL     1       0.094  -2.627  -0.129  0.00  0.00    +0.042 A 
ATOM     16  C   UNL     1       1.225  -1.845   0.034  0.00  0.00    +0.023 A 
ATOM     17  C   UNL     1       1.106  -0.496   0.313  0.00  0.00    +0.047 A 
ATOM     18  C   UNL     1      -0.149   0.077   0.443  0.00  0.00    +0.128 A 
ATOM     19 CL   UNL     1       0.257  -4.318  -0.485  0.00  0.00    -0.084 Cl
BRANCH  18  20
ATOM     20  O   UNL     1      -0.267   1.402   0.723  0.00  0.00    -0.495 OA
ATOM     21  C   UNL     1       0.945   2.143   0.877  0.00  0.00    +0.277 C 
ENDBRANCH  18  20
ENDBRANCH   7  13
BRANCH   9  22
ATOM     22  O   UNL     1      -4.511   2.002   2.730  0.00  0.00    -0.491 OA
ATOM     23  C   UNL     1      -3.482   2.181   3.705  0.00  0.00    +0.277 C 
ENDBRANCH   9  22
BRANCH  11  24
ATOM     24  C   UNL     1      -7.614  -1.549  -2.070  0.00  0.00    -0.039 C 
BRANCH  24  28
ATOM     25  C   UNL     1      -4.918  -4.599  -3.380  0.00  0.00    +0.124 A 
ATOM     26  C   UNL     1      -5.142  -3.480  -4.170  0.00  0.00    +0.046 A 
ATOM     27  C   UNL     1      -6.018  -2.499  -3.747  0.00  0.00    +0.009 A 
ATOM     28  C   UNL     1      -6.664  -2.623  -2.531  0.00  0.00    -0.022 A 
ATOM     29  C   UNL     1      -6.443  -3.740  -1.738  0.00  0.00    +0.122 A 
ATOM     30  C   UNL     1      -5.569  -4.729  -2.163  0.00  0.00    +0.091 A 
BRANCH  25  32
ATOM     31  C   UNL     1      -3.425  -5.367  -5.064  0.00  0.00    +0.277 C 
ATOM     32  O   UNL     1      -4.061  -5.566  -3.799  0.00  0.00    -0.495 OA
ENDBRANCH  25  32
BRANCH  29  33
ATOM     33  O   UNL     1      -7.082  -3.865  -0.545  0.00  0.00    -0.506 OA
ATOM     34  H   UNL     1      -7.935  -4.318  -0.601  0.00  0.00    +0.292 HD
ENDBRANCH  29  33
ENDBRANCH  24  28
ENDBRANCH  11  24
TORSDOF 7
