REMARK  Name = ZINC12190421
REMARK  13 active torsions:
REMARK  status: ('A' for Active; 'I' for Inactive)
REMARK    1  A    between atoms: C_1  and  C_2
REMARK    2  A    between atoms: C_2  and  C_3
REMARK    3  A    between atoms: C_2  and  C_4
REMARK    4  A    between atoms: C_4  and  C_5
REMARK    5  A    between atoms: C_5  and  C_7
REMARK    6  A    between atoms: C_5  and  N_28
REMARK    7  A    between atoms: C_16  and  C_17
REMARK    8  A    between atoms: C_16  and  N_73
REMARK    9  A    between atoms: C_20  and  C_22
REMARK   10  A    between atoms: C_22  and  N_75
REMARK   11  A    between atoms: C_29  and  C_31
REMARK   12  A    between atoms: C_31  and  O_32
REMARK   13  A    between atoms: O_32  and  C_33
REMARK                            x       y       z     vdW  Elec       q    Type
REMARK                         _______ _______ _______ _____ _____    ______ ____
ROOT
ATOM      1  C   UNL     1      -2.434  -8.081  -6.489  0.00  0.00    +0.154 A 
ATOM      2  N   UNL     1      -3.464  -7.625  -7.152  0.00  0.00    -0.132 NA
ATOM      3  N   UNL     1      -4.208  -6.922  -6.370  0.00  0.00    -0.134 NA
ATOM      4  C   UNL     1      -3.691  -6.906  -5.177  0.00  0.00    +0.132 A 
ATOM      5  N   UNL     1      -2.543  -7.625  -5.223  0.00  0.00    -0.315 N 
ATOM      6  C   UNL     1      -1.613  -7.832  -4.113  0.00  0.00    +0.106 C 
ATOM      7  C   UNL     1      -2.380  -7.751  -2.790  0.00  0.00    -0.056 C 
ATOM      8  C   UNL     1      -3.098  -5.472  -3.253  0.00  0.00    -0.071 C 
ATOM      9  C   UNL     1      -4.236  -6.230  -3.945  0.00  0.00    +0.058 C 
ATOM     10  N   UNL     1      -2.423  -6.360  -2.282  0.00  0.00    +0.384 N 
ATOM     11  H   UNL     1      -2.949  -6.346  -1.401  0.00  0.00    -0.081 HD
ENDROOT
BRANCH   1  12
ATOM     12  C   UNL     1      -1.333  -8.953  -7.034  0.00  0.00    +0.141 C 
BRANCH  12  13
ATOM     13  N   UNL     1      -0.895  -8.432  -8.332  0.00  0.00    -0.304 N 
ATOM     14  C   UNL     1       0.350  -8.692  -8.778  0.00  0.00    +0.239 C 
ATOM     15  O   UNL     1       1.108  -9.357  -8.105  0.00  0.00    -0.273 OA
ATOM     16  H   UNL     1      -1.502  -7.900  -8.870  0.00  0.00    +0.149 HD
BRANCH  14  17
ATOM     17  C   UNL     1       0.799  -8.156 -10.112  0.00  0.00    +0.255 C 
BRANCH  17  18
ATOM     18  O   UNL     1       2.147  -8.563 -10.360  0.00  0.00    -0.374 OA
ATOM     19  C   UNL     1       2.673  -8.105 -11.607  0.00  0.00    +0.194 C 
ENDBRANCH  17  18
ENDBRANCH  14  17
ENDBRANCH  12  13
BRANCH  12  20
ATOM     20  C   UNL     1      -1.851 -10.382  -7.207  0.00  0.00    +0.033 C 
BRANCH  20  22
ATOM     21  C   UNL     1       0.339 -11.371  -6.522  0.00  0.00    +0.007 C 
ATOM     22  C   UNL     1      -0.701 -11.292  -7.642  0.00  0.00    -0.015 C 
ATOM     23  C   UNL     1      -1.242 -12.693  -7.935  0.00  0.00    +0.007 C 
ENDBRANCH  20  22
ENDBRANCH  12  20
ENDBRANCH   1  12
BRANCH  10  24
ATOM     24  C   UNL     1      -1.054  -5.876  -2.028  0.00  0.00    -0.036 C 
BRANCH  24  25
ATOM     25  C   UNL     1      -1.137  -4.569  -1.283  0.00  0.00    -0.027 A 
ATOM     26  C   UNL     1      -1.193  -4.350   0.054  0.00  0.00    +0.009 A 
ATOM     27  C   UNL     1      -1.266  -3.050   0.517  0.00  0.00    +0.009 A 
ATOM     28  C   UNL     1      -1.281  -2.032  -0.378  0.00  0.00    -0.027 A 
ATOM     29  S   UNL     1      -1.196  -2.907  -1.932  0.00  0.00    -0.102 S 
BRANCH  28  30
ATOM     30  C   UNL     1      -1.356  -0.548  -0.128  0.00  0.00    -0.036 C 
BRANCH  30  36
ATOM     31  C   UNL     1      -0.018   1.464   0.010  0.00  0.00    -0.078 C 
ATOM     32  C   UNL     1       1.417   1.995  -0.001  0.00  0.00    -0.019 C 
ATOM     33  C   UNL     1       2.160   1.470   1.231  0.00  0.00    -0.004 C 
ATOM     34  C   UNL     1       2.125  -0.061   1.224  0.00  0.00    -0.019 C 
ATOM     35  C   UNL     1       0.669  -0.533   1.199  0.00  0.00    -0.078 C 
ATOM     36  N   UNL     1       0.017  -0.013  -0.022  0.00  0.00    +0.383 N 
ATOM     37  H   UNL     1       0.556  -0.316  -0.842  0.00  0.00    -0.081 HD
ENDBRANCH  30  36
ENDBRANCH  28  30
ENDBRANCH  24  25
ENDBRANCH  10  24
TORSDOF 10
