REMARK  Name = ZINC22240376
REMARK  6 active torsions:
REMARK  status: ('A' for Active; 'I' for Inactive)
REMARK    1  A    between atoms: C_4  and  C_7
REMARK    2  A    between atoms: N_9  and  N_33
REMARK    3  A    between atoms: C_10  and  S_12
REMARK    4  A    between atoms: S_12  and  C_13
REMARK    5  A    between atoms: C_13  and  C_14
REMARK    6  A    between atoms: C_27  and  C_29
REMARK                            x       y       z     vdW  Elec       q    Type
REMARK                         _______ _______ _______ _____ _____    ______ ____
ROOT
ATOM      1  C   UNL     1       4.373   9.035   0.010  0.00  0.00    +0.231 C 
ATOM      2  O   UNL     1       4.082  10.213   0.020  0.00  0.00    -0.274 OA
ATOM      3  N   UNL     1       5.668   8.660  -0.005  0.00  0.00    -0.257 N 
ATOM      4  C   UNL     1       6.018   7.303  -0.017  0.00  0.00    +0.058 A 
ATOM      5  C   UNL     1       5.826   6.534  -1.152  0.00  0.00    +0.025 A 
ATOM      6  C   UNL     1       6.199   5.202  -1.153  0.00  0.00    +0.002 A 
ATOM      7  C   UNL     1       6.764   4.636  -0.024  0.00  0.00    +0.002 A 
ATOM      8  C   UNL     1       6.950   5.395   1.117  0.00  0.00    +0.025 A 
ATOM      9  C   UNL     1       6.570   6.727   1.128  0.00  0.00    +0.055 A 
ATOM     10  N   UNL     1       6.697   7.500   2.288  0.00  0.00    -0.284 N 
ATOM     11  C   UNL     1       7.258   8.727   2.235  0.00  0.00    +0.219 C 
ATOM     12  O   UNL     1       7.287   9.421   3.230  0.00  0.00    -0.275 OA
ATOM     13  C   UNL     1       7.848   9.241   0.948  0.00  0.00    +0.128 C 
ATOM     14  C   UNL     1       6.734   9.664  -0.015  0.00  0.00    +0.194 C 
ATOM     15  H   UNL     1       6.339   7.109   3.252  0.00  0.00    +0.155 HD
ENDROOT
BRANCH  14  16
ATOM     16  C   UNL     1       7.300   9.789  -1.431  0.00  0.00    +0.409 C 
ATOM     17  F   UNL     1       6.282  10.180  -2.308  0.00  0.00    -0.169 F 
ATOM     18  F   UNL     1       8.319  10.748  -1.443  0.00  0.00    -0.169 F 
ATOM     19  F   UNL     1       7.817   8.554  -1.838  0.00  0.00    -0.169 F 
ENDBRANCH  14  16
BRANCH   1  20
ATOM     20  C   UNL     1       3.287   7.991   0.014  0.00  0.00    +0.173 C 
BRANCH  20  21
ATOM     21  S   UNL     1       1.669   8.803   0.035  0.00  0.00    -0.077 S 
BRANCH  21  25
ATOM     22  C   UNL     1      -0.070   5.327   0.032  0.00  0.00    +0.092 A 
ATOM     23  C   UNL     1      -1.177   6.110   0.041  0.00  0.00    +0.138 A 
ATOM     24  N   UNL     1      -0.744   7.414   0.050  0.00  0.00    -0.251 N 
ATOM     25  C   UNL     1       0.617   7.389   0.037  0.00  0.00    +0.187 A 
ATOM     26  N   UNL     1       1.016   6.140   0.026  0.00  0.00    -0.221 NA
BRANCH  22  30
ATOM     27  C   UNL     1      -0.013   1.076   0.008  0.00  0.00    +0.000 A 
ATOM     28  C   UNL     1      -1.221   1.748   0.017  0.00  0.00    +0.001 A 
ATOM     29  C   UNL     1      -1.246   3.128   0.031  0.00  0.00    +0.010 A 
ATOM     30  C   UNL     1      -0.050   3.844   0.023  0.00  0.00    +0.002 A 
ATOM     31  C   UNL     1       1.165   3.161   0.008  0.00  0.00    +0.010 A 
ATOM     32  C   UNL     1       1.177   1.781   0.000  0.00  0.00    +0.001 A 
ENDBRANCH  22  30
BRANCH  24  33
ATOM     33  N   UNL     1      -1.534   8.529   0.064  0.00  0.00    -0.296 N 
ATOM     34  H   UNL     1      -1.074   9.528   0.070  0.00  0.00    +0.163 HD
ATOM     35  H   UNL     1      -2.629   8.427   0.069  0.00  0.00    +0.163 HD
ENDBRANCH  24  33
ENDBRANCH  21  25
ENDBRANCH  20  21
ENDBRANCH   1  20
TORSDOF 6
