REMARK  Name = ZINC20830372
REMARK  7 active torsions:
REMARK  status: ('A' for Active; 'I' for Inactive)
REMARK    1  A    between atoms: C_5  and  C_7
REMARK    2  A    between atoms: C_10  and  S_13
REMARK    3  A    between atoms: N_11  and  N_12
REMARK    4  A    between atoms: S_13  and  C_14
REMARK    5  A    between atoms: C_14  and  C_15
REMARK    6  A    between atoms: C_15  and  C_16
REMARK    7  A    between atoms: N_18  and  C_19
REMARK                            x       y       z     vdW  Elec       q    Type
REMARK                         _______ _______ _______ _____ _____    ______ ____
ROOT
ATOM      1  C   UNL     1       0.979  -0.352   0.798  0.00  0.00    +0.183 A 
ATOM      2  N   UNL     1       1.032  -1.599   0.393  0.00  0.00    -0.127 NA
ATOM      3  N   UNL     1       0.729  -1.669  -0.854  0.00  0.00    -0.121 NA
ATOM      4  C   UNL     1       0.457  -0.471  -1.320  0.00  0.00    +0.209 A 
ATOM      5  N   UNL     1       0.613   0.410  -0.288  0.00  0.00    -0.224 N 
ENDROOT
BRANCH   1  10
ATOM      6  C   UNL     1       0.646   1.488   4.055  0.00  0.00    +0.001 A 
ATOM      7  C   UNL     1       1.783   1.066   4.721  0.00  0.00    +0.001 A 
ATOM      8  C   UNL     1       2.659   0.184   4.115  0.00  0.00    +0.016 A 
ATOM      9  C   UNL     1       2.402  -0.285   2.842  0.00  0.00    +0.029 A 
ATOM     10  C   UNL     1       1.259   0.142   2.163  0.00  0.00    +0.035 A 
ATOM     11  C   UNL     1       0.379   1.032   2.780  0.00  0.00    +0.013 A 
ATOM     12 BR   UNL     1       3.597  -1.497   2.018  0.00  0.00    -0.050 Br
ENDBRANCH   1  10
BRANCH   5  13
ATOM     13  N   UNL     1       0.435   1.764  -0.325  0.00  0.00    -0.295 N 
ATOM     14  H   UNL     1       0.139   2.255  -1.263  0.00  0.00    +0.163 HD
ATOM     15  H   UNL     1       0.588   2.363   0.585  0.00  0.00    +0.163 HD
ENDBRANCH   5  13
BRANCH   4  16
ATOM     16  S   UNL     1      -0.015  -0.074  -2.971  0.00  0.00    -0.084 S 
BRANCH  16  17
ATOM     17  C   UNL     1       0.001  -1.727  -3.708  0.00  0.00    +0.086 C 
BRANCH  17  18
ATOM     18  C   UNL     1      -0.389  -1.630  -5.185  0.00  0.00    +0.107 C 
BRANCH  18  19
ATOM     19  C   UNL     1      -0.375  -3.006  -5.799  0.00  0.00    +0.218 C 
ATOM     20  O   UNL     1      -0.083  -3.969  -5.122  0.00  0.00    -0.275 OA
ATOM     21  N   UNL     1      -0.689  -3.167  -7.100  0.00  0.00    -0.285 N 
ATOM     22  H   UNL     1      -0.872  -2.287  -7.734  0.00  0.00    +0.155 HD
BRANCH  21  23
ATOM     23  C   UNL     1      -0.782  -4.453  -7.644  0.00  0.00    +0.034 A 
ATOM     24  C   UNL     1      -0.426  -4.676  -8.968  0.00  0.00    +0.026 A 
ATOM     25  C   UNL     1      -0.513  -5.947  -9.501  0.00  0.00    +0.040 A 
ATOM     26  C   UNL     1      -0.965  -6.997  -8.720  0.00  0.00    +0.124 A 
ATOM     27  C   UNL     1      -1.326  -6.776  -7.401  0.00  0.00    +0.040 A 
ATOM     28  C   UNL     1      -1.235  -5.508  -6.863  0.00  0.00    +0.026 A 
ATOM     29  F   UNL     1      -1.054  -8.239  -9.245  0.00  0.00    -0.205 F 
ENDBRANCH  21  23
ENDBRANCH  18  19
ENDBRANCH  17  18
ENDBRANCH  16  17
ENDBRANCH   4  16
TORSDOF 7
