REMARK  Name = ZINC40947540
REMARK  5 active torsions:
REMARK  status: ('A' for Active; 'I' for Inactive)
REMARK    1  A    between atoms: C_1  and  C_2
REMARK    2  A    between atoms: C_2  and  C_24
REMARK    3  A    between atoms: C_4  and  C_8
REMARK    4  A    between atoms: N_10  and  C_11
REMARK    5  A    between atoms: C_12  and  C_20
REMARK                            x       y       z     vdW  Elec       q    Type
REMARK                         _______ _______ _______ _____ _____    ______ ____
ROOT
ATOM      1  C   UNL     1       3.005  -1.222  -1.825  0.00  0.00    +0.239 C 
ATOM      2  O   UNL     1       2.901  -0.377  -2.689  0.00  0.00    -0.273 OA
ATOM      3  N   UNL     1       4.095  -2.013  -1.785  0.00  0.00    -0.277 N 
ATOM      4  H   UNL     1       4.178  -2.689  -1.094  0.00  0.00    +0.155 HD
ENDROOT
BRANCH   1   8
ATOM      5  C   UNL     1      -1.187   0.360  -1.321  0.00  0.00    +0.043 C 
ATOM      6  C   UNL     1      -0.507  -0.830  -0.642  0.00  0.00    +0.078 C 
ATOM      7  N   UNL     1       0.616  -1.325  -1.461  0.00  0.00    -0.278 N 
ATOM      8  C   UNL     1       1.915  -1.387  -0.798  0.00  0.00    +0.173 C 
ATOM      9  C   UNL     1       2.046  -0.261   0.270  0.00  0.00    +0.103 C 
ATOM     10  S   UNL     1       0.316  -0.305   0.921  0.00  0.00    -0.133 S 
ATOM     11  C   UNL     1       0.452  -1.700  -2.745  0.00  0.00    +0.330 C 
ATOM     12  O   UNL     1       1.412  -2.033  -3.407  0.00  0.00    -0.279 OA
ATOM     13  C   UNL     1      -1.518  -1.946  -0.372  0.00  0.00    +0.043 C 
ENDBRANCH   1   8
BRANCH   3  14
ATOM     14  C   UNL     1       5.099  -1.861  -2.731  0.00  0.00    +0.090 A 
ATOM     15  C   UNL     1       6.276  -2.582  -2.847  0.00  0.00    +0.084 A 
ATOM     16  C   UNL     1       7.169  -2.225  -3.935  0.00  0.00    -0.018 A 
ATOM     17  C   UNL     1       6.721  -1.212  -4.709  0.00  0.00    -0.004 A 
ATOM     18  S   UNL     1       5.161  -0.766  -4.003  0.00  0.00    -0.077 S 
ATOM     19  C   UNL     1       7.408  -0.617  -5.898  0.00  0.00    +0.043 C 
ATOM     20  C   UNL     1       8.874  -1.074  -5.888  0.00  0.00    +0.005 C 
ATOM     21  C   UNL     1       8.919  -2.587  -5.654  0.00  0.00    +0.005 C 
ATOM     22  C   UNL     1       8.501  -2.905  -4.217  0.00  0.00    +0.037 C 
BRANCH  15  23
ATOM     23  C   UNL     1       6.600  -3.634  -1.932  0.00  0.00    +0.102 C 
ATOM     24  N   UNL     1       6.856  -4.469  -1.205  0.00  0.00    -0.191 NA
ENDBRANCH  15  23
ENDBRANCH   3  14
TORSDOF 3
