REMARK  Name = ZINC11668181
REMARK  8 active torsions:
REMARK  status: ('A' for Active; 'I' for Inactive)
REMARK    1  A    between atoms: C_1  and  C_2
REMARK    2  A    between atoms: C_3  and  C_15
REMARK    3  A    between atoms: N_6  and  C_7
REMARK    4  A    between atoms: C_15  and  C_17
REMARK    5  A    between atoms: C_15  and  N_55
REMARK    6  A    between atoms: C_18  and  N_55
REMARK    7  A    between atoms: C_23  and  C_24
REMARK    8  A    between atoms: C_23  and  N_58
REMARK                            x       y       z     vdW  Elec       q    Type
REMARK                         _______ _______ _______ _____ _____    ______ ____
ROOT
ATOM      1  N   UNL     1      -1.792   3.255   4.918  0.00  0.00    +0.385 N 
ATOM      2  H   UNL     1      -2.777   3.392   4.663  0.00  0.00    -0.085 HD
ATOM      3  H   UNL     1      -1.712   2.459   5.561  0.00  0.00    -0.085 HD
ENDROOT
BRANCH   1   4
ATOM      4  C   UNL     1      -1.009   2.976   3.699  0.00  0.00    -0.075 C 
ATOM      5  C   UNL     1      -1.081   1.479   3.385  0.00  0.00    -0.034 C 
ATOM      6  C   UNL     1      -0.324   1.198   2.086  0.00  0.00    -0.080 C 
ATOM      7  C   UNL     1      -0.819   3.418   1.249  0.00  0.00    -0.080 C 
ATOM      8  C   UNL     1      -1.592   3.765   2.524  0.00  0.00    -0.034 C 
ATOM      9  N   UNL     1      -0.949   1.968   0.989  0.00  0.00    +0.383 N 
ATOM     10  H   UNL     1      -1.945   1.727   0.939  0.00  0.00    -0.081 HD
BRANCH   9  11
ATOM     11  C   UNL     1      -0.307   1.626  -0.297  0.00  0.00    -0.022 C 
BRANCH  11  12
ATOM     12  C   UNL     1      -1.099   2.252  -1.416  0.00  0.00    +0.025 A 
ATOM     13  C   UNL     1      -0.707   3.473  -1.931  0.00  0.00    +0.021 A 
ATOM     14  C   UNL     1      -1.442   4.039  -2.961  0.00  0.00    +0.003 A 
ATOM     15  C   UNL     1      -2.550   3.354  -3.435  0.00  0.00    +0.020 A 
ATOM     16  C   UNL     1      -2.882   2.137  -2.870  0.00  0.00    +0.111 A 
ATOM     17  N   UNL     1      -2.156   1.626  -1.895  0.00  0.00    -0.262 NA
ENDBRANCH  11  12
ENDBRANCH   9  11
ENDBRANCH   1   4
BRANCH   1  18
ATOM     18  C   UNL     1      -1.287   4.471   5.584  0.00  0.00    -0.040 C 
ATOM     19  C   UNL     1      -2.412   5.091   6.415  0.00  0.00    -0.009 C 
BRANCH  18  22
ATOM     20  C   UNL     1       0.882   6.440   6.681  0.00  0.00    +0.066 C 
ATOM     21  C   UNL     1       0.802   4.961   6.961  0.00  0.00    +0.044 A 
ATOM     22  C   UNL     1      -0.136   4.109   6.487  0.00  0.00    -0.021 A 
ATOM     23  C   UNL     1       0.147   2.834   6.987  0.00  0.00    +0.137 A 
ATOM     24  N   UNL     1       1.224   2.915   7.728  0.00  0.00    -0.174 NA
ATOM     25  N   UNL     1       1.654   4.248   7.731  0.00  0.00    -0.234 N 
BRANCH  25  26
ATOM     26  C   UNL     1       2.771   4.754   8.413  0.00  0.00    +0.101 A 
ATOM     27  C   UNL     1       2.655   5.904   9.180  0.00  0.00    +0.033 A 
ATOM     28  C   UNL     1       3.754   6.397   9.856  0.00  0.00    +0.040 A 
ATOM     29  C   UNL     1       4.976   5.752   9.759  0.00  0.00    +0.126 A 
ATOM     30  C   UNL     1       5.097   4.607   8.990  0.00  0.00    +0.078 A 
ATOM     31  C   UNL     1       3.998   4.106   8.316  0.00  0.00    +0.151 A 
ATOM     32  F   UNL     1       4.115   2.989   7.566  0.00  0.00    -0.203 F 
ATOM     33  F   UNL     1       6.051   6.240  10.416  0.00  0.00    -0.205 F 
ENDBRANCH  25  26
ENDBRANCH  18  22
ENDBRANCH   1  18
TORSDOF 6
