REMARK  Name = ZINC36912421
REMARK  1 active torsions:
REMARK  status: ('A' for Active; 'I' for Inactive)
REMARK    1  A    between atoms: C_13  and  C_17
REMARK                            x       y       z     vdW  Elec       q    Type
REMARK                         _______ _______ _______ _____ _____    ______ ____
ROOT
ATOM      1  C   UNL     1      -0.016   1.361   0.009  0.00  0.00    +0.063 A 
ATOM      2  C   UNL     1       1.192   2.074   0.002  0.00  0.00    +0.051 A 
ATOM      3  C   UNL     1       2.422   1.374  -0.015  0.00  0.00    +0.079 A 
ATOM      4  C   UNL     1       2.410  -0.031  -0.021  0.00  0.00    +0.078 A 
ATOM      5  C   UNL     1       1.221  -0.703  -0.012  0.00  0.00    +0.175 A 
ATOM      6  C   UNL     1       0.002  -0.004   0.002  0.00  0.00    +0.173 A 
ATOM      7  O   UNL     1      -1.017  -0.914   0.006  0.00  0.00    -0.395 OA
ATOM      8  C   UNL     1      -0.426  -2.155  -0.421  0.00  0.00    +0.589 C 
ATOM      9  O   UNL     1       0.950  -2.041  -0.015  0.00  0.00    -0.395 OA
ATOM     10  F   UNL     1      -0.519  -2.291  -1.810  0.00  0.00    -0.125 F 
ATOM     11  F   UNL     1      -1.038  -3.237   0.222  0.00  0.00    -0.125 F 
ATOM     12  N   UNL     1       3.576   2.051  -0.026  0.00  0.00    -0.242 NA
ATOM     13  C   UNL     1       3.604   3.363  -0.019  0.00  0.00    +0.148 A 
ATOM     14  C   UNL     1       2.439   4.120  -0.001  0.00  0.00    +0.083 A 
ATOM     15  C   UNL     1       1.209   3.487   0.010  0.00  0.00    +0.190 A 
ATOM     16  O   UNL     1       0.056   4.200   0.027  0.00  0.00    -0.287 OA
ENDROOT
BRANCH  13  17
ATOM     17  C   UNL     1       4.936   4.068  -0.032  0.00  0.00    +0.434 C 
ATOM     18  F   UNL     1       5.961   3.126  -0.164  0.00  0.00    -0.164 F 
ATOM     19  F   UNL     1       4.981   4.961  -1.108  0.00  0.00    -0.164 F 
ATOM     20  F   UNL     1       5.102   4.773   1.166  0.00  0.00    -0.164 F 
ENDBRANCH  13  17
TORSDOF 1
