REMARK  Name = ZINC66977662
REMARK  7 active torsions:
REMARK  status: ('A' for Active; 'I' for Inactive)
REMARK    1  A    between atoms: C_1  and  C_2
REMARK    2  A    between atoms: C_2  and  C_3
REMARK    3  A    between atoms: C_2  and  N_4
REMARK    4  A    between atoms: C_7  and  N_10
REMARK    5  A    between atoms: C_16  and  N_19
REMARK    6  A    between atoms: C_20  and  C_22
REMARK    7  A    between atoms: C_22  and  C_23
REMARK                            x       y       z     vdW  Elec       q    Type
REMARK                         _______ _______ _______ _____ _____    ______ ____
ROOT
ATOM      1  N   UNL     1      -1.693  -2.785   5.109  0.00  0.00    -0.298 N 
ATOM      2  C   UNL     1      -0.861  -1.816   5.540  0.00  0.00    +0.302 C 
ATOM      3  O   UNL     1      -0.198  -1.184   4.740  0.00  0.00    -0.253 OA
ATOM      4  N   UNL     1      -0.764  -1.548   6.857  0.00  0.00    -0.286 N 
ATOM      5  C   UNL     1       0.049  -0.420   7.333  0.00  0.00    +0.111 C 
ATOM      6  C   UNL     1      -0.818   0.468   8.231  0.00  0.00    +0.041 C 
ATOM      7  C   UNL     1      -1.429  -0.382   9.347  0.00  0.00    +0.076 C 
ATOM      8  C   UNL     1      -2.319  -1.467   8.736  0.00  0.00    +0.041 C 
ATOM      9  C   UNL     1      -1.474  -2.373   7.844  0.00  0.00    +0.111 C 
ATOM     10  H   UNL     1      -2.166  -3.338   5.750  0.00  0.00    +0.150 HD
ENDROOT
BRANCH   1  14
ATOM     11  N   UNL     1      -3.431  -4.291   2.314  0.00  0.00    +0.382 N 
ATOM     12  C   UNL     1      -3.490  -2.876   1.890  0.00  0.00    -0.077 C 
ATOM     13  C   UNL     1      -2.995  -2.073   3.120  0.00  0.00    +0.002 C 
ATOM     14  C   UNL     1      -1.883  -3.002   3.673  0.00  0.00    +0.056 C 
ATOM     15  C   UNL     1      -2.441  -4.415   3.400  0.00  0.00    -0.056 C 
ATOM     16  H   UNL     1      -4.338  -4.582   2.646  0.00  0.00    -0.081 HD
BRANCH  11  18
ATOM     17  C   UNL     1      -2.945  -6.591   1.627  0.00  0.00    -0.014 C 
ATOM     18  C   UNL     1      -3.026  -5.130   1.179  0.00  0.00    -0.075 C 
ATOM     19  C   UNL     1      -4.056  -4.999   0.054  0.00  0.00    -0.014 C 
ENDBRANCH  11  18
ENDBRANCH   1  14
BRANCH   7  20
ATOM     20  N   UNL     1      -2.232   0.470  10.227  0.00  0.00    -0.312 N 
ATOM     21  C   UNL     1      -2.447   0.105  11.506  0.00  0.00    +0.214 C 
ATOM     22  O   UNL     1      -1.976  -0.929  11.930  0.00  0.00    -0.276 OA
ATOM     23  H   UNL     1      -2.609   1.297   9.889  0.00  0.00    +0.149 HD
BRANCH  21  24
ATOM     24  C   UNL     1      -3.274   0.982  12.411  0.00  0.00    +0.099 C 
BRANCH  24  25
ATOM     25  C   UNL     1      -3.363   0.343  13.799  0.00  0.00    -0.002 C 
ATOM     26  C   UNL     1      -4.130  -0.977  13.704  0.00  0.00    +0.004 C 
ATOM     27  C   UNL     1      -4.219  -1.616  15.091  0.00  0.00    +0.000 C 
ATOM     28  C   UNL     1      -4.951  -0.668  16.043  0.00  0.00    +0.000 C 
ATOM     29  C   UNL     1      -4.184   0.652  16.138  0.00  0.00    +0.000 C 
ATOM     30  C   UNL     1      -4.095   1.291  14.751  0.00  0.00    +0.004 C 
ENDBRANCH  24  25
ENDBRANCH  21  24
ENDBRANCH   7  20
TORSDOF 5
