REMARK  Name = ZINC42009262
REMARK  6 active torsions:
REMARK  status: ('A' for Active; 'I' for Inactive)
REMARK    1  A    between atoms: C_1  and  C_2
REMARK    2  A    between atoms: C_2  and  C_3
REMARK    3  A    between atoms: C_2  and  C_10
REMARK    4  A    between atoms: C_2  and  S_13
REMARK    5  A    between atoms: S_13  and  C_14
REMARK    6  A    between atoms: C_17  and  N_20
REMARK                            x       y       z     vdW  Elec       q    Type
REMARK                         _______ _______ _______ _____ _____    ______ ____
ROOT
ATOM      1  C   UNL     1      -0.089   1.568  -0.100  0.00  0.00    +0.040 C 
ATOM      2  C   UNL     1      -0.015   0.045   0.029  0.00  0.00    +0.144 C 
ENDROOT
BRANCH   2   3
ATOM      3  C   UNL     1       0.774  -0.317   1.261  0.00  0.00    -0.020 A 
ATOM      4  C   UNL     1       1.291   0.680   2.068  0.00  0.00    +0.008 A 
ATOM      5  C   UNL     1       2.014   0.349   3.198  0.00  0.00    +0.038 A 
ATOM      6  C   UNL     1       2.221  -0.981   3.522  0.00  0.00    +0.123 A 
ATOM      7  C   UNL     1       1.703  -1.978   2.714  0.00  0.00    +0.038 A 
ATOM      8  C   UNL     1       0.976  -1.645   1.587  0.00  0.00    +0.008 A 
ATOM      9  F   UNL     1       2.928  -1.305   4.627  0.00  0.00    -0.205 F 
ENDBRANCH   2   3
BRANCH   2  10
ATOM     10  C   UNL     1       0.663  -0.530  -1.188  0.00  0.00    +0.376 C 
ATOM     11  O   UNL     1       1.805  -0.201  -1.462  0.00  0.00    -0.244 OA
ATOM     12  O   UNL     1       0.070  -1.323  -1.899  0.00  0.00    -0.244 OA
ENDBRANCH   2  10
BRANCH   2  13
ATOM     13  S   UNL     1      -1.692  -0.633   0.164  0.00  0.00    -0.102 S 
BRANCH  13  14
ATOM     14  C   UNL     1      -2.489  -0.096  -1.313  0.00  0.00    +0.009 A 
ATOM     15  C   UNL     1      -1.755   0.540  -2.307  0.00  0.00    +0.016 A 
ATOM     16  C   UNL     1      -2.380   0.961  -3.464  0.00  0.00    +0.024 A 
ATOM     17  C   UNL     1      -3.741   0.748  -3.635  0.00  0.00    +0.025 A 
ATOM     18  C   UNL     1      -4.475   0.111  -2.642  0.00  0.00    +0.024 A 
ATOM     19  C   UNL     1      -3.849  -0.315  -1.487  0.00  0.00    +0.016 A 
BRANCH  17  20
ATOM     20  N   UNL     1      -4.374   1.175  -4.808  0.00  0.00    -0.358 N 
ATOM     21  H   UNL     1      -3.862   1.619  -5.502  0.00  0.00    +0.142 HD
ATOM     22  H   UNL     1      -5.325   1.026  -4.928  0.00  0.00    +0.142 HD
ENDBRANCH  17  20
ENDBRANCH  13  14
ENDBRANCH   2  13
TORSDOF 5
