REMARK  Name = ZINC36029188
REMARK  7 active torsions:
REMARK  status: ('A' for Active; 'I' for Inactive)
REMARK    1  A    between atoms: C_1  and  C_2
REMARK    2  A    between atoms: C_2  and  C_3
REMARK    3  A    between atoms: C_3  and  C_5
REMARK    4  A    between atoms: C_3  and  C_6
REMARK    5  A    between atoms: N_10  and  C_29
REMARK    6  A    between atoms: N_15  and  S_18
REMARK    7  A    between atoms: S_18  and  C_21
REMARK                            x       y       z     vdW  Elec       q    Type
REMARK                         _______ _______ _______ _____ _____    ______ ____
ROOT
ATOM      1  C   UNL     1       0.849  -2.021  -1.205  0.00  0.00    +0.022 C 
ATOM      2  C   UNL     1      -0.509  -2.673  -1.341  0.00  0.00    +0.200 C 
ATOM      3  O   UNL     1      -1.525  -2.331  -0.777  0.00  0.00    -0.277 OA
ATOM      4  N   UNL     1      -0.397  -3.711  -2.206  0.00  0.00    -0.317 N 
ATOM      5  C   UNL     1       1.006  -3.872  -2.583  0.00  0.00    +0.005 C 
ATOM      6  N   UNL     1       1.603  -2.515  -2.383  0.00  0.00    +0.401 N 
ATOM      7  C   UNL     1       1.728  -4.828  -1.644  0.00  0.00    +0.023 C 
ATOM      8  C   UNL     1       1.342  -6.280  -1.923  0.00  0.00    +0.109 C 
ATOM      9  N   UNL     1       1.594  -6.556  -3.344  0.00  0.00    -0.177 NA
ATOM     10  C   UNL     1       0.939  -5.711  -4.346  0.00  0.00    +0.109 C 
ATOM     11  C   UNL     1       1.181  -4.238  -4.047  0.00  0.00    +0.023 C 
ATOM     12  C   UNL     1      -1.539  -4.506  -2.661  0.00  0.00    +0.130 C 
ATOM     13  H   UNL     1       1.432  -1.942  -3.190  0.00  0.00    -0.082 HD
ATOM     14  H   UNL     1       2.583  -2.599  -2.179  0.00  0.00    -0.082 HD
ENDROOT
BRANCH   9  15
ATOM     15  S   UNL     1       2.594  -7.795  -3.798  0.00  0.00    +0.062 S 
ATOM     16  O   UNL     1       3.071  -7.475  -5.098  0.00  0.00    -0.153 OA
ATOM     17  O   UNL     1       3.468  -8.034  -2.703  0.00  0.00    -0.153 OA
BRANCH  15  18
ATOM     18  C   UNL     1       1.595  -9.236  -3.969  0.00  0.00    +0.125 A 
ATOM     19  C   UNL     1       1.444  -9.829  -5.209  0.00  0.00    +0.030 A 
ATOM     20  C   UNL     1       0.660 -10.960  -5.344  0.00  0.00    +0.003 A 
ATOM     21  C   UNL     1       0.026 -11.498  -4.239  0.00  0.00    +0.021 A 
ATOM     22  C   UNL     1       0.176 -10.906  -2.999  0.00  0.00    +0.061 A 
ATOM     23  C   UNL     1       0.966  -9.777  -2.862  0.00  0.00    +0.086 A 
ATOM     24 CL   UNL     1       1.162  -9.037  -1.304  0.00  0.00    -0.080 Cl
ATOM     25 CL   UNL     1      -0.620 -11.582  -1.612  0.00  0.00    -0.082 Cl
ENDBRANCH  15  18
ENDBRANCH   9  15
BRANCH   1  26
ATOM     26  C   UNL     1       0.718  -0.497  -1.257  0.00  0.00    -0.020 C 
ATOM     27  C   UNL     1      -0.089  -0.097  -2.493  0.00  0.00    +0.006 C 
BRANCH  26  29
ATOM     28  C   UNL     1      -0.019   1.526   0.010  0.00  0.00    +0.004 C 
ATOM     29  C   UNL     1       0.002  -0.004   0.002  0.00  0.00    -0.001 C 
ENDBRANCH  26  29
ENDBRANCH   1  26
TORSDOF 4
