REMARK  Name = ZINC11664201
REMARK  9 active torsions:
REMARK  status: ('A' for Active; 'I' for Inactive)
REMARK    1  A    between atoms: C_1  and  C_2
REMARK    2  A    between atoms: C_2  and  O_3
REMARK    3  A    between atoms: O_3  and  C_4
REMARK    4  A    between atoms: C_9  and  C_10
REMARK    5  A    between atoms: C_10  and  N_59
REMARK    6  A    between atoms: C_16  and  C_18
REMARK    7  A    between atoms: C_18  and  C_19
REMARK    8  A    between atoms: N_21  and  C_22
REMARK    9  A    between atoms: C_22  and  C_23
REMARK                            x       y       z     vdW  Elec       q    Type
REMARK                         _______ _______ _______ _____ _____    ______ ____
ROOT
ATOM      1  C   UNL     1       5.542   2.893   7.156  0.00  0.00    -0.058 C 
ATOM      2  C   UNL     1       6.230   4.244   7.360  0.00  0.00    +0.085 C 
ATOM      3  N   UNL     1       6.427   4.904   6.072  0.00  0.00    -0.318 N 
ATOM      4  C   UNL     1       5.754   4.561   4.969  0.00  0.00    +0.200 C 
ATOM      5  O   UNL     1       5.957   5.183   3.948  0.00  0.00    -0.278 OA
ATOM      6  C   UNL     1       4.757   3.437   4.942  0.00  0.00    +0.028 C 
ATOM      7  H   UNL     1       7.075   5.623   6.015  0.00  0.00    +0.149 HD
ATOM      8  N   UNL     1       4.344   3.111   6.320  0.00  0.00    +0.391 N 
ATOM      9  H   UNL     1       3.806   3.897   6.704  0.00  0.00    -0.080 HD
ENDROOT
BRANCH   8  10
ATOM     10  C   UNL     1       3.495   1.899   6.321  0.00  0.00    -0.038 C 
BRANCH  10  16
ATOM     11  C   UNL     1       1.670   2.564   7.907  0.00  0.00    +0.122 A 
ATOM     12  C   UNL     1       1.028   2.465   9.133  0.00  0.00    +0.046 A 
ATOM     13  C   UNL     1       1.511   1.602  10.097  0.00  0.00    +0.004 A 
ATOM     14  C   UNL     1       2.633   0.835   9.840  0.00  0.00    +0.000 A 
ATOM     15  C   UNL     1       3.272   0.928   8.617  0.00  0.00    +0.005 A 
ATOM     16  C   UNL     1       2.796   1.794   7.652  0.00  0.00    -0.022 A 
BRANCH  11  17
ATOM     17  O   UNL     1       1.197   3.413   6.957  0.00  0.00    -0.492 OA
BRANCH  17  19
ATOM     18  C   UNL     1      -0.347   5.066   6.105  0.00  0.00    +0.048 C 
ATOM     19  C   UNL     1       0.034   4.174   7.289  0.00  0.00    +0.225 C 
ENDBRANCH  17  19
ENDBRANCH  11  17
ENDBRANCH  10  16
ENDBRANCH   8  10
BRANCH   6  20
ATOM     20  C   UNL     1       3.526   3.870   4.143  0.00  0.00    +0.089 C 
BRANCH  20  21
ATOM     21  C   UNL     1       3.909   4.072   2.700  0.00  0.00    +0.212 C 
ATOM     22  O   UNL     1       5.018   3.762   2.317  0.00  0.00    -0.276 OA
ATOM     23  N   UNL     1       3.021   4.599   1.834  0.00  0.00    -0.310 N 
ATOM     24  H   UNL     1       2.134   4.848   2.140  0.00  0.00    +0.149 HD
BRANCH  23  25
ATOM     25  C   UNL     1       3.393   4.796   0.431  0.00  0.00    +0.161 C 
BRANCH  25  26
ATOM     26  C   UNL     1       2.231   5.395  -0.318  0.00  0.00    +0.083 A 
ATOM     27  C   UNL     1       1.974   6.763  -0.480  0.00  0.00    -0.002 A 
ATOM     28  C   UNL     1       0.842   6.893  -1.211  0.00  0.00    +0.040 A 
ATOM     29  N   UNL     1       0.397   5.650  -1.504  0.00  0.00    -0.281 N 
ATOM     30  H   UNL     1      -0.421   5.428  -2.035  0.00  0.00    +0.189 HD
ATOM     31  N   UNL     1       1.288   4.726  -0.930  0.00  0.00    -0.177 NA
ATOM     32  C   UNL     1       0.514   8.356  -1.417  0.00  0.00    +0.055 C 
ATOM     33  C   UNL     1       1.350   9.106  -0.357  0.00  0.00    +0.011 C 
ATOM     34  C   UNL     1       2.522   8.128  -0.122  0.00  0.00    +0.039 C 
ENDBRANCH  25  26
ENDBRANCH  23  25
ENDBRANCH  20  21
ENDBRANCH   6  20
TORSDOF 8
