REMARK  Name = ZINC40777886
REMARK  9 active torsions:
REMARK  status: ('A' for Active; 'I' for Inactive)
REMARK    1  A    between atoms: C_1  and  C_2
REMARK    2  A    between atoms: C_5  and  S_8
REMARK    3  A    between atoms: S_8  and  N_11
REMARK    4  A    between atoms: N_11  and  N_12
REMARK    5  A    between atoms: C_14  and  N_33
REMARK    6  A    between atoms: C_15  and  N_19
REMARK    7  A    between atoms: N_19  and  N_20
REMARK    8  A    between atoms: N_20  and  C_21
REMARK    9  A    between atoms: N_20  and  C_27
REMARK                            x       y       z     vdW  Elec       q    Type
REMARK                         _______ _______ _______ _____ _____    ______ ____
ROOT
ATOM      1  N   UNL     1       5.814  -1.275   7.284  0.00  0.00    -0.244 N 
ATOM      2  C   UNL     1       6.359  -2.364   6.614  0.00  0.00    +0.159 A 
ATOM      3  C   UNL     1       5.694  -3.592   6.597  0.00  0.00    +0.106 A 
ATOM      4  C   UNL     1       6.286  -4.652   5.910  0.00  0.00    +0.139 A 
ATOM      5  N   UNL     1       7.454  -4.455   5.302  0.00  0.00    -0.332 N 
ATOM      6  C   UNL     1       8.049  -3.280   5.342  0.00  0.00    +0.200 A 
ATOM      7  N   UNL     1       7.521  -2.252   5.975  0.00  0.00    -0.220 NA
ATOM      8  H   UNL     1       4.967  -1.366   7.747  0.00  0.00    +0.169 HD
ATOM      9  H   UNL     1       7.873  -5.187   4.822  0.00  0.00    +0.168 HD
ENDROOT
BRANCH   3  10
ATOM     10  N   UNL     1       4.463  -3.755   7.254  0.00  0.00    -0.353 N 
ATOM     11  H   UNL     1       4.064  -3.008   7.728  0.00  0.00    +0.143 HD
ATOM     12  H   UNL     1       4.013  -4.613   7.234  0.00  0.00    +0.143 HD
ENDBRANCH   3  10
BRANCH   1  13
ATOM     13  N   UNL     1       6.488  -0.047   7.289  0.00  0.00    -0.109 NA
ATOM     14  H   UNL     1       7.407   0.001   7.597  0.00  0.00    +0.172 HD
BRANCH  13  15
ATOM     15  S   UNL     1       5.716   1.323   6.770  0.00  0.00    +0.074 S 
ATOM     16  O   UNL     1       5.218   1.040   5.470  0.00  0.00    -0.152 OA
ATOM     17  O   UNL     1       6.596   2.408   7.030  0.00  0.00    -0.152 OA
BRANCH  15  22
ATOM     18  C   UNL     1       0.906   2.119  10.325  0.00  0.00    +0.044 C 
ATOM     19  C   UNL     1       2.107   1.920   9.437  0.00  0.00    -0.050 A 
ATOM     20  C   UNL     1       3.321   2.486   9.780  0.00  0.00    +0.005 A 
ATOM     21  C   UNL     1       4.423   2.303   8.966  0.00  0.00    +0.029 A 
ATOM     22  C   UNL     1       4.312   1.555   7.809  0.00  0.00    +0.107 A 
ATOM     23  C   UNL     1       3.098   0.989   7.466  0.00  0.00    +0.029 A 
ATOM     24  C   UNL     1       1.997   1.168   8.283  0.00  0.00    +0.005 A 
ENDBRANCH  15  22
ENDBRANCH  13  15
ENDBRANCH   1  13
BRANCH   4  25
ATOM     25  N   UNL     1       5.667  -5.896   5.862  0.00  0.00    -0.243 N 
ATOM     26  H   UNL     1       4.816  -6.031   6.308  0.00  0.00    +0.172 HD
BRANCH  25  27
ATOM     27  N   UNL     1       6.271  -6.953   5.169  0.00  0.00    -0.221 N 
BRANCH  27  28
ATOM     28  C   UNL     1       6.894  -7.985   5.875  0.00  0.00    +0.053 A 
ATOM     29  C   UNL     1       7.882  -7.693   6.807  0.00  0.00    +0.025 A 
ATOM     30  C   UNL     1       8.497  -8.715   7.503  0.00  0.00    +0.002 A 
ATOM     31  C   UNL     1       8.130 -10.028   7.273  0.00  0.00    +0.000 A 
ATOM     32  C   UNL     1       7.147 -10.323   6.345  0.00  0.00    +0.002 A 
ATOM     33  C   UNL     1       6.524  -9.305   5.650  0.00  0.00    +0.025 A 
ENDBRANCH  27  28
BRANCH  27  34
ATOM     34  C   UNL     1       6.249  -6.976   3.772  0.00  0.00    +0.053 A 
ATOM     35  C   UNL     1       5.477  -6.056   3.073  0.00  0.00    +0.025 A 
ATOM     36  C   UNL     1       5.458  -6.081   1.692  0.00  0.00    +0.002 A 
ATOM     37  C   UNL     1       6.206  -7.021   1.006  0.00  0.00    +0.000 A 
ATOM     38  C   UNL     1       6.975  -7.938   1.699  0.00  0.00    +0.002 A 
ATOM     39  C   UNL     1       7.003  -7.914   3.079  0.00  0.00    +0.025 A 
ENDBRANCH  27  34
ENDBRANCH  25  27
ENDBRANCH   4  25
TORSDOF 8
