REMARK  Name = ZINC12747039
REMARK  7 active torsions:
REMARK  status: ('A' for Active; 'I' for Inactive)
REMARK    1  A    between atoms: C_6  and  C_11
REMARK    2  A    between atoms: C_11  and  N_57
REMARK    3  A    between atoms: C_17  and  C_19
REMARK    4  A    between atoms: C_19  and  C_20
REMARK    5  A    between atoms: N_22  and  C_23
REMARK    6  A    between atoms: C_23  and  C_24
REMARK    7  A    between atoms: C_24  and  C_25
REMARK                            x       y       z     vdW  Elec       q    Type
REMARK                         _______ _______ _______ _____ _____    ______ ____
ROOT
ATOM      1  C   UNL     1       4.426   5.123  -2.182  0.00  0.00    -0.058 C 
ATOM      2  C   UNL     1       5.147   5.503  -3.477  0.00  0.00    +0.085 C 
ATOM      3  N   UNL     1       5.604   4.299  -4.166  0.00  0.00    -0.318 N 
ATOM      4  C   UNL     1       5.721   3.114  -3.559  0.00  0.00    +0.200 C 
ATOM      5  O   UNL     1       6.137   2.172  -4.199  0.00  0.00    -0.278 OA
ATOM      6  C   UNL     1       5.357   2.900  -2.117  0.00  0.00    +0.028 C 
ATOM      7  H   UNL     1       5.833   4.363  -5.107  0.00  0.00    +0.149 HD
ATOM      8  N   UNL     1       5.298   4.202  -1.426  0.00  0.00    +0.391 N 
ATOM      9  H   UNL     1       6.243   4.599  -1.376  0.00  0.00    -0.080 HD
ENDROOT
BRANCH   8  10
ATOM     10  C   UNL     1       4.777   4.022  -0.052  0.00  0.00    -0.042 C 
BRANCH  10  16
ATOM     11  C   UNL     1      -1.433   2.276  -0.368  0.00  0.00    +0.001 A 
ATOM     12  C   UNL     1      -1.335   3.659  -0.511  0.00  0.00    +0.001 A 
ATOM     13  C   UNL     1      -0.126   4.282  -0.483  0.00  0.00    +0.008 A 
ATOM     14  C   UNL     1       1.044   3.524  -0.301  0.00  0.00    -0.018 A 
ATOM     15  C   UNL     1       2.310   4.133  -0.266  0.00  0.00    +0.010 A 
ATOM     16  C   UNL     1       3.421   3.366  -0.088  0.00  0.00    -0.063 A 
ATOM     17  C   UNL     1       3.322   1.984   0.061  0.00  0.00    +0.002 A 
ATOM     18  C   UNL     1       2.113   1.360   0.033  0.00  0.00    +0.009 A 
ATOM     19  C   UNL     1       0.944   2.118  -0.149  0.00  0.00    -0.018 A 
ATOM     20  C   UNL     1      -0.323   1.510  -0.184  0.00  0.00    +0.008 A 
ENDBRANCH  10  16
ENDBRANCH   8  10
BRANCH   6  21
ATOM     21  C   UNL     1       6.424   2.030  -1.448  0.00  0.00    +0.089 C 
BRANCH  21  22
ATOM     22  C   UNL     1       7.741   2.763  -1.448  0.00  0.00    +0.212 C 
ATOM     23  O   UNL     1       7.837   3.839  -1.999  0.00  0.00    -0.276 OA
ATOM     24  N   UNL     1       8.813   2.222  -0.835  0.00  0.00    -0.315 N 
ATOM     25  H   UNL     1       8.736   1.362  -0.394  0.00  0.00    +0.149 HD
BRANCH  24  26
ATOM     26  C   UNL     1      10.093   2.934  -0.834  0.00  0.00    +0.109 C 
BRANCH  26  27
ATOM     27  C   UNL     1      11.135   2.109  -0.077  0.00  0.00    +0.056 C 
BRANCH  27  28
ATOM     28  C   UNL     1      12.453   2.842  -0.076  0.00  0.00    -0.011 A 
ATOM     29  C   UNL     1      13.407   2.549  -1.033  0.00  0.00    +0.006 A 
ATOM     30  C   UNL     1      14.612   3.224  -1.036  0.00  0.00    +0.000 A 
ATOM     31  C   UNL     1      14.870   4.186  -0.076  0.00  0.00    +0.003 A 
ATOM     32  C   UNL     1      13.920   4.476   0.884  0.00  0.00    +0.038 A 
ATOM     33  C   UNL     1      12.710   3.804   0.885  0.00  0.00    +0.127 A 
ATOM     34  F   UNL     1      11.780   4.087   1.824  0.00  0.00    -0.205 F 
ENDBRANCH  27  28
ENDBRANCH  26  27
ENDBRANCH  24  26
ENDBRANCH  21  22
ENDBRANCH   6  21
TORSDOF 7
