REMARK  Name = ZINC34791291
REMARK  13 active torsions:
REMARK  status: ('A' for Active; 'I' for Inactive)
REMARK    1  A    between atoms: C_1  and  C_2
REMARK    2  A    between atoms: C_2  and  N_3
REMARK    3  A    between atoms: C_6  and  C_11
REMARK    4  A    between atoms: C_14  and  C_18
REMARK    5  A    between atoms: C_16  and  C_17
REMARK    6  A    between atoms: N_21  and  C_23
REMARK    7  A    between atoms: C_23  and  C_25
REMARK    8  A    between atoms: C_23  and  C_29
REMARK    9  A    between atoms: C_25  and  C_26
REMARK   10  A    between atoms: C_26  and  C_27
REMARK   11  A    between atoms: C_26  and  C_28
REMARK   12  A    between atoms: N_31  and  C_32
REMARK   13  A    between atoms: C_35  and  C_38
REMARK                            x       y       z     vdW  Elec       q    Type
REMARK                         _______ _______ _______ _____ _____    ______ ____
ROOT
ATOM      1  N   UNL     1      -1.937  -1.260   0.399  0.00  0.00    -0.257 N 
ATOM      2  C   UNL     1      -2.319  -0.910   1.663  0.00  0.00    +0.042 C 
ATOM      3  C   UNL     1      -3.621  -0.870   2.013  0.00  0.00    +0.058 C 
ATOM      4  C   UNL     1      -4.646  -1.227   0.957  0.00  0.00    +0.142 C 
ATOM      5  N   UNL     1      -4.133  -1.590  -0.375  0.00  0.00    -0.288 N 
ATOM      6  C   UNL     1      -2.800  -1.580  -0.574  0.00  0.00    +0.307 C 
ATOM      7  O   UNL     1      -2.367  -1.874  -1.671  0.00  0.00    -0.252 OA
ATOM      8  C   UNL     1      -3.753  -0.483   3.363  0.00  0.00    +0.247 C 
ATOM      9  O   UNL     1      -4.817  -0.365   3.943  0.00  0.00    -0.270 OA
ATOM     10  N   UNL     1      -2.551  -0.263   3.925  0.00  0.00    -0.281 N 
ATOM     11  C   UNL     1      -1.535  -0.515   2.893  0.00  0.00    +0.160 C 
ATOM     12  H   UNL     1      -4.740  -1.828  -1.093  0.00  0.00    +0.151 HD
ENDROOT
BRANCH   4  13
ATOM     13  C   UNL     1      -5.461  -2.385   1.472  0.00  0.00    -0.020 A 
ATOM     14  C   UNL     1      -5.022  -3.105   2.568  0.00  0.00    +0.006 A 
ATOM     15  C   UNL     1      -5.770  -4.168   3.040  0.00  0.00    +0.004 A 
ATOM     16  C   UNL     1      -6.956  -4.510   2.418  0.00  0.00    -0.050 A 
ATOM     17  C   UNL     1      -7.395  -3.789   1.323  0.00  0.00    +0.007 A 
ATOM     18  C   UNL     1      -6.649  -2.724   0.853  0.00  0.00    -0.045 A 
ATOM     19  C   UNL     1      -7.131  -1.935  -0.338  0.00  0.00    +0.044 C 
ATOM     20  C   UNL     1      -7.770  -5.669   2.933  0.00  0.00    +0.044 C 
ENDBRANCH   4  13
BRANCH   1  22
ATOM     21  C   UNL     1      -0.072   0.096  -0.415  0.00  0.00    +0.025 C 
ATOM     22  C   UNL     1      -0.505  -1.282   0.090  0.00  0.00    +0.111 C 
ENDBRANCH   1  22
BRANCH  10  23
ATOM     23  C   UNL     1      -2.302   0.152   5.308  0.00  0.00    +0.163 C 
BRANCH  23  24
ATOM     24  C   UNL     1      -2.728  -0.947   6.247  0.00  0.00    +0.238 C 
ATOM     25  O   UNL     1      -3.194  -1.975   5.804  0.00  0.00    -0.273 OA
ATOM     26  N   UNL     1      -2.591  -0.787   7.578  0.00  0.00    -0.284 N 
ATOM     27  H   UNL     1      -2.292   0.063   7.936  0.00  0.00    +0.155 HD
BRANCH  26  28
ATOM     28  C   UNL     1      -2.882  -1.847   8.444  0.00  0.00    +0.033 A 
ATOM     29  C   UNL     1      -3.392  -1.592   9.710  0.00  0.00    +0.023 A 
ATOM     30  C   UNL     1      -3.677  -2.641  10.562  0.00  0.00    +0.005 A 
ATOM     31  C   UNL     1      -3.455  -3.944  10.155  0.00  0.00    -0.050 A 
ATOM     32  C   UNL     1      -2.947  -4.201   8.895  0.00  0.00    +0.005 A 
ATOM     33  C   UNL     1      -2.666  -3.157   8.036  0.00  0.00    +0.023 A 
ATOM     34  C   UNL     1      -3.768  -5.086  11.088  0.00  0.00    +0.044 C 
ENDBRANCH  26  28
ENDBRANCH  23  24
BRANCH  23  35
ATOM     35  C   UNL     1      -3.101   1.421   5.612  0.00  0.00    +0.035 C 
BRANCH  35  36
ATOM     36  C   UNL     1      -2.552   2.582   4.780  0.00  0.00    -0.015 C 
ATOM     37  C   UNL     1      -2.851   2.335   3.300  0.00  0.00    +0.007 C 
ATOM     38  C   UNL     1      -3.216   3.886   5.224  0.00  0.00    +0.007 C 
ENDBRANCH  35  36
ENDBRANCH  23  35
ENDBRANCH  10  23
TORSDOF 7
