REMARK  Name = ZINC66532806
REMARK  5 active torsions:
REMARK  status: ('A' for Active; 'I' for Inactive)
REMARK    1  A    between atoms: C_1  and  C_2
REMARK    2  A    between atoms: C_2  and  C_4
REMARK    3  A    between atoms: C_2  and  N_12
REMARK    4  A    between atoms: N_15  and  C_18
REMARK    5  A    between atoms: C_18  and  C_19
REMARK                            x       y       z     vdW  Elec       q    Type
REMARK                         _______ _______ _______ _____ _____    ______ ____
ROOT
ATOM      1  N   UNL     1       0.386  -0.162  -1.747  0.00  0.00    -0.299 NA
ATOM      2  C   UNL     1       1.834   0.090  -1.741  0.00  0.00    +0.066 C 
ATOM      3  C   UNL     1       2.458  -0.505  -3.005  0.00  0.00    -0.063 C 
ATOM      4  N   UNL     1       1.841   0.106  -4.190  0.00  0.00    +0.385 N 
ATOM      5  C   UNL     1       0.400  -0.176  -4.195  0.00  0.00    -0.063 C 
ATOM      6  C   UNL     1      -0.241   0.422  -2.941  0.00  0.00    +0.066 C 
ATOM      7  H   UNL     1       1.989   1.104  -4.169  0.00  0.00    -0.081 HD
ENDROOT
BRANCH   1   9
ATOM      8  C   UNL     1       0.549  -0.139   0.697  0.00  0.00    +0.029 C 
ATOM      9  C   UNL     1      -0.242   0.346  -0.520  0.00  0.00    +0.086 C 
BRANCH   9  10
ATOM     10  C   UNL     1      -1.658  -0.162  -0.433  0.00  0.00    +0.005 A 
ATOM     11  C   UNL     1      -2.010  -1.341  -1.064  0.00  0.00    +0.011 A 
ATOM     12  C   UNL     1      -3.308  -1.807  -0.985  0.00  0.00    +0.039 A 
ATOM     13  C   UNL     1      -4.258  -1.094  -0.274  0.00  0.00    +0.126 A 
ATOM     14  C   UNL     1      -3.908   0.086   0.358  0.00  0.00    +0.077 A 
ATOM     15  C   UNL     1      -2.606   0.550   0.283  0.00  0.00    +0.131 A 
ATOM     16  F   UNL     1      -2.261   1.699   0.904  0.00  0.00    -0.205 F 
ATOM     17  F   UNL     1      -5.528  -1.550  -0.197  0.00  0.00    -0.205 F 
ENDBRANCH   9  10
ENDBRANCH   1   9
BRANCH   4  18
ATOM     18  C   UNL     1       2.453  -0.453  -5.403  0.00  0.00    -0.024 C 
BRANCH  18  19
ATOM     19  C   UNL     1       3.905  -0.055  -5.463  0.00  0.00    +0.006 A 
ATOM     20  C   UNL     1       4.870  -1.000  -5.391  0.00  0.00    +0.091 A 
ATOM     21  C   UNL     1       6.227  -0.624  -5.448  0.00  0.00    +0.275 A 
ATOM     22  O   UNL     1       7.099  -1.472  -5.385  0.00  0.00    -0.266 OA
ATOM     23  N   UNL     1       6.557   0.677  -5.573  0.00  0.00    -0.180 N 
ATOM     24  C   UNL     1       5.578   1.626  -5.644  0.00  0.00    +0.138 A 
ATOM     25  N   UNL     1       4.247   1.257  -5.594  0.00  0.00    -0.345 N 
ATOM     26  C   UNL     1       6.193   2.836  -5.766  0.00  0.00    +0.068 A 
ATOM     27  C   UNL     1       7.571   2.618  -5.768  0.00  0.00    +0.137 A 
ATOM     28  N   UNL     1       7.792   1.332  -5.653  0.00  0.00    -0.170 NA
ATOM     29  H   UNL     1       3.555   1.935  -5.649  0.00  0.00    +0.167 HD
ENDBRANCH  18  19
ENDBRANCH   4  18
TORSDOF 4
