REMARK  Name = ZINC39659923
REMARK  4 active torsions:
REMARK  status: ('A' for Active; 'I' for Inactive)
REMARK    1  A    between atoms: C_6  and  C_7
REMARK    2  A    between atoms: C_10  and  C_12
REMARK    3  A    between atoms: C_16  and  C_25
REMARK    4  A    between atoms: N_27  and  C_28
REMARK                            x       y       z     vdW  Elec       q    Type
REMARK                         _______ _______ _______ _____ _____    ______ ____
ROOT
ATOM      1  C   UNL     1      -5.029  -1.060   0.074  0.00  0.00    +0.282 C 
ATOM      2  O   UNL     1      -5.782  -2.015   0.024  0.00  0.00    -0.267 OA
ATOM      3  N   UNL     1      -5.525   0.192   0.045  0.00  0.00    -0.294 N 
ATOM      4  C   UNL     1      -4.773   1.468   0.088  0.00  0.00    +0.121 C 
ATOM      5  C   UNL     1      -5.514   2.392  -0.904  0.00  0.00    +0.100 C 
ATOM      6  C   UNL     1      -6.940   1.821  -0.982  0.00  0.00    -0.004 C 
ATOM      7  C   UNL     1      -6.946   0.604  -0.046  0.00  0.00    +0.115 C 
ATOM      8  C   UNL     1      -7.256   1.383  -2.409  0.00  0.00    -0.010 C 
ATOM      9  C   UNL     1      -8.698   0.872  -2.473  0.00  0.00    -0.082 C 
ATOM     10  N   UNL     1      -9.616   1.938  -2.053  0.00  0.00    +0.379 N 
ATOM     11  C   UNL     1      -9.366   2.289  -0.649  0.00  0.00    -0.082 C 
ATOM     12  C   UNL     1      -7.952   2.860  -0.508  0.00  0.00    -0.010 C 
ATOM     13  H   UNL     1      -9.473   2.751  -2.632  0.00  0.00    -0.086 HD
ATOM     14  H   UNL     1     -10.568   1.619  -2.154  0.00  0.00    -0.086 HD
ENDROOT
BRANCH   1  18
ATOM     15  C   UNL     1      -1.426  -0.874   0.305  0.00  0.00    +0.136 A 
ATOM     16  C   UNL     1      -1.574  -2.231   0.293  0.00  0.00    +0.050 A 
ATOM     17  C   UNL     1      -2.945  -2.494   0.205  0.00  0.00    +0.055 A 
ATOM     18  C   UNL     1      -3.582  -1.273   0.167  0.00  0.00    +0.190 A 
ATOM     19  O   UNL     1      -2.642  -0.307   0.234  0.00  0.00    -0.450 OA
BRANCH  15  25
ATOM     20  C   UNL     1      -0.125   1.248   0.399  0.00  0.00    +0.014 A 
ATOM     21  C   UNL     1       1.077   1.919   0.478  0.00  0.00    +0.039 A 
ATOM     22  C   UNL     1       2.266   1.211   0.548  0.00  0.00    +0.123 A 
ATOM     23  C   UNL     1       2.255  -0.175   0.538  0.00  0.00    +0.039 A 
ATOM     24  C   UNL     1       1.060  -0.858   0.459  0.00  0.00    +0.014 A 
ATOM     25  C   UNL     1      -0.142  -0.149   0.389  0.00  0.00    +0.017 A 
ATOM     26  F   UNL     1       3.441   1.874   0.625  0.00  0.00    -0.205 F 
ENDBRANCH  15  25
ENDBRANCH   1  18
BRANCH   5  27
ATOM     27  C   UNL     1      -5.540   3.807  -0.385  0.00  0.00    +0.218 C 
ATOM     28  O   UNL     1      -5.556   4.014   0.810  0.00  0.00    -0.275 OA
ATOM     29  N   UNL     1      -5.546   4.841  -1.248  0.00  0.00    -0.312 N 
ATOM     30  H   UNL     1      -5.534   4.676  -2.204  0.00  0.00    +0.149 HD
BRANCH  29  31
ATOM     31  C   UNL     1      -5.572   6.216  -0.744  0.00  0.00    +0.073 C 
ATOM     32  C   UNL     1      -4.145   6.673  -0.434  0.00  0.00    +0.022 C 
ATOM     33  C   UNL     1      -4.115   8.196  -0.294  0.00  0.00    +0.002 C 
ATOM     34  C   UNL     1      -4.709   8.595   1.059  0.00  0.00    +0.000 C 
ATOM     35  C   UNL     1      -6.233   8.468   1.005  0.00  0.00    +0.000 C 
ATOM     36  C   UNL     1      -6.748   9.059  -0.309  0.00  0.00    +0.000 C 
ATOM     37  C   UNL     1      -7.327   7.941  -1.179  0.00  0.00    +0.002 C 
ATOM     38  C   UNL     1      -6.184   7.137  -1.802  0.00  0.00    +0.022 C 
ENDBRANCH  29  31
ENDBRANCH   5  27
TORSDOF 4
