REMARK  Name = ZINC39522900
REMARK  3 active torsions:
REMARK  status: ('A' for Active; 'I' for Inactive)
REMARK    1  A    between atoms: C_4  and  O_22
REMARK    2  A    between atoms: C_5  and  C_7
REMARK    3  A    between atoms: N_13  and  O_14
REMARK                            x       y       z     vdW  Elec       q    Type
REMARK                         _______ _______ _______ _____ _____    ______ ____
ROOT
ATOM      1  C   UNL     1       1.227  -2.187  -0.022  0.00  0.00    +0.118 C 
ATOM      2  C   UNL     1       1.375  -2.703   1.411  0.00  0.00    +0.026 C 
ATOM      3  C   UNL     1       1.374  -4.234   1.399  0.00  0.00    +0.004 C 
ATOM      4  C   UNL     1       0.079  -4.731   0.751  0.00  0.00    +0.025 C 
ATOM      5  C   UNL     1      -0.032  -4.156  -0.663  0.00  0.00    +0.048 C 
ATOM      6  N   UNL     1      -0.027  -2.689  -0.598  0.00  0.00    -0.177 NA
ATOM      7  C   UNL     1       1.155  -4.634  -1.502  0.00  0.00    +0.025 C 
ATOM      8  C   UNL     1       1.150  -6.163  -1.567  0.00  0.00    +0.003 C 
ATOM      9  C   UNL     1      -0.153  -6.641  -2.209  0.00  0.00    +0.015 C 
ATOM     10  C   UNL     1      -1.341  -6.163  -1.371  0.00  0.00    +0.058 C 
ATOM     11  C   UNL     1      -1.335  -4.634  -1.306  0.00  0.00    +0.039 C 
ATOM     12 BR   UNL     1      -3.016  -6.777  -2.196  0.00  0.00    -0.088 Br
ENDROOT
BRANCH   1  17
ATOM     13  C   UNL     1      -0.017   1.378   0.010  0.00  0.00    +0.001 A 
ATOM     14  C   UNL     1       1.170   2.088   0.002  0.00  0.00    +0.004 A 
ATOM     15  C   UNL     1       2.377   1.417  -0.013  0.00  0.00    +0.046 A 
ATOM     16  C   UNL     1       2.399   0.030  -0.021  0.00  0.00    +0.122 A 
ATOM     17  C   UNL     1       1.207  -0.680  -0.013  0.00  0.00    +0.013 A 
ATOM     18  C   UNL     1       0.002  -0.004   0.002  0.00  0.00    +0.009 A 
BRANCH  16  19
ATOM     19  O   UNL     1       3.586  -0.632  -0.037  0.00  0.00    -0.506 OA
ATOM     20  H   UNL     1       3.938  -0.829   0.842  0.00  0.00    +0.292 HD
ENDBRANCH  16  19
ENDBRANCH   1  17
BRANCH   6  21
ATOM     21  O   UNL     1      -0.269  -2.105  -1.917  0.00  0.00    -0.311 OA
ATOM     22  H   UNL     1      -0.279  -1.138  -1.923  0.00  0.00    +0.237 HD
ENDBRANCH   6  21
TORSDOF 3
