REMARK  Name = ZINC53364449
REMARK  10 active torsions:
REMARK  status: ('A' for Active; 'I' for Inactive)
REMARK    1  A    between atoms: C_1  and  C_2
REMARK    2  A    between atoms: C_2  and  O_3
REMARK    3  A    between atoms: O_3  and  C_4
REMARK    4  A    between atoms: C_8  and  C_11
REMARK    5  A    between atoms: C_9  and  O_10
REMARK    6  A    between atoms: C_14  and  C_28
REMARK    7  A    between atoms: C_16  and  C_19
REMARK    8  A    between atoms: C_22  and  O_26
REMARK    9  A    between atoms: O_26  and  C_27
REMARK   10  A    between atoms: C_31  and  C_34
REMARK                            x       y       z     vdW  Elec       q    Type
REMARK                         _______ _______ _______ _____ _____    ______ ____
ROOT
ATOM      1  C   UNL     1       2.274  -4.308   3.755  0.00  0.00    +0.095 C 
ATOM      2  C   UNL     1       1.296  -4.426   4.927  0.00  0.00    +0.079 C 
ATOM      3  C   UNL     1       1.903  -5.283   6.003  0.00  0.00    +0.047 C 
ATOM      4  N   UNL     1       2.916  -6.040   5.805  0.00  0.00    -0.264 NA
ATOM      5  C   UNL     1       3.610  -6.161   4.529  0.00  0.00    +0.204 C 
ATOM      6  N   UNL     1       2.774  -5.656   3.433  0.00  0.00    -0.284 NA
ATOM      7  H   UNL     1       2.011  -6.288   3.240  0.00  0.00    +0.125 HD
ENDROOT
BRANCH   5   8
ATOM      8  C   UNL     1       3.935  -7.611   4.277  0.00  0.00    -0.008 A 
ATOM      9  C   UNL     1       4.009  -8.086   2.981  0.00  0.00    +0.010 A 
ATOM     10  C   UNL     1       4.307  -9.415   2.747  0.00  0.00    +0.047 A 
ATOM     11  C   UNL     1       4.532 -10.273   3.813  0.00  0.00    +0.134 A 
ATOM     12  C   UNL     1       4.458  -9.793   5.114  0.00  0.00    +0.060 A 
ATOM     13  C   UNL     1       4.165  -8.462   5.342  0.00  0.00    +0.026 A 
ATOM     14 BR   UNL     1       4.763 -10.959   6.571  0.00  0.00    -0.047 Br
BRANCH  11  15
ATOM     15  O   UNL     1       4.825 -11.580   3.585  0.00  0.00    -0.494 OA
ATOM     16  C   UNL     1       4.885 -12.003   2.222  0.00  0.00    +0.277 C 
ENDBRANCH  11  15
ENDBRANCH   5   8
BRANCH   3  17
ATOM     17  C   UNL     1       1.303  -5.249   7.351  0.00  0.00    -0.004 A 
ATOM     18  C   UNL     1       0.194  -4.439   7.605  0.00  0.00    +0.010 A 
ATOM     19  C   UNL     1      -0.361  -4.412   8.868  0.00  0.00    +0.004 A 
ATOM     20  C   UNL     1       0.178  -5.184   9.881  0.00  0.00    -0.050 A 
ATOM     21  C   UNL     1       1.278  -5.988   9.637  0.00  0.00    +0.004 A 
ATOM     22  C   UNL     1       1.839  -6.030   8.377  0.00  0.00    +0.010 A 
ATOM     23  C   UNL     1      -0.434  -5.149  11.258  0.00  0.00    +0.044 C 
ENDBRANCH   3  17
BRANCH   1  28
ATOM     24  C   UNL     1       0.802  -1.825   1.306  0.00  0.00    +0.162 A 
ATOM     25  C   UNL     1       0.261  -2.673   0.353  0.00  0.00    +0.049 A 
ATOM     26  C   UNL     1       0.372  -4.043   0.502  0.00  0.00    +0.004 A 
ATOM     27  C   UNL     1       1.024  -4.570   1.602  0.00  0.00    +0.009 A 
ATOM     28  C   UNL     1       1.566  -3.730   2.557  0.00  0.00    +0.015 A 
ATOM     29  C   UNL     1       1.462  -2.356   2.410  0.00  0.00    +0.163 A 
BRANCH  29  30
ATOM     30  O   UNL     1       2.000  -1.528   3.345  0.00  0.00    -0.503 OA
ATOM     31  H   UNL     1       1.395  -1.301   4.064  0.00  0.00    +0.292 HD
ENDBRANCH  29  30
BRANCH  24  32
ATOM     32  O   UNL     1       0.693  -0.477   1.160  0.00  0.00    -0.489 OA
BRANCH  32  34
ATOM     33  C   UNL     1      -0.019   1.526   0.010  0.00  0.00    +0.048 C 
ATOM     34  C   UNL     1       0.002  -0.004   0.002  0.00  0.00    +0.226 C 
ENDBRANCH  32  34
ENDBRANCH  24  32
ENDBRANCH   1  28
TORSDOF 7
