REMARK  Name = ZINC34749190
REMARK  9 active torsions:
REMARK  status: ('A' for Active; 'I' for Inactive)
REMARK    1  A    between atoms: C_1  and  C_2
REMARK    2  A    between atoms: C_2  and  C_3
REMARK    3  A    between atoms: C_4  and  C_36
REMARK    4  A    between atoms: N_10  and  C_28
REMARK    5  A    between atoms: N_16  and  C_19
REMARK    6  A    between atoms: C_19  and  C_20
REMARK    7  A    between atoms: C_22  and  C_27
REMARK    8  A    between atoms: C_25  and  C_26
REMARK    9  A    between atoms: C_28  and  C_29
REMARK                            x       y       z     vdW  Elec       q    Type
REMARK                         _______ _______ _______ _____ _____    ______ ____
ROOT
ATOM      1  C   UNL     1      -0.959  -0.484  -0.475  0.00  0.00    -0.023 A 
ATOM      2  C   UNL     1      -1.536   0.362   0.392  0.00  0.00    -0.007 A 
ATOM      3  S   UNL     1      -3.209   0.494  -0.210  0.00  0.00    -0.073 S 
ATOM      4  C   UNL     1      -3.085  -0.591  -1.609  0.00  0.00    +0.117 A 
ATOM      5  C   UNL     1      -1.745  -1.020  -1.573  0.00  0.00    +0.076 A 
ATOM      6  C   UNL     1      -1.352  -1.922  -2.612  0.00  0.00    +0.264 A 
ATOM      7  O   UNL     1      -0.212  -2.352  -2.658  0.00  0.00    -0.267 OA
ATOM      8  N   UNL     1      -2.258  -2.291  -3.536  0.00  0.00    -0.276 N 
ATOM      9  C   UNL     1      -3.537  -1.821  -3.500  0.00  0.00    +0.202 A 
ATOM     10  N   UNL     1      -3.929  -0.998  -2.550  0.00  0.00    -0.208 NA
ATOM     11  N   UNL     1      -4.432  -2.219  -4.462  0.00  0.00    -0.304 N 
ATOM     12  C   UNL     1      -4.090  -2.146  -5.891  0.00  0.00    +0.089 C 
ATOM     13  C   UNL     1      -5.224  -1.424  -6.626  0.00  0.00    -0.059 C 
ATOM     14  N   UNL     1      -6.497  -2.097  -6.341  0.00  0.00    +0.384 N 
ATOM     15  C   UNL     1      -6.816  -1.982  -4.913  0.00  0.00    -0.059 C 
ATOM     16  C   UNL     1      -5.759  -2.737  -4.093  0.00  0.00    +0.089 C 
ATOM     17  C   UNL     1      -0.918   1.038   1.588  0.00  0.00    +0.052 C 
ATOM     18  H   UNL     1      -6.423  -3.072  -6.591  0.00  0.00    -0.081 HD
ENDROOT
BRANCH   1  20
ATOM     19  C   UNL     1       1.367   0.121  -1.086  0.00  0.00    +0.009 C 
ATOM     20  C   UNL     1       0.489  -0.868  -0.315  0.00  0.00    +0.033 C 
ENDBRANCH   1  20
BRANCH  14  21
ATOM     21  C   UNL     1      -7.566  -1.473  -7.132  0.00  0.00    -0.043 C 
BRANCH  21  22
ATOM     22  C   UNL     1      -8.841  -2.260  -6.963  0.00  0.00    -0.061 A 
ATOM     23  C   UNL     1      -9.839  -1.788  -6.130  0.00  0.00    +0.005 A 
ATOM     24  C   UNL     1     -11.008  -2.509  -5.975  0.00  0.00    -0.050 A 
ATOM     25  C   UNL     1     -11.179  -3.702  -6.653  0.00  0.00    +0.003 A 
ATOM     26  C   UNL     1     -10.181  -4.173  -7.485  0.00  0.00    +0.004 A 
ATOM     27  C   UNL     1      -9.014  -3.450  -7.644  0.00  0.00    -0.049 A 
ATOM     28  C   UNL     1      -7.928  -3.961  -8.556  0.00  0.00    +0.044 C 
ATOM     29  C   UNL     1     -12.095  -1.996  -5.067  0.00  0.00    +0.044 C 
ENDBRANCH  21  22
ENDBRANCH  14  21
BRANCH   8  30
ATOM     30  C   UNL     1      -1.861  -3.214  -4.602  0.00  0.00    +0.163 C 
BRANCH  30  31
ATOM     31  C   UNL     1      -2.147  -4.630  -4.173  0.00  0.00    -0.027 A 
ATOM     32  C   UNL     1      -1.224  -5.321  -3.411  0.00  0.00    +0.007 A 
ATOM     33  C   UNL     1      -1.485  -6.619  -3.017  0.00  0.00    +0.020 A 
ATOM     34  C   UNL     1      -2.672  -7.228  -3.385  0.00  0.00    +0.041 A 
ATOM     35  C   UNL     1      -3.596  -6.536  -4.147  0.00  0.00    +0.020 A 
ATOM     36  C   UNL     1      -3.336  -5.235  -4.536  0.00  0.00    +0.007 A 
ATOM     37 CL   UNL     1      -3.001  -8.859  -2.890  0.00  0.00    -0.084 Cl
ENDBRANCH  30  31
ENDBRANCH   8  30
TORSDOF 5
