REMARK  Name = ZINC31315096
REMARK  5 active torsions:
REMARK  status: ('A' for Active; 'I' for Inactive)
REMARK    1  A    between atoms: C_8  and  C_10
REMARK    2  A    between atoms: N_12  and  C_13
REMARK    3  A    between atoms: C_13  and  C_14
REMARK    4  A    between atoms: N_16  and  C_17
REMARK    5  A    between atoms: C_17  and  C_18
REMARK                            x       y       z     vdW  Elec       q    Type
REMARK                         _______ _______ _______ _____ _____    ______ ____
ROOT
ATOM      1  C   UNL     1       3.107  10.133   0.029  0.00  0.00    +0.230 C 
ATOM      2  O   UNL     1       1.896  10.204   0.041  0.00  0.00    -0.274 OA
ATOM      3  N   UNL     1       3.848  11.258   0.028  0.00  0.00    -0.310 N 
ATOM      4  H   UNL     1       4.946  11.194   0.017  0.00  0.00    +0.149 HD
ENDROOT
BRANCH   1   5
ATOM      5  C   UNL     1       3.782   8.786   0.015  0.00  0.00    +0.200 C 
BRANCH   5   8
ATOM      6  C   UNL     1       3.140   6.435   0.008  0.00  0.00    +0.253 C 
ATOM      7  O   UNL     1       4.321   6.143  -0.006  0.00  0.00    -0.270 OA
ATOM      8  N   UNL     1       2.767   7.730   0.019  0.00  0.00    -0.302 N 
ATOM      9  H   UNL     1       1.699   7.994   0.031  0.00  0.00    +0.150 HD
BRANCH   6  17
ATOM     10  C   UNL     1      -0.013   1.076   0.008  0.00  0.00    +0.001 A 
ATOM     11  C   UNL     1      -1.235   1.737   0.017  0.00  0.00    +0.001 A 
ATOM     12  C   UNL     1      -1.261   3.117   0.030  0.00  0.00    +0.016 A 
ATOM     13  C   UNL     1      -0.075   3.819   0.023  0.00  0.00    +0.021 A 
ATOM     14  C   UNL     1       1.184   3.173   0.008  0.00  0.00    +0.008 A 
ATOM     15  C   UNL     1       1.164   1.754   0.000  0.00  0.00    +0.010 A 
ATOM     16  C   UNL     1       2.301   4.028   0.002  0.00  0.00    +0.068 A 
ATOM     17  C   UNL     1       2.122   5.377   0.011  0.00  0.00    +0.093 A 
ATOM     18  S   UNL     1       0.346   5.544   0.029  0.00  0.00    -0.082 S 
ATOM     19 CL   UNL     1       3.905   3.364  -0.017  0.00  0.00    -0.082 Cl
ENDBRANCH   6  17
ENDBRANCH   5   8
ENDBRANCH   1   5
BRANCH   3  20
ATOM     20  C   UNL     1       3.192  12.568   0.042  0.00  0.00    +0.141 C 
BRANCH  20  21
ATOM     21  C   UNL     1       4.236  13.654   0.038  0.00  0.00    -0.014 A 
ATOM     22  C   UNL     1       4.711  14.166  -1.163  0.00  0.00    +0.010 A 
ATOM     23  C   UNL     1       5.670  15.162  -1.122  0.00  0.00    +0.042 A 
ATOM     24  C   UNL     1       6.123  15.615   0.113  0.00  0.00    +0.099 A 
ATOM     25  N   UNL     1       5.646  15.101   1.236  0.00  0.00    -0.349 N 
ATOM     26  C   UNL     1       4.727  14.153   1.227  0.00  0.00    +0.089 A 
ATOM     27  N   UNL     1       7.086  16.616   0.168  0.00  0.00    -0.317 N 
ATOM     28  C   UNL     1       6.580  17.875  -0.435  0.00  0.00    +0.106 C 
ATOM     29  C   UNL     1       7.512  18.956   0.168  0.00  0.00    +0.020 C 
ATOM     30  C   UNL     1       7.731  18.456   1.615  0.00  0.00    +0.020 C 
ATOM     31  C   UNL     1       7.426  16.947   1.569  0.00  0.00    +0.106 C 
ATOM     32  H   UNL     1       6.015  15.462   2.207  0.00  0.00    +0.167 HD
ENDBRANCH  20  21
ENDBRANCH   3  20
TORSDOF 5
