REMARK  Name = ZINC39611058
REMARK  8 active torsions:
REMARK  status: ('A' for Active; 'I' for Inactive)
REMARK    1  A    between atoms: C_1  and  O_2
REMARK    2  A    between atoms: O_2  and  C_3
REMARK    3  A    between atoms: C_8  and  N_9
REMARK    4  A    between atoms: N_9  and  S_10
REMARK    5  A    between atoms: S_10  and  C_13
REMARK    6  A    between atoms: C_17  and  C_19
REMARK    7  A    between atoms: N_21  and  N_22
REMARK    8  A    between atoms: C_23  and  C_25
REMARK                            x       y       z     vdW  Elec       q    Type
REMARK                         _______ _______ _______ _____ _____    ______ ____
ROOT
ATOM      1  C   UNL     1       2.054  -3.430  -5.435  0.00  0.00    +0.260 C 
ATOM      2  O   UNL     1       3.151  -3.455  -4.913  0.00  0.00    -0.269 OA
ATOM      3  N   UNL     1       1.944  -3.245  -6.765  0.00  0.00    -0.230 N 
ATOM      4  H   UNL     1       1.068  -3.225  -7.181  0.00  0.00    +0.173 HD
ENDROOT
BRANCH   1   9
ATOM      5  C   UNL     1      -0.188  -3.953  -2.467  0.00  0.00    +0.109 A 
ATOM      6  C   UNL     1      -1.437  -3.924  -3.064  0.00  0.00    +0.029 A 
ATOM      7  C   UNL     1      -1.553  -3.734  -4.430  0.00  0.00    +0.003 A 
ATOM      8  C   UNL     1      -0.423  -3.573  -5.205  0.00  0.00    +0.013 A 
ATOM      9  C   UNL     1       0.839  -3.601  -4.609  0.00  0.00    +0.040 A 
ATOM     10  C   UNL     1       0.949  -3.787  -3.230  0.00  0.00    +0.042 A 
BRANCH   5  11
ATOM     11  S   UNL     1      -0.052  -4.196  -0.727  0.00  0.00    +0.072 S 
ATOM     12  O   UNL     1       1.247  -4.722  -0.491  0.00  0.00    -0.150 OA
ATOM     13  O   UNL     1      -1.233  -4.870  -0.317  0.00  0.00    -0.150 OA
BRANCH  11  14
ATOM     14  N   UNL     1      -0.092  -2.699  -0.020  0.00  0.00    -0.213 N 
ATOM     15  H   UNL     1       0.659  -2.394   0.513  0.00  0.00    +0.174 HD
BRANCH  14  21
ATOM     16  C   UNL     1      -1.050  -0.493  -0.290  0.00  0.00    +0.142 A 
ATOM     17  C   UNL     1      -2.159   0.318  -0.465  0.00  0.00    +0.047 A 
ATOM     18  C   UNL     1      -3.421  -0.242  -0.534  0.00  0.00    +0.004 A 
ATOM     19  C   UNL     1      -3.581  -1.611  -0.430  0.00  0.00    +0.002 A 
ATOM     20  C   UNL     1      -2.479  -2.428  -0.255  0.00  0.00    +0.028 A 
ATOM     21  C   UNL     1      -1.209  -1.874  -0.190  0.00  0.00    +0.090 A 
BRANCH  16  23
ATOM     22  C   UNL     1       0.280   1.478  -0.331  0.00  0.00    +0.277 C 
ATOM     23  O   UNL     1       0.193   0.056  -0.222  0.00  0.00    -0.493 OA
ENDBRANCH  16  23
ENDBRANCH  14  21
ENDBRANCH  11  14
ENDBRANCH   5  11
ENDBRANCH   1   9
BRANCH   3  24
ATOM     24  N   UNL     1       3.095  -3.083  -7.547  0.00  0.00    -0.230 N 
ATOM     25  C   UNL     1       2.985  -2.899  -8.878  0.00  0.00    +0.257 C 
ATOM     26  O   UNL     1       1.888  -2.873  -9.399  0.00  0.00    -0.269 OA
ATOM     27  H   UNL     1       3.971  -3.103  -7.131  0.00  0.00    +0.173 HD
BRANCH  25  28
ATOM     28  C   UNL     1       4.199  -2.727  -9.702  0.00  0.00    +0.033 C 
ATOM     29  C   UNL     1       4.120  -2.419 -11.044  0.00  0.00    +0.005 A 
ATOM     30  C   UNL     1       2.825  -2.250 -11.704  0.00  0.00    +0.010 A 
ATOM     31  C   UNL     1       2.800  -1.947 -13.025  0.00  0.00    +0.001 A 
ATOM     32  C   UNL     1       3.980  -1.795 -13.764  0.00  0.00    +0.002 A 
ATOM     33  C   UNL     1       5.211  -1.938 -13.215  0.00  0.00    +0.024 A 
ATOM     34  C   UNL     1       5.351  -2.253 -11.846  0.00  0.00    +0.041 A 
ATOM     35  N   UNL     1       6.558  -2.391 -11.316  0.00  0.00    -0.285 N 
ATOM     36  C   UNL     1       6.764  -2.687 -10.039  0.00  0.00    +0.222 C 
ATOM     37  O   UNL     1       7.898  -2.801  -9.616  0.00  0.00    -0.275 OA
ATOM     38  C   UNL     1       5.587  -2.876  -9.108  0.00  0.00    +0.137 C 
ATOM     39  H   UNL     1       7.330  -2.271 -11.891  0.00  0.00    +0.155 HD
ENDBRANCH  25  28
ENDBRANCH   3  24
TORSDOF 7
