REMARK  Name = ZINC05837124
REMARK  11 active torsions:
REMARK  status: ('A' for Active; 'I' for Inactive)
REMARK    1  A    between atoms: C_1  and  C_2
REMARK    2  A    between atoms: C_2  and  C_3
REMARK    3  A    between atoms: C_3  and  O_4
REMARK    4  A    between atoms: O_4  and  C_5
REMARK    5  A    between atoms: C_8  and  C_11
REMARK    6  A    between atoms: C_18  and  N_33
REMARK    7  A    between atoms: C_19  and  C_31
REMARK    8  A    between atoms: C_20  and  C_22
REMARK    9  A    between atoms: C_25  and  N_28
REMARK   10  A    between atoms: N_28  and  C_29
REMARK   11  A    between atoms: N_28  and  C_30
REMARK                            x       y       z     vdW  Elec       q    Type
REMARK                         _______ _______ _______ _____ _____    ______ ____
ROOT
ATOM      1  C   UNL     1       3.346  -4.483   5.527  0.00  0.00    +0.074 A 
ATOM      2  C   UNL     1       4.142  -5.576   5.450  0.00  0.00    +0.054 A 
ATOM      3  C   UNL     1       4.585  -5.887   6.751  0.00  0.00    +0.245 A 
ATOM      4  N   UNL     1       4.074  -5.017   7.576  0.00  0.00    -0.135 NA
ATOM      5  N   UNL     1       3.292  -4.113   6.841  0.00  0.00    -0.273 N 
ATOM      6  H   UNL     1       2.800  -3.359   7.202  0.00  0.00    +0.189 HD
ATOM      7  O   UNL     1       5.409  -6.941   6.999  0.00  0.00    -0.421 OA
ATOM      8  C   UNL     1       6.012  -7.521   5.943  0.00  0.00    +0.201 C 
ATOM      9  C   UNL     1       5.667  -7.310   4.655  0.00  0.00    +0.098 C 
ATOM     10  C   UNL     1       4.546  -6.388   4.246  0.00  0.00    +0.102 C 
ENDROOT
BRANCH   1  14
ATOM     11  C   UNL     1       1.392  -2.554   2.282  0.00  0.00    +0.121 A 
ATOM     12  C   UNL     1       0.688  -2.837   3.445  0.00  0.00    +0.046 A 
ATOM     13  C   UNL     1       1.318  -3.463   4.500  0.00  0.00    +0.013 A 
ATOM     14  C   UNL     1       2.665  -3.812   4.397  0.00  0.00    +0.000 A 
ATOM     15  C   UNL     1       3.369  -3.526   3.227  0.00  0.00    +0.013 A 
ATOM     16  C   UNL     1       2.731  -2.905   2.175  0.00  0.00    +0.046 A 
BRANCH  11  17
ATOM     17  O   UNL     1       0.767  -1.937   1.245  0.00  0.00    -0.492 OA
BRANCH  17  18
ATOM     18  C   UNL     1      -0.611  -1.604   1.423  0.00  0.00    +0.229 C 
BRANCH  18  20
ATOM     19  C   UNL     1      -2.614  -0.565   0.350  0.00  0.00    +0.007 C 
ATOM     20  C   UNL     1      -1.138  -0.922   0.160  0.00  0.00    +0.038 C 
ENDBRANCH  18  20
ENDBRANCH  17  18
ENDBRANCH  11  17
ENDBRANCH   1  14
BRANCH  10  21
ATOM     21  C   UNL     1       3.371  -7.199   3.763  0.00  0.00    -0.034 A 
ATOM     22  C   UNL     1       2.713  -8.047   4.634  0.00  0.00    +0.006 A 
ATOM     23  C   UNL     1       1.636  -8.792   4.195  0.00  0.00    +0.023 A 
ATOM     24  C   UNL     1       1.215  -8.689   2.875  0.00  0.00    +0.029 A 
ATOM     25  C   UNL     1       1.879  -7.836   2.002  0.00  0.00    +0.023 A 
ATOM     26  C   UNL     1       2.951  -7.090   2.450  0.00  0.00    +0.006 A 
BRANCH  24  27
ATOM     27  N   UNL     1       0.127  -9.441   2.427  0.00  0.00    -0.336 N 
ATOM     28  C   UNL     1      -0.643 -10.251   3.374  0.00  0.00    +0.129 C 
ATOM     29  C   UNL     1      -0.244  -9.420   1.010  0.00  0.00    +0.129 C 
ENDBRANCH  24  27
ENDBRANCH  10  21
BRANCH   8  30
ATOM     30  N   UNL     1       7.048  -8.385   6.194  0.00  0.00    -0.328 N 
ATOM     31  H   UNL     1       7.322  -8.561   7.107  0.00  0.00    +0.145 HD
ATOM     32  H   UNL     1       7.505  -8.821   5.457  0.00  0.00    +0.145 HD
ENDBRANCH   8  30
BRANCH   9  33
ATOM     33  C   UNL     1       6.400  -7.992   3.631  0.00  0.00    +0.101 C 
ATOM     34  N   UNL     1       6.981  -8.533   2.818  0.00  0.00    -0.191 NA
ENDBRANCH   9  33
TORSDOF 8
