REMARK  Name = ZINC09072500
REMARK  5 active torsions:
REMARK  status: ('A' for Active; 'I' for Inactive)
REMARK    1  A    between atoms: C_1  and  C_2
REMARK    2  A    between atoms: N_12  and  C_15
REMARK    3  A    between atoms: C_15  and  C_16
REMARK    4  A    between atoms: C_16  and  C_17
REMARK    5  A    between atoms: C_16  and  C_18
REMARK                            x       y       z     vdW  Elec       q    Type
REMARK                         _______ _______ _______ _____ _____    ______ ____
ROOT
ATOM      1  C   UNL     1      -1.868   2.744   2.572  0.00  0.00    +0.019 C 
ATOM      2  C   UNL     1      -3.216   2.469   1.903  0.00  0.00    +0.090 C 
ATOM      3  C   UNL     1      -3.407   0.960   1.747  0.00  0.00    +0.126 C 
ATOM      4  N   UNL     1      -2.596   0.469   0.630  0.00  0.00    -0.272 N 
ATOM      5  C   UNL     1      -1.287   0.949   0.482  0.00  0.00    +0.057 A 
ATOM      6  C   UNL     1      -0.202   0.139   0.772  0.00  0.00    +0.025 A 
ATOM      7  C   UNL     1       1.082   0.642   0.656  0.00  0.00    +0.002 A 
ATOM      8  C   UNL     1       1.284   1.950   0.257  0.00  0.00    +0.002 A 
ATOM      9  C   UNL     1       0.205   2.764  -0.037  0.00  0.00    +0.025 A 
ATOM     10  C   UNL     1      -1.083   2.266   0.068  0.00  0.00    +0.058 A 
ATOM     11  N   UNL     1      -2.188   3.057  -0.266  0.00  0.00    -0.269 N 
ATOM     12  C   UNL     1      -3.249   3.137   0.553  0.00  0.00    +0.224 C 
ATOM     13  O   UNL     1      -4.235   3.754   0.210  0.00  0.00    -0.275 OA
ATOM     14  C   UNL     1      -3.101  -0.428  -0.240  0.00  0.00    +0.332 C 
ATOM     15  O   UNL     1      -4.234  -0.836  -0.102  0.00  0.00    -0.279 OA
ENDROOT
BRANCH  11  16
ATOM     16  C   UNL     1      -2.196   3.798  -1.530  0.00  0.00    +0.116 C 
BRANCH  16  17
ATOM     17  C   UNL     1      -2.808   2.927  -2.628  0.00  0.00    +0.001 C 
ATOM     18  C   UNL     1      -4.280   2.660  -2.307  0.00  0.00    +0.009 C 
ATOM     19  C   UNL     1      -2.704   3.652  -3.972  0.00  0.00    +0.009 C 
ENDBRANCH  16  17
ENDBRANCH  11  16
TORSDOF 2
