REMARK  Name = ZINC64403259
REMARK  10 active torsions:
REMARK  status: ('A' for Active; 'I' for Inactive)
REMARK    1  A    between atoms: C_1  and  C_2
REMARK    2  A    between atoms: C_4  and  N_8
REMARK    3  A    between atoms: C_9  and  C_11
REMARK    4  A    between atoms: C_11  and  S_12
REMARK    5  A    between atoms: S_12  and  C_13
REMARK    6  A    between atoms: C_17  and  O_35
REMARK    7  A    between atoms: C_18  and  O_33
REMARK    8  A    between atoms: C_25  and  C_27
REMARK    9  A    between atoms: O_33  and  C_34
REMARK   10  A    between atoms: O_35  and  C_36
REMARK                            x       y       z     vdW  Elec       q    Type
REMARK                         _______ _______ _______ _____ _____    ______ ____
ROOT
ATOM      1  C   UNL     1      -2.879  -7.294  -3.447  0.00  0.00    +0.176 C 
ATOM      2  N   UNL     1      -2.779  -6.628  -4.585  0.00  0.00    -0.224 NA
ATOM      3  C   UNL     1      -3.104  -7.217  -5.780  0.00  0.00    +0.077 A 
ATOM      4  C   UNL     1      -2.646  -6.647  -6.971  0.00  0.00    +0.077 A 
ATOM      5  C   UNL     1      -2.970  -7.226  -8.184  0.00  0.00    +0.164 A 
ATOM      6  C   UNL     1      -3.754  -8.376  -8.225  0.00  0.00    +0.162 A 
ATOM      7  C   UNL     1      -4.209  -8.946  -7.046  0.00  0.00    +0.058 A 
ATOM      8  C   UNL     1      -3.885  -8.376  -5.835  0.00  0.00    +0.023 A 
ATOM      9  C   UNL     1      -4.357  -8.992  -4.540  0.00  0.00    +0.223 C 
ATOM     10  N   UNL     1      -3.362  -8.573  -3.520  0.00  0.00    -0.203 N 
ATOM     11  N   UNL     1      -3.050  -9.729  -2.816  0.00  0.00    -0.245 N 
ATOM     12  C   UNL     1      -3.476 -10.813  -3.553  0.00  0.00    +0.118 C 
ATOM     13  N   UNL     1      -4.236 -10.453  -4.567  0.00  0.00    -0.348 N 
ATOM     14  H   UNL     1      -2.608  -9.767  -1.953  0.00  0.00    +0.172 HD
ATOM     15  H   UNL     1      -4.636 -11.044  -5.224  0.00  0.00    +0.163 HD
ENDROOT
BRANCH  12  16
ATOM     16  C   UNL     1      -3.134 -12.218  -3.234  0.00  0.00    +0.014 A 
ATOM     17  C   UNL     1      -3.026 -13.161  -4.255  0.00  0.00    +0.011 A 
ATOM     18  C   UNL     1      -2.708 -14.469  -3.951  0.00  0.00    +0.001 A 
ATOM     19  C   UNL     1      -2.495 -14.845  -2.636  0.00  0.00    +0.000 A 
ATOM     20  C   UNL     1      -2.601 -13.913  -1.619  0.00  0.00    +0.001 A 
ATOM     21  C   UNL     1      -2.914 -12.601  -1.911  0.00  0.00    +0.011 A 
ENDBRANCH  12  16
BRANCH   6  22
ATOM     22  O   UNL     1      -4.075  -8.939  -9.422  0.00  0.00    -0.491 OA
ATOM     23  C   UNL     1      -4.882 -10.118  -9.388  0.00  0.00    +0.277 C 
ENDBRANCH   6  22
BRANCH   5  24
ATOM     24  O   UNL     1      -2.522  -6.669  -9.342  0.00  0.00    -0.491 OA
ATOM     25  C   UNL     1      -1.723  -5.490  -9.228  0.00  0.00    +0.277 C 
ENDBRANCH   5  24
BRANCH   1  26
ATOM     26  S   UNL     1      -2.407  -6.573  -1.910  0.00  0.00    -0.080 S 
BRANCH  26  27
ATOM     27  C   UNL     1      -1.851  -4.906  -2.361  0.00  0.00    +0.173 C 
BRANCH  27  29
ATOM     28  N   UNL     1      -0.957  -2.905  -1.213  0.00  0.00    -0.288 N 
ATOM     29  C   UNL     1      -1.413  -4.170  -1.120  0.00  0.00    +0.225 C 
ATOM     30  O   UNL     1      -1.470  -4.717  -0.039  0.00  0.00    -0.275 OA
ATOM     31  H   UNL     1      -0.911  -2.468  -2.078  0.00  0.00    +0.151 HD
BRANCH  28  35
ATOM     32  C   UNL     1      -0.018   1.503   0.010  0.00  0.00    +0.067 C 
ATOM     33  C   UNL     1       0.002  -0.004   0.002  0.00  0.00    +0.060 C 
ATOM     34  C   UNL     1      -1.086  -0.777   0.003  0.00  0.00    +0.045 C 
ATOM     35  C   UNL     1      -0.531  -2.190  -0.007  0.00  0.00    +0.239 C 
ATOM     36  N   UNL     1       0.926  -1.973  -0.013  0.00  0.00    -0.160 NA
ATOM     37  N   UNL     1       1.125  -0.756  -0.013  0.00  0.00    -0.157 NA
ENDBRANCH  28  35
ENDBRANCH  27  29
ENDBRANCH  26  27
ENDBRANCH   1  26
TORSDOF 7
