REMARK  Name = ZINC12150910
REMARK  8 active torsions:
REMARK  status: ('A' for Active; 'I' for Inactive)
REMARK    1  A    between atoms: C_1  and  C_2
REMARK    2  A    between atoms: C_6  and  C_10
REMARK    3  A    between atoms: C_10  and  N_11
REMARK    4  A    between atoms: C_12  and  C_18
REMARK    5  A    between atoms: C_18  and  C_19
REMARK    6  A    between atoms: C_19  and  N_52
REMARK    7  A    between atoms: C_20  and  C_21
REMARK    8  A    between atoms: C_20  and  N_52
REMARK                            x       y       z     vdW  Elec       q    Type
REMARK                         _______ _______ _______ _____ _____    ______ ____
ROOT
ATOM      1  N   UNL     1       2.507   1.067  -1.458  0.00  0.00    -0.293 N 
ATOM      2  C   UNL     1       2.905  -0.010  -2.372  0.00  0.00    +0.075 C 
ATOM      3  C   UNL     1       3.155   0.679  -3.733  0.00  0.00    +0.031 C 
ATOM      4  C   UNL     1       3.514   2.118  -3.295  0.00  0.00    +0.098 C 
ATOM      5  C   UNL     1       2.845   2.272  -1.947  0.00  0.00    +0.216 C 
ATOM      6  O   UNL     1       2.644   3.330  -1.389  0.00  0.00    -0.276 OA
ENDROOT
BRANCH   1   7
ATOM      7  C   UNL     1       1.834   0.855  -0.174  0.00  0.00    +0.165 C 
BRANCH   7  13
ATOM      8  C   UNL     1      -5.547   0.486  -1.204  0.00  0.00    +0.053 C 
ATOM      9  C   UNL     1      -4.089   0.793  -0.980  0.00  0.00    +0.007 A 
ATOM     10  C   UNL     1      -3.055  -0.044  -0.916  0.00  0.00    +0.103 A 
ATOM     11  N   UNL     1      -1.777   0.427  -0.707  0.00  0.00    -0.300 N 
ATOM     12  C   UNL     1      -0.490  -0.085  -0.573  0.00  0.00    +0.118 A 
ATOM     13  C   UNL     1       0.343   0.949  -0.367  0.00  0.00    +0.078 A 
ATOM     14  N   UNL     1      -0.380   2.080  -0.363  0.00  0.00    -0.225 NA
ATOM     15  C   UNL     1      -1.632   1.781  -0.559  0.00  0.00    +0.178 A 
ATOM     16  S   UNL     1      -3.298   2.375  -0.731  0.00  0.00    -0.055 S 
ENDBRANCH   7  13
ENDBRANCH   1   7
BRANCH   2  17
ATOM     17  C   UNL     1       4.185  -0.683  -1.872  0.00  0.00    +0.003 C 
BRANCH  17  18
ATOM     18  C   UNL     1       3.928  -1.313  -0.501  0.00  0.00    -0.080 C 
BRANCH  18  19
ATOM     19  N   UNL     1       5.118  -2.083  -0.092  0.00  0.00    +0.382 N 
ATOM     20  H   UNL     1       5.927  -1.454  -0.041  0.00  0.00    -0.085 HD
ATOM     21  H   UNL     1       5.300  -2.819  -0.786  0.00  0.00    -0.085 HD
BRANCH  19  22
ATOM     22  C   UNL     1       4.898  -2.703   1.228  0.00  0.00    -0.045 C 
BRANCH  22  23
ATOM     23  C   UNL     1       6.127  -3.482   1.619  0.00  0.00    -0.042 A 
ATOM     24  C   UNL     1       6.990  -2.976   2.574  0.00  0.00    +0.052 A 
ATOM     25  C   UNL     1       8.118  -3.692   2.939  0.00  0.00    +0.167 A 
ATOM     26  C   UNL     1       8.387  -4.918   2.333  0.00  0.00    +0.168 A 
ATOM     27  C   UNL     1       7.522  -5.417   1.373  0.00  0.00    +0.069 A 
ATOM     28  C   UNL     1       6.394  -4.699   1.017  0.00  0.00    +0.046 A 
ATOM     29 CL   UNL     1       5.311  -5.326  -0.186  0.00  0.00    -0.083 Cl
ATOM     30  O   UNL     1       9.546  -5.417   2.854  0.00  0.00    -0.453 OA
ATOM     31  C   UNL     1       9.766  -4.683   4.074  0.00  0.00    +0.466 C 
ATOM     32  O   UNL     1       9.108  -3.424   3.839  0.00  0.00    -0.453 OA
ENDBRANCH  22  23
ENDBRANCH  19  22
ENDBRANCH  18  19
ENDBRANCH  17  18
ENDBRANCH   2  17
TORSDOF 7
