REMARK  Name = ZINC05274723
REMARK  5 active torsions:
REMARK  status: ('A' for Active; 'I' for Inactive)
REMARK    1  A    between atoms: C_1  and  C_2
REMARK    2  A    between atoms: C_2  and  C_3
REMARK    3  A    between atoms: C_2  and  C_4
REMARK    4  A    between atoms: C_2  and  C_5
REMARK    5  A    between atoms: C_17  and  C_20
REMARK                            x       y       z     vdW  Elec       q    Type
REMARK                         _______ _______ _______ _____ _____    ______ ____
ROOT
ATOM      1  C   UNL     1       0.718  -0.497  -1.257  0.00  0.00    -0.000 C 
ATOM      2  C   UNL     1      -0.017   0.014  -2.499  0.00  0.00    +0.009 C 
ATOM      3  C   UNL     1       0.539  -0.669  -3.750  0.00  0.00    +0.037 C 
ATOM      4  C   UNL     1       2.053  -0.511  -3.762  0.00  0.00    -0.023 A 
ATOM      5  C   UNL     1       2.731  -0.194  -2.637  0.00  0.00    -0.004 A 
ATOM      6  S   UNL     1       4.430  -0.122  -3.136  0.00  0.00    -0.078 S 
ATOM      7  C   UNL     1       4.260  -0.486  -4.746  0.00  0.00    +0.080 A 
ATOM      8  C   UNL     1       2.885  -0.680  -4.941  0.00  0.00    +0.068 A 
ATOM      9  C   UNL     1       2.427  -1.038  -6.303  0.00  0.00    +0.248 C 
ATOM     10  O   UNL     1       1.282  -1.396  -6.514  0.00  0.00    -0.270 OA
ATOM     11  N   UNL     1       3.331  -0.951  -7.302  0.00  0.00    -0.289 N 
ATOM     12  C   UNL     1       4.663  -0.380  -7.134  0.00  0.00    +0.190 C 
ATOM     13  N   UNL     1       5.171  -0.597  -5.768  0.00  0.00    -0.316 N 
ATOM     14  C   UNL     1       2.158   0.038  -1.273  0.00  0.00    +0.046 C 
ATOM     15  H   UNL     1       3.082  -1.286  -8.178  0.00  0.00    +0.151 HD
ATOM     16  H   UNL     1       6.103  -0.808  -5.598  0.00  0.00    +0.149 HD
ENDROOT
BRANCH  12  17
ATOM     17  C   UNL     1       4.603   1.101  -7.407  0.00  0.00    -0.009 A 
ATOM     18  C   UNL     1       5.479   1.957  -6.767  0.00  0.00    +0.008 A 
ATOM     19  C   UNL     1       5.425   3.315  -7.017  0.00  0.00    +0.020 A 
ATOM     20  C   UNL     1       4.494   3.817  -7.908  0.00  0.00    +0.041 A 
ATOM     21  C   UNL     1       3.617   2.960  -8.549  0.00  0.00    +0.020 A 
ATOM     22  C   UNL     1       3.676   1.601  -8.302  0.00  0.00    +0.008 A 
ATOM     23 CL   UNL     1       4.425   5.523  -8.223  0.00  0.00    -0.084 Cl
ENDBRANCH  12  17
BRANCH   1  25
ATOM     24  C   UNL     1      -0.019   1.526   0.010  0.00  0.00    +0.011 C 
ATOM     25  C   UNL     1       0.002  -0.004   0.002  0.00  0.00    -0.035 C 
ATOM     26  C   UNL     1       0.742  -0.511   1.242  0.00  0.00    +0.011 C 
ATOM     27  C   UNL     1      -1.433  -0.534   0.013  0.00  0.00    +0.011 C 
ENDBRANCH   1  25
TORSDOF 2
