REMARK  Name = ZINC16671070
REMARK  6 active torsions:
REMARK  status: ('A' for Active; 'I' for Inactive)
REMARK    1  A    between atoms: C_9  and  O_25
REMARK    2  A    between atoms: C_10  and  C_11
REMARK    3  A    between atoms: N_12  and  N_13
REMARK    4  A    between atoms: C_14  and  C_16
REMARK    5  A    between atoms: C_16  and  O_17
REMARK    6  A    between atoms: O_17  and  C_18
REMARK                            x       y       z     vdW  Elec       q    Type
REMARK                         _______ _______ _______ _____ _____    ______ ____
ROOT
ATOM      1  C   UNL     1      -8.339   1.000   0.145  0.00  0.00    +0.142 C 
ATOM      2  N   UNL     1      -7.145   0.521  -0.041  0.00  0.00    -0.187 NA
ENDROOT
BRANCH   1  12
ATOM      3  C   UNL     1     -10.370   4.407   3.440  0.00  0.00    +0.001 A 
ATOM      4  C   UNL     1     -10.182   3.027   3.468  0.00  0.00    +0.001 A 
ATOM      5  C   UNL     1      -9.600   2.379   2.420  0.00  0.00    +0.009 A 
ATOM      6  C   UNL     1      -9.184   3.108   1.299  0.00  0.00    -0.006 A 
ATOM      7  C   UNL     1      -9.374   4.511   1.268  0.00  0.00    -0.017 A 
ATOM      8  C   UNL     1      -9.978   5.147   2.366  0.00  0.00    +0.008 A 
ATOM      9  C   UNL     1      -8.954   5.242   0.142  0.00  0.00    +0.012 A 
ATOM     10  C   UNL     1      -8.370   4.618  -0.914  0.00  0.00    +0.046 A 
ATOM     11  C   UNL     1      -8.158   3.240  -0.928  0.00  0.00    +0.126 A 
ATOM     12  C   UNL     1      -8.555   2.454   0.154  0.00  0.00    +0.044 A 
BRANCH  11  13
ATOM     13  O   UNL     1      -7.565   2.659  -2.002  0.00  0.00    -0.506 OA
ATOM     14  H   UNL     1      -8.188   2.307  -2.653  0.00  0.00    +0.292 HD
ENDBRANCH  11  13
ENDBRANCH   1  12
BRANCH   2  15
ATOM     15  N   UNL     1      -6.045   1.387  -0.100  0.00  0.00    -0.204 N 
ATOM     16  C   UNL     1      -4.797   0.885  -0.198  0.00  0.00    +0.270 C 
ATOM     17  O   UNL     1      -4.628  -0.315  -0.235  0.00  0.00    -0.270 OA
ATOM     18  H   UNL     1      -6.180   2.347  -0.070  0.00  0.00    +0.177 HD
BRANCH  16  19
ATOM     19  C   UNL     1      -3.614   1.816  -0.261  0.00  0.00    +0.326 C 
BRANCH  19  20
ATOM     20  O   UNL     1      -2.411   1.051  -0.361  0.00  0.00    -0.483 OA
BRANCH  20  21
ATOM     21  C   UNL     1      -1.244   1.743  -0.428  0.00  0.00    +0.123 A 
ATOM     22  C   UNL     1      -0.038   1.064  -0.526  0.00  0.00    +0.046 A 
ATOM     23  C   UNL     1       1.148   1.769  -0.600  0.00  0.00    +0.005 A 
ATOM     24  C   UNL     1       1.135   3.151  -0.570  0.00  0.00    +0.020 A 
ATOM     25  C   UNL     1      -0.066   3.832  -0.466  0.00  0.00    +0.044 A 
ATOM     26  C   UNL     1      -1.255   3.130  -0.392  0.00  0.00    +0.065 A 
ATOM     27 CL   UNL     1      -0.079   5.567  -0.429  0.00  0.00    -0.083 Cl
ENDBRANCH  20  21
ENDBRANCH  19  20
ENDBRANCH  16  19
ENDBRANCH   2  15
TORSDOF 6
