REMARK  Name = ZINC08326871
REMARK  9 active torsions:
REMARK  status: ('A' for Active; 'I' for Inactive)
REMARK    1  A    between atoms: C_1  and  C_2
REMARK    2  A    between atoms: C_2  and  C_3
REMARK    3  A    between atoms: C_3  and  C_5
REMARK    4  A    between atoms: C_3  and  S_6
REMARK    5  A    between atoms: S_6  and  C_7
REMARK    6  A    between atoms: C_18  and  C_20
REMARK    7  A    between atoms: C_23  and  C_26
REMARK    8  A    between atoms: C_26  and  C_27
REMARK    9  A    between atoms: C_26  and  C_28
REMARK                            x       y       z     vdW  Elec       q    Type
REMARK                         _______ _______ _______ _____ _____    ______ ____
ROOT
ATOM      1  C   UNL     1       0.852  -0.566   4.057  0.00  0.00    +0.171 A 
ATOM      2  N   UNL     1       0.442  -0.370   5.341  0.00  0.00    -0.302 N 
ATOM      3  H   UNL     1      -0.414   0.052   5.516  0.00  0.00    +0.171 HD
ATOM      4  C   UNL     1       1.223  -0.762   6.370  0.00  0.00    +0.258 A 
ATOM      5  O   UNL     1       0.862  -0.594   7.524  0.00  0.00    -0.267 OA
ATOM      6  C   UNL     1       2.454  -1.365   6.088  0.00  0.00    +0.069 A 
ATOM      7  C   UNL     1       2.827  -1.536   4.766  0.00  0.00    +0.135 A 
ATOM      8  N   UNL     1       2.008  -1.138   3.787  0.00  0.00    -0.208 NA
ATOM      9  N   UNL     1       4.042  -2.121   4.469  0.00  0.00    -0.302 N 
ATOM     10  C   UNL     1       5.037  -2.176   5.407  0.00  0.00    +0.017 C 
ATOM     11  C   UNL     1       4.760  -2.038   6.721  0.00  0.00    +0.024 C 
ATOM     12  C   UNL     1       3.348  -1.818   7.203  0.00  0.00    +0.092 C 
ATOM     13  C   UNL     1       5.781  -2.100   7.686  0.00  0.00    +0.162 C 
ATOM     14  O   UNL     1       5.501  -1.952   8.859  0.00  0.00    -0.292 OA
ATOM     15  C   UNL     1       7.212  -2.346   7.295  0.00  0.00    +0.080 C 
ATOM     16  C   UNL     1       7.242  -3.158   5.996  0.00  0.00    +0.014 C 
ATOM     17  C   UNL     1       6.453  -2.392   4.931  0.00  0.00    +0.051 C 
ATOM     18  H   UNL     1       4.192  -2.495   3.587  0.00  0.00    +0.153 HD
ENDROOT
BRANCH  12  19
ATOM     19  C   UNL     1       2.814  -3.108   7.770  0.00  0.00    -0.035 A 
ATOM     20  C   UNL     1       2.697  -4.223   6.961  0.00  0.00    +0.005 A 
ATOM     21  C   UNL     1       2.207  -5.406   7.481  0.00  0.00    +0.004 A 
ATOM     22  C   UNL     1       1.834  -5.475   8.810  0.00  0.00    -0.045 A 
ATOM     23  C   UNL     1       1.952  -4.361   9.620  0.00  0.00    +0.004 A 
ATOM     24  C   UNL     1       2.446  -3.179   9.101  0.00  0.00    +0.005 A 
BRANCH  22  25
ATOM     25  C   UNL     1       1.299  -6.765   9.376  0.00  0.00    +0.013 C 
ATOM     26  C   UNL     1       2.202  -7.234  10.520  0.00  0.00    +0.012 C 
ATOM     27  C   UNL     1      -0.118  -6.541   9.905  0.00  0.00    +0.012 C 
ENDBRANCH  22  25
ENDBRANCH  12  19
BRANCH   1  28
ATOM     28  S   UNL     1      -0.187  -0.052   2.730  0.00  0.00    -0.085 S 
BRANCH  28  29
ATOM     29  C   UNL     1       0.742  -0.511   1.242  0.00  0.00    +0.051 C 
ATOM     30  C   UNL     1       0.872  -2.034   1.171  0.00  0.00    +0.019 C 
BRANCH  29  32
ATOM     31  C   UNL     1      -0.019   1.526   0.010  0.00  0.00    +0.005 C 
ATOM     32  C   UNL     1       0.002  -0.004   0.002  0.00  0.00    +0.011 C 
ENDBRANCH  29  32
ENDBRANCH  28  29
ENDBRANCH   1  28
TORSDOF 5
