REMARK  Name = ZINC55183267
REMARK  10 active torsions:
REMARK  status: ('A' for Active; 'I' for Inactive)
REMARK    1  A    between atoms: C_1  and  C_2
REMARK    2  A    between atoms: C_2  and  C_3
REMARK    3  A    between atoms: C_2  and  C_4
REMARK    4  A    between atoms: C_2  and  C_5
REMARK    5  A    between atoms: C_7  and  C_11
REMARK    6  A    between atoms: C_11  and  N_12
REMARK    7  A    between atoms: C_13  and  C_15
REMARK    8  A    between atoms: C_15  and  C_16
REMARK    9  A    between atoms: N_23  and  C_24
REMARK   10  A    between atoms: C_24  and  C_25
REMARK                            x       y       z     vdW  Elec       q    Type
REMARK                         _______ _______ _______ _____ _____    ______ ____
ROOT
ATOM      1  C   UNL     1       0.462  -5.460  -7.272  0.00  0.00    +0.152 C 
ATOM      2  C   UNL     1       0.491  -6.535  -6.222  0.00  0.00    +0.231 C 
ATOM      3  O   UNL     1      -0.459  -6.644  -5.477  0.00  0.00    -0.274 OA
ATOM      4  N   UNL     1       1.521  -7.375  -6.075  0.00  0.00    -0.313 N 
ATOM      5  C   UNL     1       2.726  -7.305  -6.897  0.00  0.00    +0.119 C 
ATOM      6  C   UNL     1       2.450  -6.494  -8.164  0.00  0.00    +0.104 C 
ATOM      7  N   UNL     1       1.819  -5.221  -7.781  0.00  0.00    -0.285 NA
ATOM      8  H   UNL     1       1.465  -8.062  -5.393  0.00  0.00    +0.149 HD
ENDROOT
BRANCH   1   9
ATOM      9  C   UNL     1      -0.088  -4.169  -6.663  0.00  0.00    +0.124 C 
BRANCH   9  11
ATOM     10  N   UNL     1       0.618  -2.506  -4.973  0.00  0.00    -0.310 N 
ATOM     11  C   UNL     1       0.847  -3.686  -5.584  0.00  0.00    +0.215 C 
ATOM     12  O   UNL     1       1.804  -4.359  -5.264  0.00  0.00    -0.276 OA
ATOM     13  H   UNL     1      -0.147  -1.968  -5.229  0.00  0.00    +0.149 HD
BRANCH  10  14
ATOM     14  C   UNL     1       1.526  -2.037  -3.924  0.00  0.00    +0.161 C 
BRANCH  14  17
ATOM     15  C   UNL     1       0.039   0.834  -2.156  0.00  0.00    +0.042 A 
ATOM     16  C   UNL     1       0.241  -0.498  -2.287  0.00  0.00    +0.049 A 
ATOM     17  C   UNL     1       1.051  -0.703  -3.408  0.00  0.00    +0.080 A 
ATOM     18  N   UNL     1       1.327   0.464  -3.932  0.00  0.00    -0.177 NA
ATOM     19  N   UNL     1       0.695   1.449  -3.163  0.00  0.00    -0.281 N 
ATOM     20  H   UNL     1       0.724   2.405  -3.323  0.00  0.00    +0.189 HD
BRANCH  15  22
ATOM     21  C   UNL     1      -0.858   3.008  -1.371  0.00  0.00    +0.017 C 
ATOM     22  C   UNL     1      -0.776   1.508  -1.083  0.00  0.00    +0.004 C 
ATOM     23  C   UNL     1      -0.112   1.285   0.277  0.00  0.00    +0.017 C 
ATOM     24  C   UNL     1      -2.186   0.914  -1.065  0.00  0.00    +0.017 C 
ENDBRANCH  15  22
ENDBRANCH  14  17
ENDBRANCH  10  14
ENDBRANCH   9  11
ENDBRANCH   1   9
BRANCH   7  25
ATOM     25  C   UNL     1       1.800  -4.284  -8.911  0.00  0.00    +0.121 C 
BRANCH  25  26
ATOM     26  C   UNL     1       3.214  -3.971  -9.328  0.00  0.00    -0.015 A 
ATOM     27  C   UNL     1       3.867  -2.877  -8.791  0.00  0.00    +0.009 A 
ATOM     28  C   UNL     1       5.163  -2.588  -9.173  0.00  0.00    +0.039 A 
ATOM     29  C   UNL     1       5.810  -3.396 -10.093  0.00  0.00    +0.125 A 
ATOM     30  C   UNL     1       5.157  -4.492 -10.630  0.00  0.00    +0.058 A 
ATOM     31  C   UNL     1       3.861  -4.782 -10.244  0.00  0.00    +0.048 A 
ATOM     32 CL   UNL     1       3.042  -6.160 -10.912  0.00  0.00    -0.083 Cl
ATOM     33  F   UNL     1       7.077  -3.115 -10.467  0.00  0.00    -0.205 F 
ENDBRANCH  25  26
ENDBRANCH   7  25
TORSDOF 7
