REMARK  Name = ZINC36595791
REMARK  12 active torsions:
REMARK  status: ('A' for Active; 'I' for Inactive)
REMARK    1  A    between atoms: C_1  and  C_2
REMARK    2  A    between atoms: C_5  and  S_8
REMARK    3  A    between atoms: S_8  and  C_11
REMARK    4  A    between atoms: C_11  and  N_12
REMARK    5  A    between atoms: C_13  and  C_15
REMARK    6  A    between atoms: C_15  and  C_17
REMARK    7  A    between atoms: C_15  and  N_24
REMARK    8  A    between atoms: C_22  and  O_23
REMARK    9  A    between atoms: N_24  and  C_25
REMARK   10  A    between atoms: C_25  and  C_26
REMARK   11  A    between atoms: C_29  and  C_31
REMARK   12  A    between atoms: C_32  and  C_34
REMARK                            x       y       z     vdW  Elec       q    Type
REMARK                         _______ _______ _______ _____ _____    ______ ____
ROOT
ATOM      1  C   UNL     1       3.157  -4.888   3.866  0.00  0.00    +0.196 C 
ENDROOT
BRANCH   1   2
ATOM      2  C   UNL     1       2.389  -3.795   4.563  0.00  0.00    +0.023 A 
ATOM      3  C   UNL     1       1.806  -4.036   5.793  0.00  0.00    +0.009 A 
ATOM      4  C   UNL     1       1.101  -3.034   6.433  0.00  0.00    +0.001 A 
ATOM      5  C   UNL     1       0.977  -1.788   5.845  0.00  0.00    +0.004 A 
ATOM      6  C   UNL     1       1.558  -1.542   4.616  0.00  0.00    +0.046 A 
ATOM      7  C   UNL     1       2.271  -2.545   3.974  0.00  0.00    +0.122 A 
BRANCH   7   8
ATOM      8  O   UNL     1       2.849  -2.304   2.768  0.00  0.00    -0.506 OA
ATOM      9  H   UNL     1       2.250  -2.414   2.016  0.00  0.00    +0.292 HD
ENDBRANCH   7   8
ENDBRANCH   1   2
BRANCH   1  11
ATOM     10  N   UNL     1       2.603  -5.680   1.589  0.00  0.00    -0.294 N 
ATOM     11  C   UNL     1       2.253  -5.593   2.888  0.00  0.00    +0.239 C 
ATOM     12  O   UNL     1       1.210  -6.080   3.269  0.00  0.00    -0.273 OA
ATOM     13  H   UNL     1       3.465  -5.347   1.296  0.00  0.00    +0.150 HD
BRANCH  10  14
ATOM     14  C   UNL     1       1.680  -6.279   0.621  0.00  0.00    +0.278 C 
BRANCH  14  15
ATOM     15  S   UNL     1       0.749  -4.967  -0.218  0.00  0.00    +0.013 S 
ATOM     16  O   UNL     1       0.298  -4.007   0.727  0.00  0.00    -0.168 OA
ATOM     17  O   UNL     1      -0.149  -5.533  -1.163  0.00  0.00    -0.168 OA
BRANCH  15  22
ATOM     18  C   UNL     1       4.843  -2.044  -3.549  0.00  0.00    +0.044 C 
ATOM     19  C   UNL     1       3.821  -2.774  -2.717  0.00  0.00    -0.050 A 
ATOM     20  C   UNL     1       3.136  -3.849  -3.251  0.00  0.00    +0.005 A 
ATOM     21  C   UNL     1       2.198  -4.519  -2.488  0.00  0.00    +0.027 A 
ATOM     22  C   UNL     1       1.946  -4.114  -1.191  0.00  0.00    +0.090 A 
ATOM     23  C   UNL     1       2.631  -3.039  -0.656  0.00  0.00    +0.027 A 
ATOM     24  C   UNL     1       3.572  -2.372  -1.418  0.00  0.00    +0.005 A 
ENDBRANCH  15  22
ENDBRANCH  14  15
ENDBRANCH  10  14
ENDBRANCH   1  11
BRANCH   1  25
ATOM     25  N   UNL     1       3.647  -5.849   4.857  0.00  0.00    -0.272 N 
ATOM     26  C   UNL     1       4.611  -5.487   5.727  0.00  0.00    +0.283 C 
ATOM     27  O   UNL     1       5.079  -6.309   6.493  0.00  0.00    -0.267 OA
BRANCH  26  28
ATOM     28  C   UNL     1       5.097  -4.104   5.750  0.00  0.00    +0.189 A 
ATOM     29  C   UNL     1       5.974  -3.576   6.653  0.00  0.00    +0.054 A 
ATOM     30  C   UNL     1       6.157  -2.230   6.300  0.00  0.00    +0.042 A 
ATOM     31  C   UNL     1       5.392  -1.998   5.210  0.00  0.00    +0.196 A 
ATOM     32  O   UNL     1       4.759  -3.131   4.879  0.00  0.00    -0.458 OA
ENDBRANCH  26  28
BRANCH  25  33
ATOM     33  C   UNL     1       3.090  -7.203   4.902  0.00  0.00    +0.183 C 
BRANCH  33  34
ATOM     34  C   UNL     1       3.892  -8.107   4.001  0.00  0.00    +0.122 A 
ATOM     35  C   UNL     1       4.968  -8.827   4.364  0.00  0.00    +0.046 A 
ATOM     36  C   UNL     1       5.403  -9.524   3.214  0.00  0.00    +0.045 A 
ATOM     37  C   UNL     1       4.566  -9.188   2.216  0.00  0.00    +0.102 A 
ATOM     38  O   UNL     1       3.649  -8.334   2.700  0.00  0.00    -0.463 OA
ATOM     39  C   UNL     1       4.640  -9.690   0.797  0.00  0.00    +0.086 C 
ENDBRANCH  33  34
ENDBRANCH  25  33
ENDBRANCH   1  25
TORSDOF 10
