REMARK  Name = ZINC64587892
REMARK  12 active torsions:
REMARK  status: ('A' for Active; 'I' for Inactive)
REMARK    1  A    between atoms: C_1  and  C_2
REMARK    2  A    between atoms: C_5  and  C_8
REMARK    3  A    between atoms: C_8  and  N_9
REMARK    4  A    between atoms: C_15  and  C_29
REMARK    5  A    between atoms: N_21  and  C_24
REMARK    6  A    between atoms: C_24  and  C_25
REMARK    7  A    between atoms: C_25  and  C_26
REMARK    8  A    between atoms: C_26  and  C_27
REMARK    9  A    between atoms: C_26  and  C_28
REMARK   10  A    between atoms: N_31  and  C_32
REMARK   11  A    between atoms: C_32  and  C_33
REMARK   12  A    between atoms: C_32  and  C_34
REMARK                            x       y       z     vdW  Elec       q    Type
REMARK                         _______ _______ _______ _____ _____    ______ ____
ROOT
ATOM      1  N   UNL     1       1.447  -4.746  -0.032  0.00  0.00    -0.206 N 
ATOM      2  C   UNL     1       2.207  -5.013   1.049  0.00  0.00    +0.353 A 
ATOM      3  O   UNL     1       1.864  -4.907   2.213  0.00  0.00    -0.244 OA
ATOM      4  N   UNL     1       3.416  -5.420   0.608  0.00  0.00    -0.229 N 
ATOM      5  C   UNL     1       4.559  -5.814   1.302  0.00  0.00    +0.067 A 
ATOM      6  C   UNL     1       4.578  -5.833   2.687  0.00  0.00    +0.040 A 
ATOM      7  C   UNL     1       5.733  -6.231   3.357  0.00  0.00    +0.039 A 
ATOM      8  C   UNL     1       6.869  -6.611   2.637  0.00  0.00    +0.014 A 
ATOM      9  C   UNL     1       6.855  -6.593   1.260  0.00  0.00    +0.016 A 
ATOM     10  C   UNL     1       5.702  -6.196   0.584  0.00  0.00    +0.064 A 
ATOM     11  C   UNL     1       5.657  -6.168  -0.892  0.00  0.00    +0.263 A 
ATOM     12  O   UNL     1       6.629  -6.492  -1.546  0.00  0.00    -0.267 OA
ATOM     13  N   UNL     1       4.521  -5.777  -1.504  0.00  0.00    -0.277 N 
ATOM     14  C   UNL     1       3.404  -5.404  -0.769  0.00  0.00    +0.240 A 
ATOM     15  N   UNL     1       2.225  -5.006  -1.166  0.00  0.00    -0.129 NA
ENDROOT
BRANCH   7  16
ATOM     16  C   UNL     1       5.756  -6.253   4.837  0.00  0.00    +0.244 C 
ATOM     17  O   UNL     1       4.769  -5.923   5.465  0.00  0.00    -0.270 OA
ATOM     18  N   UNL     1       6.872  -6.638   5.488  0.00  0.00    -0.309 N 
ATOM     19  H   UNL     1       7.659  -6.901   4.987  0.00  0.00    +0.149 HD
BRANCH  18  20
ATOM     20  C   UNL     1       6.895  -6.658   6.953  0.00  0.00    +0.067 C 
ATOM     21  C   UNL     1       6.322  -7.986   7.453  0.00  0.00    +0.027 C 
ATOM     22  C   UNL     1       8.337  -6.509   7.442  0.00  0.00    +0.027 C 
ENDBRANCH  18  20
ENDBRANCH   7  16
BRANCH   1  23
ATOM     23  C   UNL     1       0.059  -4.275  -0.021  0.00  0.00    +0.184 C 
BRANCH  23  28
ATOM     24  C   UNL     1      -0.018   1.503   0.010  0.00  0.00    +0.044 C 
ATOM     25  C   UNL     1       0.002  -0.004   0.002  0.00  0.00    -0.050 A 
ATOM     26  C   UNL     1       0.006  -0.689  -1.199  0.00  0.00    +0.004 A 
ATOM     27  C   UNL     1       0.025  -2.071  -1.206  0.00  0.00    +0.006 A 
ATOM     28  C   UNL     1       0.040  -2.768  -0.013  0.00  0.00    -0.026 A 
ATOM     29  C   UNL     1       0.037  -2.084   1.188  0.00  0.00    +0.006 A 
ATOM     30  C   UNL     1       0.023  -0.702   1.195  0.00  0.00    +0.004 A 
ENDBRANCH  23  28
ENDBRANCH   1  23
BRANCH  13  31
ATOM     31  C   UNL     1       4.465  -5.744  -2.967  0.00  0.00    +0.128 C 
BRANCH  31  32
ATOM     32  C   UNL     1       3.982  -7.099  -3.489  0.00  0.00    +0.025 C 
BRANCH  32  33
ATOM     33  C   UNL     1       3.923  -7.065  -5.018  0.00  0.00    -0.016 C 
ATOM     34  C   UNL     1       5.337  -6.896  -5.579  0.00  0.00    +0.007 C 
ATOM     35  C   UNL     1       3.323  -8.375  -5.534  0.00  0.00    +0.007 C 
ENDBRANCH  32  33
ENDBRANCH  31  32
ENDBRANCH  13  31
TORSDOF 7
