REMARK  Name = ZINC59799128
REMARK  10 active torsions:
REMARK  status: ('A' for Active; 'I' for Inactive)
REMARK    1  A    between atoms: C_1  and  C_2
REMARK    2  A    between atoms: C_10  and  C_33
REMARK    3  A    between atoms: C_11  and  C_12
REMARK    4  A    between atoms: C_12  and  C_13
REMARK    5  A    between atoms: N_15  and  C_16
REMARK    6  A    between atoms: C_21  and  C_22
REMARK    7  A    between atoms: C_22  and  O_23
REMARK    8  A    between atoms: O_23  and  C_24
REMARK    9  A    between atoms: C_27  and  C_30
REMARK   10  A    between atoms: C_30  and  C_31
REMARK                            x       y       z     vdW  Elec       q    Type
REMARK                         _______ _______ _______ _____ _____    ______ ____
ROOT
ATOM      1  C   UNL     1      -1.395   0.237   2.943  0.00  0.00    +0.222 C 
ATOM      2  O   UNL     1      -2.317  -0.161   2.264  0.00  0.00    -0.275 OA
ATOM      3  N   UNL     1      -1.639   0.867   4.109  0.00  0.00    -0.285 N 
ATOM      4  H   UNL     1      -0.903   1.114   4.691  0.00  0.00    +0.155 HD
ENDROOT
BRANCH   3   5
ATOM      5  C   UNL     1      -2.955   1.166   4.480  0.00  0.00    +0.040 A 
ATOM      6  C   UNL     1      -3.938   1.306   3.508  0.00  0.00    +0.024 A 
ATOM      7  C   UNL     1      -5.235   1.601   3.878  0.00  0.00    +0.002 A 
ATOM      8  C   UNL     1      -5.556   1.758   5.214  0.00  0.00    +0.000 A 
ATOM      9  C   UNL     1      -4.581   1.620   6.184  0.00  0.00    +0.009 A 
ATOM     10  C   UNL     1      -3.282   1.318   5.821  0.00  0.00    +0.011 A 
BRANCH  10  11
ATOM     11  C   UNL     1      -2.221   1.161   6.879  0.00  0.00    +0.266 C 
BRANCH  11  12
ATOM     12  O   UNL     1      -2.801   1.362   8.169  0.00  0.00    -0.487 OA
BRANCH  12  13
ATOM     13  C   UNL     1      -1.973   1.255   9.242  0.00  0.00    +0.121 A 
ATOM     14  C   UNL     1      -0.628   0.967   9.055  0.00  0.00    +0.046 A 
ATOM     15  C   UNL     1       0.211   0.858  10.147  0.00  0.00    +0.008 A 
ATOM     16  C   UNL     1      -0.287   1.036  11.424  0.00  0.00    -0.033 A 
ATOM     17  C   UNL     1      -1.627   1.323  11.613  0.00  0.00    +0.008 A 
ATOM     18  C   UNL     1      -2.469   1.438  10.524  0.00  0.00    +0.046 A 
BRANCH  16  19
ATOM     19  C   UNL     1       0.631   0.917  12.613  0.00  0.00    +0.153 C 
BRANCH  19  20
ATOM     20  C   UNL     1       1.210   2.235  12.921  0.00  0.00    +0.067 C 
ATOM     21  N   UNL     1       1.656   3.252  13.158  0.00  0.00    -0.196 NA
ENDBRANCH  19  20
ENDBRANCH  16  19
ENDBRANCH  12  13
ENDBRANCH  11  12
ENDBRANCH  10  11
ENDBRANCH   3   5
BRANCH   1  22
ATOM     22  C   UNL     1       0.025   0.026   2.484  0.00  0.00    +0.133 C 
BRANCH  22  33
ATOM     23  C   UNL     1      -0.038   1.519   0.005  0.00  0.00    +0.045 C 
ATOM     24  C   UNL     1      -0.007   0.013  -0.005  0.00  0.00    -0.036 A 
ATOM     25  C   UNL     1      -0.002  -0.703  -1.217  0.00  0.00    +0.002 A 
ATOM     26  C   UNL     1      -0.026  -0.042  -2.456  0.00  0.00    +0.010 A 
ATOM     27  C   UNL     1      -0.020  -0.770  -3.607  0.00  0.00    +0.001 A 
ATOM     28  C   UNL     1       0.010  -2.162  -3.572  0.00  0.00    +0.002 A 
ATOM     29  C   UNL     1       0.033  -2.835  -2.389  0.00  0.00    +0.026 A 
ATOM     30  C   UNL     1       0.028  -2.119  -1.179  0.00  0.00    +0.047 A 
ATOM     31  N   UNL     1       0.052  -2.752  -0.003  0.00  0.00    -0.358 N 
ATOM     32  C   UNL     1       0.048  -2.090   1.128  0.00  0.00    +0.017 A 
ATOM     33  C   UNL     1       0.023  -0.697   1.162  0.00  0.00    -0.016 A 
ATOM     34  C   UNL     1       0.074  -2.854   2.427  0.00  0.00    +0.063 C 
ATOM     35  H   UNL     1       0.072  -3.722   0.015  0.00  0.00    +0.166 HD
ENDBRANCH  22  33
ENDBRANCH   1  22
TORSDOF 8
