REMARK  Name = ZINC17041465
REMARK  5 active torsions:
REMARK  status: ('A' for Active; 'I' for Inactive)
REMARK    1  A    between atoms: C_5  and  C_7
REMARK    2  A    between atoms: N_8  and  N_9
REMARK    3  A    between atoms: C_10  and  C_12
REMARK    4  A    between atoms: C_12  and  N_13
REMARK    5  A    between atoms: N_16  and  C_17
REMARK                            x       y       z     vdW  Elec       q    Type
REMARK                         _______ _______ _______ _____ _____    ______ ____
ROOT
ATOM      1  C   UNL     1       4.385   1.584  -2.271  0.00  0.00    +0.203 C 
ENDROOT
BRANCH   1   2
ATOM      2  N   UNL     1       3.179   0.827  -2.615  0.00  0.00    -0.290 N 
ATOM      3  C   UNL     1       2.238   1.380  -3.405  0.00  0.00    +0.304 C 
ATOM      4  O   UNL     1       2.390   2.508  -3.833  0.00  0.00    -0.252 OA
ATOM      5  N   UNL     1       1.129   0.683  -3.721  0.00  0.00    -0.269 N 
ATOM      6  H   UNL     1       3.058  -0.073  -2.273  0.00  0.00    +0.151 HD
ATOM      7  H   UNL     1       1.038  -0.239  -3.436  0.00  0.00    +0.156 HD
BRANCH   5   8
ATOM      8  C   UNL     1       0.110   1.289  -4.467  0.00  0.00    +0.036 A 
ATOM      9  C   UNL     1      -1.218   0.970  -4.218  0.00  0.00    +0.025 A 
ATOM     10  C   UNL     1      -2.221   1.573  -4.950  0.00  0.00    +0.023 A 
ATOM     11  C   UNL     1      -1.904   2.487  -5.940  0.00  0.00    +0.059 A 
ATOM     12  C   UNL     1      -0.580   2.803  -6.194  0.00  0.00    +0.061 A 
ATOM     13  C   UNL     1       0.427   2.206  -5.460  0.00  0.00    +0.044 A 
ATOM     14 CL   UNL     1      -0.186   3.951  -7.436  0.00  0.00    -0.082 Cl
ATOM     15 CL   UNL     1      -3.168   3.239  -6.863  0.00  0.00    -0.082 Cl
ENDBRANCH   5   8
ENDBRANCH   1   2
BRANCH   1  17
ATOM     16  N   UNL     1       6.441   1.240  -0.938  0.00  0.00    -0.206 N 
ATOM     17  C   UNL     1       5.268   0.746  -1.383  0.00  0.00    +0.249 C 
ATOM     18  O   UNL     1       4.925  -0.374  -1.069  0.00  0.00    -0.272 OA
ATOM     19  H   UNL     1       6.716   2.136  -1.190  0.00  0.00    +0.177 HD
BRANCH  16  21
ATOM     20  C   UNL     1       8.334   0.975   0.408  0.00  0.00    +0.141 C 
ATOM     21  N   UNL     1       7.262   0.461  -0.113  0.00  0.00    -0.188 NA
BRANCH  20  26
ATOM     22  C   UNL     1       7.730   4.669   0.136  0.00  0.00    +0.001 A 
ATOM     23  C   UNL     1       9.026   5.156   0.143  0.00  0.00    +0.003 A 
ATOM     24  C   UNL     1      10.098   4.287   0.235  0.00  0.00    +0.039 A 
ATOM     25  C   UNL     1       9.881   2.925   0.322  0.00  0.00    +0.132 A 
ATOM     26  C   UNL     1       8.574   2.427   0.316  0.00  0.00    +0.030 A 
ATOM     27  C   UNL     1       7.498   3.312   0.216  0.00  0.00    +0.012 A 
ATOM     28  F   UNL     1      10.929   2.076   0.411  0.00  0.00    -0.205 F 
ENDBRANCH  20  26
ENDBRANCH  16  21
ENDBRANCH   1  17
TORSDOF 5
