REMARK  Name = ZINC14457559
REMARK  7 active torsions:
REMARK  status: ('A' for Active; 'I' for Inactive)
REMARK    1  A    between atoms: C_1  and  C_2
REMARK    2  A    between atoms: C_2  and  N_3
REMARK    3  A    between atoms: C_4  and  C_6
REMARK    4  A    between atoms: C_19  and  C_22
REMARK    5  A    between atoms: C_25  and  O_29
REMARK    6  A    between atoms: C_26  and  O_28
REMARK    7  A    between atoms: O_29  and  C_30
REMARK                            x       y       z     vdW  Elec       q    Type
REMARK                         _______ _______ _______ _____ _____    ______ ____
ROOT
ATOM      1  C   UNL     1      -1.230   1.763   0.017  0.00  0.00    +0.037 A 
ATOM      2  C   UNL     1      -0.013   1.076   0.008  0.00  0.00    +0.015 A 
ATOM      3  C   UNL     1       1.166   1.784   0.001  0.00  0.00    +0.024 A 
ATOM      4  C   UNL     1       1.147   3.178   0.009  0.00  0.00    +0.031 A 
ATOM      5  C   UNL     1      -0.056   3.869   0.027  0.00  0.00    -0.019 A 
ATOM      6  C   UNL     1      -1.243   3.158   0.032  0.00  0.00    +0.019 A 
ATOM      7  C   UNL     1      -0.135   5.372   0.043  0.00  0.00    +0.049 C 
ATOM      8  C   UNL     1      -0.877   5.775   1.310  0.00  0.00    -0.023 C 
ATOM      9  C   UNL     1      -0.029   6.078   2.261  0.00  0.00    -0.030 C 
ATOM     10  C   UNL     1       1.399   5.925   1.767  0.00  0.00    +0.033 C 
ATOM     11  C   UNL     1       1.246   6.028   0.231  0.00  0.00    +0.029 C 
ATOM     12  C   UNL     1       2.345   5.258  -0.478  0.00  0.00    +0.105 C 
ATOM     13  N   UNL     1       2.356   3.870  -0.004  0.00  0.00    -0.336 N 
ATOM     14  H   UNL     1       3.178   3.448   0.290  0.00  0.00    +0.147 HD
ENDROOT
BRANCH  12  15
ATOM     15  C   UNL     1       2.094   5.280  -1.964  0.00  0.00    -0.023 A 
ATOM     16  C   UNL     1       1.179   4.407  -2.522  0.00  0.00    +0.009 A 
ATOM     17  C   UNL     1       0.941   4.426  -3.884  0.00  0.00    +0.050 A 
ATOM     18  C   UNL     1       1.629   5.315  -4.694  0.00  0.00    +0.161 A 
ATOM     19  C   UNL     1       2.555   6.189  -4.134  0.00  0.00    +0.159 A 
ATOM     20  C   UNL     1       2.784   6.169  -2.767  0.00  0.00    +0.054 A 
BRANCH  19  21
ATOM     21  O   UNL     1       3.232   7.064  -4.925  0.00  0.00    -0.503 OA
ATOM     22  H   UNL     1       4.066   6.716  -5.270  0.00  0.00    +0.292 HD
ENDBRANCH  19  21
BRANCH  18  23
ATOM     23  O   UNL     1       1.400   5.332  -6.035  0.00  0.00    -0.491 OA
ATOM     24  C   UNL     1       0.436   4.405  -6.540  0.00  0.00    +0.277 C 
ENDBRANCH  18  23
ENDBRANCH  12  15
BRANCH   1  26
ATOM     25  N   UNL     1      -2.488  -0.335   0.009  0.00  0.00    -0.312 N 
ATOM     26  C   UNL     1      -2.501   1.013   0.018  0.00  0.00    +0.244 C 
ATOM     27  O   UNL     1      -3.560   1.611   0.026  0.00  0.00    -0.270 OA
ATOM     28  H   UNL     1      -1.643  -0.812   0.002  0.00  0.00    +0.149 HD
BRANCH  25  30
ATOM     29  C   UNL     1      -3.456  -2.581  -0.002  0.00  0.00    +0.024 C 
ATOM     30  C   UNL     1      -3.749  -1.079   0.009  0.00  0.00    +0.101 C 
ENDBRANCH  25  30
ENDBRANCH   1  26
TORSDOF 5
