REMARK  Name = ZINC01206779
REMARK  7 active torsions:
REMARK  status: ('A' for Active; 'I' for Inactive)
REMARK    1  A    between atoms: C_1  and  N_2
REMARK    2  A    between atoms: N_2  and  C_3
REMARK    3  A    between atoms: N_2  and  C_4
REMARK    4  A    between atoms: C_7  and  C_11
REMARK    5  A    between atoms: N_12  and  N_13
REMARK    6  A    between atoms: C_14  and  C_16
REMARK    7  A    between atoms: C_16  and  C_17
REMARK                            x       y       z     vdW  Elec       q    Type
REMARK                         _______ _______ _______ _____ _____    ______ ____
ROOT
ATOM      1  N   UNL     1       2.272   5.623   0.010  0.00  0.00    -0.207 N 
ATOM      2  C   UNL     1       3.432   6.309   0.002  0.00  0.00    +0.238 C 
ATOM      3  O   UNL     1       4.489   5.714  -0.011  0.00  0.00    -0.274 OA
ATOM      4  H   UNL     1       1.427   6.099   0.020  0.00  0.00    +0.177 HD
ENDROOT
BRANCH   1   6
ATOM      5  C   UNL     1       1.170   3.561   0.009  0.00  0.00    +0.138 C 
ATOM      6  N   UNL     1       2.287   4.222   0.002  0.00  0.00    -0.188 NA
BRANCH   5  10
ATOM      7  C   UNL     1       1.216  -0.685  -0.014  0.00  0.00    +0.043 A 
ATOM      8  C   UNL     1       2.413   0.022  -0.022  0.00  0.00    +0.025 A 
ATOM      9  C   UNL     1       2.402   1.400  -0.014  0.00  0.00    +0.011 A 
ATOM     10  C   UNL     1       1.185   2.087   0.002  0.00  0.00    -0.004 A 
ATOM     11  C   UNL     1      -0.017   1.374   0.010  0.00  0.00    +0.026 A 
ATOM     12  C   UNL     1       0.002  -0.004   0.002  0.00  0.00    +0.039 A 
ATOM     13 BR   UNL     1      -1.623  -0.971   0.012  0.00  0.00    -0.048 Br
BRANCH   7  15
ATOM     14  C   UNL     1       1.911  -2.592  -1.219  0.00  0.00    +0.129 C 
ATOM     15  N   UNL     1       1.231  -2.080  -0.022  0.00  0.00    -0.335 N 
ATOM     16  C   UNL     1       1.851  -2.607   1.201  0.00  0.00    +0.129 C 
ENDBRANCH   7  15
ENDBRANCH   5  10
ENDBRANCH   1   6
BRANCH   2  17
ATOM     17  C   UNL     1       3.416   7.816   0.010  0.00  0.00    +0.160 C 
BRANCH  17  18
ATOM     18  C   UNL     1       4.831   8.334  -0.001  0.00  0.00    +0.134 A 
ATOM     19  C   UNL     1       5.622   8.633  -1.192  0.00  0.00    +0.184 A 
ATOM     20  N   UNL     1       6.795   9.059  -0.811  0.00  0.00    -0.034 NA
ATOM     21  O   UNL     1       6.816   9.055   0.606  0.00  0.00    -0.241 OA
ATOM     22  N   UNL     1       5.551   8.594   1.048  0.00  0.00    -0.051 NA
ATOM     23  N   UNL     1       5.196   8.488  -2.509  0.00  0.00    -0.339 N 
ATOM     24  H   UNL     1       4.302   8.163  -2.696  0.00  0.00    +0.144 HD
ATOM     25  H   UNL     1       5.793   8.713  -3.239  0.00  0.00    +0.144 HD
ENDBRANCH  17  18
ENDBRANCH   2  17
TORSDOF 5
