REMARK  Name = ZINC13499456
REMARK  15 active torsions:
REMARK  status: ('A' for Active; 'I' for Inactive)
REMARK    1  A    between atoms: C_1  and  C_2
REMARK    2  A    between atoms: C_2  and  C_3
REMARK    3  A    between atoms: C_3  and  C_4
REMARK    4  A    between atoms: C_4  and  C_6
REMARK    5  A    between atoms: C_4  and  N_77
REMARK    6  A    between atoms: N_10  and  C_11
REMARK    7  A    between atoms: C_11  and  C_12
REMARK    8  A    between atoms: C_11  and  C_13
REMARK    9  A    between atoms: C_11  and  C_14
REMARK   10  A    between atoms: C_14  and  C_15
REMARK   11  A    between atoms: C_16  and  C_17
REMARK   12  A    between atoms: C_16  and  N_77
REMARK   13  A    between atoms: C_21  and  C_30
REMARK   14  A    between atoms: C_22  and  C_29
REMARK   15  A    between atoms: C_31  and  N_77
REMARK                            x       y       z     vdW  Elec       q    Type
REMARK                         _______ _______ _______ _____ _____    ______ ____
ROOT
ATOM      1  N   UNL     1      -6.066   3.789  -0.882  0.00  0.00    +0.391 N 
ATOM      2  H   UNL     1      -5.966   2.808  -0.594  0.00  0.00    -0.080 HD
ENDROOT
BRANCH   1   3
ATOM      3  C   UNL     1      -5.065   4.085  -1.929  0.00  0.00    -0.067 C 
ATOM      4  C   UNL     1      -5.272   5.495  -2.485  0.00  0.00    -0.015 C 
ATOM      5  C   UNL     1      -4.227   5.775  -3.567  0.00  0.00    -0.002 C 
ATOM      6  C   UNL     1      -4.378   4.755  -4.697  0.00  0.00    -0.000 C 
ATOM      7  C   UNL     1      -4.171   3.344  -4.142  0.00  0.00    -0.002 C 
ATOM      8  C   UNL     1      -5.216   3.064  -3.059  0.00  0.00    -0.015 C 
ENDBRANCH   1   3
BRANCH   1   9
ATOM      9  C   UNL     1      -7.429   3.997  -1.412  0.00  0.00    +0.003 C 
BRANCH   9  10
ATOM     10  C   UNL     1      -7.768   5.466  -1.432  0.00  0.00    +0.139 A 
ATOM     11  N   UNL     1      -7.431   6.359  -0.535  0.00  0.00    -0.115 NA
ATOM     12  N   UNL     1      -7.904   7.497  -0.908  0.00  0.00    -0.023 NA
ATOM     13  N   UNL     1      -8.542   7.352  -2.017  0.00  0.00    -0.043 NA
ATOM     14  N   UNL     1      -8.481   6.113  -2.373  0.00  0.00    -0.225 N 
BRANCH  14  15
ATOM     15  C   UNL     1      -9.076   5.522  -3.574  0.00  0.00    +0.061 C 
ATOM     16  C   UNL     1      -7.964   5.060  -4.519  0.00  0.00    +0.036 C 
ATOM     17  C   UNL     1      -9.940   4.324  -3.179  0.00  0.00    +0.036 C 
BRANCH  15  18
ATOM     18  C   UNL     1      -9.943   6.566  -4.280  0.00  0.00    +0.026 C 
ATOM     19  C   UNL     1     -10.565   5.949  -5.535  0.00  0.00    +0.006 C 
ENDBRANCH  15  18
ENDBRANCH  14  15
ENDBRANCH   9  10
BRANCH   9  20
ATOM     20  C   UNL     1      -8.423   3.257  -0.515  0.00  0.00    -0.008 C 
BRANCH  20  22
ATOM     21  C   UNL     1      -9.232   1.004   0.200  0.00  0.00    +0.004 C 
ATOM     22  C   UNL     1      -8.162   1.752  -0.599  0.00  0.00    -0.005 C 
ENDBRANCH  20  22
ENDBRANCH   9  20
ENDBRANCH   1   9
BRANCH   1  23
ATOM     23  C   UNL     1      -5.841   4.659   0.291  0.00  0.00    -0.036 C 
BRANCH  23  24
ATOM     24  C   UNL     1      -4.637   4.154   1.045  0.00  0.00    +0.001 A 
ATOM     25  C   UNL     1      -3.467   4.838   0.984  0.00  0.00    +0.017 A 
ATOM     26  C   UNL     1      -2.317   4.321   1.728  0.00  0.00    -0.001 A 
ATOM     27  C   UNL     1      -1.084   4.982   1.703  0.00  0.00    +0.013 A 
ATOM     28  C   UNL     1      -0.030   4.474   2.408  0.00  0.00    -0.047 A 
ATOM     29  C   UNL     1      -0.171   3.308   3.148  0.00  0.00    -0.046 A 
ATOM     30  C   UNL     1      -1.376   2.640   3.186  0.00  0.00    +0.030 A 
ATOM     31  C   UNL     1      -2.462   3.135   2.472  0.00  0.00    +0.049 A 
ATOM     32  N   UNL     1      -3.681   2.491   2.497  0.00  0.00    -0.322 N 
ATOM     33  H   UNL     1      -3.780   1.677   3.014  0.00  0.00    +0.169 HD
ATOM     34  C   UNL     1      -4.732   2.973   1.811  0.00  0.00    +0.251 A 
ATOM     35  O   UNL     1      -5.793   2.374   1.851  0.00  0.00    -0.268 OA
ATOM     36  C   UNL     1       1.006   2.766   3.918  0.00  0.00    +0.044 C 
ATOM     37  C   UNL     1       1.298   5.185   2.381  0.00  0.00    +0.044 C 
ENDBRANCH  23  24
ENDBRANCH   1  23
TORSDOF 9
