REMARK  Name = ZINC64164923
REMARK  11 active torsions:
REMARK  status: ('A' for Active; 'I' for Inactive)
REMARK    1  A    between atoms: C_1  and  C_2
REMARK    2  A    between atoms: C_2  and  C_3
REMARK    3  A    between atoms: C_8  and  N_9
REMARK    4  A    between atoms: C_10  and  S_15
REMARK    5  A    between atoms: S_15  and  C_16
REMARK    6  A    between atoms: C_16  and  C_17
REMARK    7  A    between atoms: N_19  and  C_20
REMARK    8  A    between atoms: C_20  and  C_21
REMARK    9  A    between atoms: C_21  and  C_22
REMARK   10  A    between atoms: C_26  and  O_31
REMARK   11  A    between atoms: O_31  and  C_32
REMARK                            x       y       z     vdW  Elec       q    Type
REMARK                         _______ _______ _______ _____ _____    ______ ____
ROOT
ATOM      1  C   UNL     1      -2.127  -0.071   5.580  0.00  0.00    +0.167 C 
ENDROOT
BRANCH   1   2
ATOM      2  C   UNL     1      -1.909  -0.291   7.055  0.00  0.00    +0.223 C 
ATOM      3  O   UNL     1      -1.751  -1.415   7.484  0.00  0.00    -0.275 OA
ATOM      4  N   UNL     1      -1.888   0.761   7.897  0.00  0.00    -0.314 N 
ATOM      5  H   UNL     1      -2.014   1.659   7.555  0.00  0.00    +0.149 HD
BRANCH   4   6
ATOM      6  C   UNL     1      -1.675   0.547   9.331  0.00  0.00    +0.108 C 
BRANCH   6   7
ATOM      7  C   UNL     1      -1.696   1.894  10.056  0.00  0.00    +0.052 C 
BRANCH   7   8
ATOM      8  C   UNL     1      -1.478   1.673  11.531  0.00  0.00    -0.040 C 
ATOM      9  C   UNL     1      -0.304   1.747  12.198  0.00  0.00    -0.001 A 
ATOM     10  C   UNL     1       1.067   2.043  11.763  0.00  0.00    +0.013 A 
ATOM     11  C   UNL     1       2.060   2.044  12.679  0.00  0.00    +0.046 A 
ATOM     12  C   UNL     1       1.812   1.769  14.037  0.00  0.00    +0.122 A 
ATOM     13  C   UNL     1       0.571   1.487  14.510  0.00  0.00    +0.071 A 
ATOM     14  C   UNL     1      -0.541   1.461  13.631  0.00  0.00    +0.046 A 
ATOM     15  N   UNL     1      -1.815   1.219  13.841  0.00  0.00    -0.380 N 
ATOM     16  C   UNL     1      -2.528   1.332  12.564  0.00  0.00    +0.144 C 
ATOM     17  H   UNL     1      -2.217   1.006  14.698  0.00  0.00    +0.160 HD
BRANCH  12  18
ATOM     18  O   UNL     1       2.852   1.785  14.906  0.00  0.00    -0.495 OA
ATOM     19  C   UNL     1       4.142   2.085  14.369  0.00  0.00    +0.277 C 
ENDBRANCH  12  18
ENDBRANCH   7   8
ENDBRANCH   6   7
ENDBRANCH   4   6
ENDBRANCH   1   2
BRANCH   1  20
ATOM     20  S   UNL     1      -2.102  -1.668   4.720  0.00  0.00    -0.114 S 
BRANCH  20  22
ATOM     21  N   UNL     1      -1.307  -0.339   2.506  0.00  0.00    -0.254 N 
ATOM     22  C   UNL     1      -2.376  -1.234   2.980  0.00  0.00    +0.203 C 
ATOM     23  N   UNL     1      -3.637  -0.466   2.835  0.00  0.00    -0.320 NA
ATOM     24  N   UNL     1      -3.283   0.550   1.828  0.00  0.00    +0.411 N 
ATOM     25  N   UNL     1      -1.883   0.860   2.160  0.00  0.00    -0.265 NA
ATOM     26  H   UNL     1      -4.384  -1.058   2.503  0.00  0.00    +0.106 HD
ATOM     27  H   UNL     1      -3.357   0.170   0.896  0.00  0.00    -0.031 HD
ATOM     28  H   UNL     1      -1.827   1.520   2.922  0.00  0.00    +0.125 HD
ATOM     29  H   UNL     1      -3.862   1.370   1.929  0.00  0.00    -0.031 HD
BRANCH  21  35
ATOM     30  C   UNL     1       0.731  -0.503   1.223  0.00  0.00    -0.025 A 
ATOM     31  C   UNL     1       2.076  -0.808   1.149  0.00  0.00    +0.005 A 
ATOM     32  C   UNL     1       2.745  -1.267   2.268  0.00  0.00    +0.000 A 
ATOM     33  C   UNL     1       2.071  -1.421   3.466  0.00  0.00    +0.002 A 
ATOM     34  C   UNL     1       0.727  -1.118   3.547  0.00  0.00    +0.025 A 
ATOM     35  C   UNL     1       0.052  -0.652   2.425  0.00  0.00    +0.048 A 
BRANCH  30  37
ATOM     36  C   UNL     1      -0.019   1.526   0.010  0.00  0.00    +0.009 C 
ATOM     37  C   UNL     1       0.002  -0.004   0.002  0.00  0.00    +0.033 C 
ENDBRANCH  30  37
ENDBRANCH  21  35
ENDBRANCH  20  22
ENDBRANCH   1  20
TORSDOF 9
