REMARK  Name = ZINC19825286
REMARK  6 active torsions:
REMARK  status: ('A' for Active; 'I' for Inactive)
REMARK    1  A    between atoms: C_1  and  C_2
REMARK    2  A    between atoms: C_5  and  C_7
REMARK    3  A    between atoms: C_10  and  C_23
REMARK    4  A    between atoms: C_11  and  C_21
REMARK    5  A    between atoms: C_15  and  C_18
REMARK    6  A    between atoms: C_16  and  C_17
REMARK                            x       y       z     vdW  Elec       q    Type
REMARK                         _______ _______ _______ _____ _____    ______ ____
ROOT
ATOM      1  C   UNL     1       1.798  -1.722  -0.467  0.00  0.00    +0.024 C 
ATOM      2  C   UNL     1       1.522  -0.408  -0.101  0.00  0.00    -0.010 C 
ATOM      3  C   UNL     1       2.493   0.569   0.426  0.00  0.00    +0.013 A 
ATOM      4  C   UNL     1       3.854   0.509   0.701  0.00  0.00    -0.020 A 
ATOM      5  C   UNL     1       4.478   1.654   1.206  0.00  0.00    +0.095 A 
ATOM      6  C   UNL     1       3.709   2.817   1.417  0.00  0.00    +0.135 A 
ATOM      7  N   UNL     1       2.418   2.838   1.144  0.00  0.00    -0.230 NA
ATOM      8  C   UNL     1       1.787   1.769   0.662  0.00  0.00    +0.092 A 
ATOM      9  C   UNL     1       0.387   1.527   0.281  0.00  0.00    +0.081 C 
ATOM     10  C   UNL     1       0.267   0.224  -0.168  0.00  0.00    -0.023 C 
ATOM     11  C   UNL     1      -1.008  -0.418  -0.652  0.00  0.00    +0.046 C 
ATOM     12  N   UNL     1       4.319   3.956   1.917  0.00  0.00    -0.342 N 
ATOM     13  C   UNL     1       4.638  -0.755   0.460  0.00  0.00    +0.046 C 
ATOM     14  H   UNL     1       3.727   4.868   2.085  0.00  0.00    +0.144 HD
ATOM     15  H   UNL     1       5.394   3.948   2.147  0.00  0.00    +0.144 HD
ENDROOT
BRANCH   1  20
ATOM     16  C   UNL     1       6.610  -3.841  -2.178  0.00  0.00    +0.051 C 
ATOM     17  C   UNL     1       5.354  -3.064  -1.883  0.00  0.00    -0.013 A 
ATOM     18  C   UNL     1       4.946  -1.880  -2.421  0.00  0.00    +0.011 A 
ATOM     19  C   UNL     1       3.756  -1.336  -2.020  0.00  0.00    +0.016 A 
ATOM     20  C   UNL     1       3.031  -2.042  -1.057  0.00  0.00    +0.013 A 
ATOM     21  S   UNL     1       4.078  -3.460  -0.778  0.00  0.00    -0.094 S 
ENDBRANCH   1  20
BRANCH   9  22
ATOM     22  C   UNL     1      -0.675   2.485   0.355  0.00  0.00    +0.102 C 
ATOM     23  N   UNL     1      -1.517   3.245   0.415  0.00  0.00    -0.191 NA
ENDBRANCH   9  22
BRANCH   5  24
ATOM     24  C   UNL     1       5.878   1.646   1.506  0.00  0.00    +0.103 C 
ATOM     25  N   UNL     1       6.988   1.639   1.745  0.00  0.00    -0.191 NA
ENDBRANCH   5  24
TORSDOF 3
