REMARK  Name = ZINC07092625
REMARK  8 active torsions:
REMARK  status: ('A' for Active; 'I' for Inactive)
REMARK    1  A    between atoms: C_1  and  C_2
REMARK    2  A    between atoms: C_2  and  C_4
REMARK    3  A    between atoms: C_2  and  N_10
REMARK    4  A    between atoms: N_10  and  C_11
REMARK    5  A    between atoms: C_14  and  O_19
REMARK    6  A    between atoms: C_16  and  O_17
REMARK    7  A    between atoms: O_17  and  C_18
REMARK    8  A    between atoms: O_19  and  C_20
REMARK                            x       y       z     vdW  Elec       q    Type
REMARK                         _______ _______ _______ _____ _____    ______ ____
ROOT
ATOM      1  N   UNL     1      -0.721   1.571  -1.179  0.00  0.00    -0.330 N 
ATOM      2  H   UNL     1      -0.433   2.388  -1.615  0.00  0.00    +0.147 HD
ENDROOT
BRANCH   1   3
ATOM      3  C   UNL     1      -1.816   0.855  -1.684  0.00  0.00    +0.072 A 
ATOM      4  C   UNL     1      -2.225  -0.316  -1.063  0.00  0.00    +0.050 A 
ATOM      5  C   UNL     1      -3.308  -1.020  -1.558  0.00  0.00    +0.084 A 
ATOM      6  C   UNL     1      -3.980  -0.562  -2.683  0.00  0.00    +0.142 A 
ATOM      7  C   UNL     1      -3.571   0.606  -3.309  0.00  0.00    +0.094 A 
ATOM      8  C   UNL     1      -2.490   1.315  -2.812  0.00  0.00    +0.144 A 
ATOM      9 CL   UNL     1      -3.822  -2.482  -0.776  0.00  0.00    -0.080 Cl
BRANCH   8  10
ATOM     10  O   UNL     1      -2.088   2.461  -3.425  0.00  0.00    -0.493 OA
ATOM     11  C   UNL     1      -2.825   2.874  -4.577  0.00  0.00    +0.277 C 
ENDBRANCH   8  10
BRANCH   6  12
ATOM     12  O   UNL     1      -5.041  -1.258  -3.171  0.00  0.00    -0.494 OA
ATOM     13  C   UNL     1      -5.687  -0.729  -4.331  0.00  0.00    +0.277 C 
ENDBRANCH   6  12
ENDBRANCH   1   3
BRANCH   1  15
ATOM     14  C   UNL     1      -0.729   1.579   1.267  0.00  0.00    +0.038 C 
ATOM     15  C   UNL     1      -0.013   1.086   0.008  0.00  0.00    +0.154 C 
BRANCH  15  16
ATOM     16  C   UNL     1       1.401   1.607  -0.003  0.00  0.00    +0.240 C 
ATOM     17  O   UNL     1       1.779   2.315  -0.912  0.00  0.00    -0.273 OA
ATOM     18  N   UNL     1       2.245   1.288   0.998  0.00  0.00    -0.239 N 
ATOM     19  C   UNL     1       3.509   1.754   0.989  0.00  0.00    +0.303 C 
ATOM     20  O   UNL     1       3.889   2.463   0.077  0.00  0.00    -0.253 OA
ATOM     21  N   UNL     1       4.353   1.435   1.990  0.00  0.00    -0.313 N 
ATOM     22  H   UNL     1       1.942   0.722   1.726  0.00  0.00    +0.159 HD
ATOM     23  H   UNL     1       4.051   0.869   2.717  0.00  0.00    +0.146 HD
ATOM     24  H   UNL     1       5.263   1.770   1.983  0.00  0.00    +0.146 HD
ENDBRANCH  15  16
ENDBRANCH   1  15
TORSDOF 5
