REMARK  Name = ZINC11909329
REMARK  12 active torsions:
REMARK  status: ('A' for Active; 'I' for Inactive)
REMARK    1  A    between atoms: C_1  and  C_2
REMARK    2  A    between atoms: C_3  and  C_4
REMARK    3  A    between atoms: C_4  and  N_5
REMARK    4  A    between atoms: C_8  and  C_12
REMARK    5  A    between atoms: C_8  and  C_20
REMARK    6  A    between atoms: C_12  and  C_13
REMARK    7  A    between atoms: C_13  and  C_14
REMARK    8  A    between atoms: C_25  and  C_26
REMARK    9  A    between atoms: C_25  and  N_71
REMARK   10  A    between atoms: C_31  and  O_32
REMARK   11  A    between atoms: O_32  and  C_33
REMARK   12  A    between atoms: C_33  and  C_34
REMARK                            x       y       z     vdW  Elec       q    Type
REMARK                         _______ _______ _______ _____ _____    ______ ____
ROOT
ATOM      1  N   UNL     1      -1.960   3.879   3.404  0.00  0.00    -0.212 N 
ATOM      2  C   UNL     1      -2.941   4.625   2.860  0.00  0.00    +0.248 C 
ATOM      3  O   UNL     1      -3.936   4.227   2.293  0.00  0.00    -0.273 OA
ATOM      4  C   UNL     1      -2.542   6.067   3.105  0.00  0.00    +0.115 C 
ATOM      5  N   UNL     1      -1.263   5.955   3.827  0.00  0.00    -0.285 N 
ATOM      6  C   UNL     1      -1.009   4.640   3.958  0.00  0.00    +0.310 C 
ATOM      7  O   UNL     1      -0.025   4.194   4.514  0.00  0.00    -0.252 OA
ATOM      8  H   UNL     1      -0.713   6.686   4.148  0.00  0.00    +0.151 HD
ENDROOT
BRANCH   4   9
ATOM      9  C   UNL     1      -3.587   6.775   3.970  0.00  0.00    +0.018 C 
ATOM     10  C   UNL     1      -3.151   8.222   4.219  0.00  0.00    -0.013 C 
ATOM     11  C   UNL     1      -4.168   8.906   5.135  0.00  0.00    -0.078 C 
ATOM     12  C   UNL     1      -4.719   6.797   6.195  0.00  0.00    -0.078 C 
ATOM     13  C   UNL     1      -3.718   6.050   5.312  0.00  0.00    -0.013 C 
ATOM     14  N   UNL     1      -4.228   8.174   6.418  0.00  0.00    +0.382 N 
ATOM     15  H   UNL     1      -3.285   8.130   6.821  0.00  0.00    -0.081 HD
BRANCH  14  16
ATOM     16  C   UNL     1      -5.119   8.881   7.361  0.00  0.00    -0.039 C 
BRANCH  16  17
ATOM     17  C   UNL     1      -4.483  10.193   7.739  0.00  0.00    -0.022 A 
ATOM     18  C   UNL     1      -3.799  10.311   8.934  0.00  0.00    +0.005 A 
ATOM     19  C   UNL     1      -3.211  11.514   9.280  0.00  0.00    +0.000 A 
ATOM     20  C   UNL     1      -3.313  12.604   8.435  0.00  0.00    +0.004 A 
ATOM     21  C   UNL     1      -4.000  12.493   7.242  0.00  0.00    +0.046 A 
ATOM     22  C   UNL     1      -4.587  11.286   6.891  0.00  0.00    +0.122 A 
BRANCH  22  23
ATOM     23  O   UNL     1      -5.264  11.174   5.718  0.00  0.00    -0.488 OA
BRANCH  23  24
ATOM     24  C   UNL     1      -5.331  12.339   4.894  0.00  0.00    +0.256 C 
BRANCH  24  25
ATOM     25  C   UNL     1      -6.114  12.027   3.645  0.00  0.00    +0.006 C 
ATOM     26  C   UNL     1      -7.024  12.867   3.216  0.00  0.00    +0.007 C 
ENDBRANCH  24  25
ENDBRANCH  23  24
ENDBRANCH  22  23
ENDBRANCH  16  17
ENDBRANCH  14  16
ENDBRANCH   4   9
BRANCH   1  27
ATOM     27  C   UNL     1      -1.940   2.414   3.396  0.00  0.00    +0.206 C 
BRANCH  27  30
ATOM     28  C   UNL     1      -0.013   1.086   0.008  0.00  0.00    +0.106 C 
ATOM     29  C   UNL     1      -0.702   1.560   1.219  0.00  0.00    -0.104 C 
ATOM     30  C   UNL     1      -1.251   1.939   2.185  0.00  0.00    -0.083 C 
ENDBRANCH  27  30
ENDBRANCH   1  27
BRANCH   4  31
ATOM     31  C   UNL     1      -2.349   6.805   1.779  0.00  0.00    +0.040 C 
BRANCH  31  32
ATOM     32  C   UNL     1      -1.261   6.107   0.961  0.00  0.00    +0.038 C 
BRANCH  32  33
ATOM     33  C   UNL     1      -1.071   6.835  -0.346  0.00  0.00    -0.047 A 
ATOM     34  C   UNL     1      -1.810   6.467  -1.455  0.00  0.00    +0.003 A 
ATOM     35  C   UNL     1      -1.639   7.137  -2.652  0.00  0.00    +0.000 A 
ATOM     36  C   UNL     1      -0.722   8.168  -2.742  0.00  0.00    +0.000 A 
ATOM     37  C   UNL     1       0.020   8.532  -1.635  0.00  0.00    +0.000 A 
ATOM     38  C   UNL     1      -0.154   7.865  -0.436  0.00  0.00    +0.003 A 
ENDBRANCH  32  33
ENDBRANCH  31  32
ENDBRANCH   4  31
TORSDOF 11
