REMARK  Name = ZINC19226217
REMARK  10 active torsions:
REMARK  status: ('A' for Active; 'I' for Inactive)
REMARK    1  A    between atoms: C_1  and  C_2
REMARK    2  A    between atoms: C_2  and  C_3
REMARK    3  A    between atoms: C_6  and  C_10
REMARK    4  A    between atoms: C_7  and  C_9
REMARK    5  A    between atoms: C_10  and  N_11
REMARK    6  A    between atoms: C_24  and  C_26
REMARK    7  A    between atoms: C_30  and  O_34
REMARK    8  A    between atoms: C_31  and  O_32
REMARK    9  A    between atoms: O_32  and  C_33
REMARK   10  A    between atoms: O_34  and  C_35
REMARK                            x       y       z     vdW  Elec       q    Type
REMARK                         _______ _______ _______ _____ _____    ______ ____
ROOT
ATOM      1  N   UNL     1      -1.103   1.880   1.007  0.00  0.00    -0.284 NA
ATOM      2  C   UNL     1      -0.510   1.916  -0.337  0.00  0.00    +0.090 C 
ATOM      3  C   UNL     1      -1.032   3.146  -1.093  0.00  0.00    +0.053 C 
ATOM      4  C   UNL     1      -0.880   4.346  -0.193  0.00  0.00    -0.016 A 
ATOM      5  C   UNL     1      -0.928   5.752  -0.524  0.00  0.00    +0.003 A 
ATOM      6  C   UNL     1      -1.123   6.439  -1.726  0.00  0.00    +0.010 A 
ATOM      7  C   UNL     1      -1.107   7.811  -1.668  0.00  0.00    +0.001 A 
ATOM      8  C   UNL     1      -0.907   8.494  -0.479  0.00  0.00    +0.002 A 
ATOM      9  C   UNL     1      -0.712   7.840   0.725  0.00  0.00    +0.026 A 
ATOM     10  C   UNL     1      -0.723   6.447   0.696  0.00  0.00    +0.047 A 
ATOM     11  N   UNL     1      -0.566   5.511   1.677  0.00  0.00    -0.356 N 
ATOM     12  H   UNL     1      -0.393   5.826   2.717  0.00  0.00    +0.166 HD
ATOM     13  C   UNL     1      -0.661   4.256   1.139  0.00  0.00    +0.042 A 
ATOM     14  C   UNL     1      -0.548   2.938   1.868  0.00  0.00    +0.138 C 
ENDROOT
BRANCH  14  15
ATOM     15  C   UNL     1      -1.327   3.003   3.156  0.00  0.00    +0.021 A 
ATOM     16  C   UNL     1      -2.704   2.878   3.138  0.00  0.00    +0.009 A 
ATOM     17  C   UNL     1      -3.422   2.937   4.317  0.00  0.00    +0.004 A 
ATOM     18  C   UNL     1      -2.767   3.122   5.521  0.00  0.00    +0.049 A 
ATOM     19  C   UNL     1      -1.387   3.248   5.546  0.00  0.00    +0.162 A 
ATOM     20  C   UNL     1      -0.664   3.182   4.359  0.00  0.00    +0.167 A 
BRANCH  20  21
ATOM     21  O   UNL     1       0.691   3.300   4.378  0.00  0.00    -0.491 OA
ATOM     22  C   UNL     1       1.226   4.624   4.410  0.00  0.00    +0.277 C 
ENDBRANCH  20  21
BRANCH  19  23
ATOM     23  O   UNL     1      -0.741   3.430   6.729  0.00  0.00    -0.491 OA
ATOM     24  C   UNL     1      -1.547   3.482   7.907  0.00  0.00    +0.277 C 
ENDBRANCH  19  23
ENDBRANCH  14  15
BRANCH   1  25
ATOM     25  C   UNL     1      -0.931   0.557   1.623  0.00  0.00    +0.140 C 
BRANCH  25  29
ATOM     26  C   UNL     1       2.527   0.104   2.717  0.00  0.00    +0.084 A 
ATOM     27  N   UNL     1       1.254   0.478   2.972  0.00  0.00    -0.346 N 
ATOM     28  H   UNL     1       0.981   0.854   3.969  0.00  0.00    +0.167 HD
ATOM     29  C   UNL     1       0.537   0.282   1.823  0.00  0.00    +0.051 A 
ATOM     30  C   UNL     1       1.394  -0.208   0.907  0.00  0.00    +0.035 A 
ATOM     31  N   UNL     1       2.603  -0.302   1.479  0.00  0.00    -0.347 N 
ATOM     32  C   UNL     1       1.054  -0.584  -0.512  0.00  0.00    +0.065 C 
ATOM     33  H   UNL     1       3.565  -0.647   1.072  0.00  0.00    +0.167 HD
BRANCH  26  35
ATOM     34  C   UNL     1       4.312  -1.235   3.798  0.00  0.00    +0.012 C 
ATOM     35  C   UNL     1       3.669   0.150   3.699  0.00  0.00    +0.069 C 
ENDBRANCH  26  35
ENDBRANCH  25  29
ENDBRANCH   1  25
TORSDOF 6
