REMARK  Name = ZINC43737301
REMARK  4 active torsions:
REMARK  status: ('A' for Active; 'I' for Inactive)
REMARK    1  A    between atoms: C_1  and  C_2
REMARK    2  A    between atoms: C_5  and  O_33
REMARK    3  A    between atoms: C_17  and  C_32
REMARK    4  A    between atoms: C_22  and  C_23
REMARK                            x       y       z     vdW  Elec       q    Type
REMARK                         _______ _______ _______ _____ _____    ______ ____
ROOT
ATOM      1  C   UNL     1      -1.434   3.031   0.274  0.00  0.00    +0.016 C 
ATOM      2  C   UNL     1      -0.961   1.576   0.143  0.00  0.00    -0.008 C 
ATOM      3  C   UNL     1      -0.037   1.496  -1.072  0.00  0.00    +0.014 C 
ATOM      4  C   UNL     1       1.237   2.306  -0.838  0.00  0.00    +0.032 C 
ATOM      5  C   UNL     1       1.991   1.771   0.380  0.00  0.00    +0.119 C 
ATOM      6  C   UNL     1       1.125   1.933   1.634  0.00  0.00    +0.062 C 
ATOM      7  C   UNL     1      -0.201   1.234   1.384  0.00  0.00    -0.065 C 
ATOM      8  C   UNL     1      -0.604   0.357   2.253  0.00  0.00    -0.027 C 
ATOM      9  C   UNL     1      -1.856  -0.441   2.089  0.00  0.00    +0.031 C 
ATOM     10  C   UNL     1      -2.883   0.303   1.213  0.00  0.00    +0.001 C 
ATOM     11  C   UNL     1      -2.214   0.746  -0.079  0.00  0.00    +0.003 C 
ATOM     12  C   UNL     1      -1.994  -0.385  -1.063  0.00  0.00    +0.005 C 
ATOM     13  C   UNL     1      -3.271  -1.165  -1.403  0.00  0.00    +0.015 C 
ATOM     14  C   UNL     1      -4.423  -0.723  -0.543  0.00  0.00    +0.034 C 
ATOM     15  C   UNL     1      -3.986  -0.685   0.933  0.00  0.00    +0.010 C 
ATOM     16  C   UNL     1      -5.354  -0.454   1.593  0.00  0.00    +0.043 C 
ATOM     17  C   UNL     1      -6.214  -1.451   0.809  0.00  0.00    -0.004 C 
ATOM     18  C   UNL     1      -7.370  -2.004   1.242  0.00  0.00    +0.015 C 
ATOM     19  C   UNL     1      -5.588  -1.695  -0.448  0.00  0.00    +0.165 C 
ATOM     20  O   UNL     1      -5.901  -2.508  -1.284  0.00  0.00    -0.292 OA
ATOM     21  C   UNL     1      -5.028   0.588  -1.042  0.00  0.00    +0.020 C 
ENDROOT
BRANCH  18  22
ATOM     22  C   UNL     1      -7.973  -1.552   2.503  0.00  0.00    -0.025 A 
ATOM     23  C   UNL     1      -7.644  -0.299   3.031  0.00  0.00    +0.009 A 
ATOM     24  C   UNL     1      -8.215   0.118   4.215  0.00  0.00    +0.020 A 
ATOM     25  C   UNL     1      -9.112  -0.701   4.881  0.00  0.00    +0.041 A 
ATOM     26  C   UNL     1      -9.443  -1.943   4.365  0.00  0.00    +0.020 A 
ATOM     27  C   UNL     1      -8.885  -2.371   3.179  0.00  0.00    +0.009 A 
ATOM     28 CL   UNL     1      -9.825  -0.168   6.372  0.00  0.00    -0.084 Cl
ENDBRANCH  18  22
BRANCH   5  29
ATOM     29  O   UNL     1       3.208   2.504   0.546  0.00  0.00    -0.391 OA
ATOM     30  H   UNL     1       3.739   2.218   1.302  0.00  0.00    +0.210 HD
ENDBRANCH   5  29
TORSDOF 2
