REMARK  Name = ZINC02994586
REMARK  10 active torsions:
REMARK  status: ('A' for Active; 'I' for Inactive)
REMARK    1  A    between atoms: CE_1  and  SD_2
REMARK    2  A    between atoms: SD_2  and  CG_3
REMARK    3  A    between atoms: CG_3  and  CB_4
REMARK    4  A    between atoms: CB_4  and  CA_5
REMARK    5  A    between atoms: CA_5  and  C_7
REMARK    6  A    between atoms: CA_5  and  N_9
REMARK    7  A    between atoms: C_10  and  CA_12
REMARK    8  A    between atoms: CA_12  and  N_20
REMARK    9  A    between atoms: CB_13  and  CG_14
REMARK   10  A    between atoms: C_21  and  C_23
REMARK                            x       y       z     vdW  Elec       q    Type
REMARK                         _______ _______ _______ _____ _____    ______ ____
ROOT
ATOM      1  CA  PHE A   1      -1.089   1.821   0.017  0.00  0.00    +0.097 C 
ATOM      2  CB  PHE A   1      -1.557   3.087  -0.074  0.00  0.00    +0.036 C 
ENDROOT
BRANCH   2   3
ATOM      3  CG  PHE A   1      -2.982   3.326  -0.351  0.00  0.00    -0.023 A 
ATOM      4  CD2 PHE A   1      -3.750   2.342  -0.982  0.00  0.00    +0.008 A 
ATOM      5  CE2 PHE A   1      -5.087   2.571  -1.233  0.00  0.00    +0.001 A 
ATOM      6  CZ  PHE A   1      -5.665   3.775  -0.873  0.00  0.00    +0.000 A 
ATOM      7  CE1 PHE A   1      -4.911   4.756  -0.253  0.00  0.00    +0.001 A 
ATOM      8  CD1 PHE A   1      -3.575   4.540   0.010  0.00  0.00    +0.008 A 
ENDBRANCH   2   3
BRANCH   1  10
ATOM      9  N   PHE A   1       1.217   2.616   0.130  0.00  0.00    -0.297 N 
ATOM     10  C   PHE A   1       0.357   1.578   0.127  0.00  0.00    +0.259 C 
ATOM     11  O   PHE A   1       0.778   0.440   0.209  0.00  0.00    -0.269 OA
ATOM     12  H   PHE A   1       0.881   3.524   0.064  0.00  0.00    +0.150 HD
BRANCH   9  13
ATOM     13  CA  PHE A   1       2.658   2.374   0.233  0.00  0.00    +0.187 C 
BRANCH  13  14
ATOM     14  C   PHE A   1       3.220   2.100  -1.138  0.00  0.00    +0.376 C 
ATOM     15  O   PHE A   1       2.492   2.106  -2.102  0.00  0.00    -0.244 OA
ATOM     16  OXT PHE A   1       4.530   1.849  -1.288  0.00  0.00    -0.244 OA
ENDBRANCH  13  14
BRANCH  13  17
ATOM     17  CB  PHE A   1       3.341   3.608   0.827  0.00  0.00    +0.044 C 
BRANCH  17  18
ATOM     18  CG  PHE A   1       2.861   3.813   2.265  0.00  0.00    +0.071 C 
BRANCH  18  20
ATOM     19  CE  PHE A   1       3.004   5.378   4.654  0.00  0.00    +0.084 C 
ATOM     20  SD  PHE A   1       3.671   5.275   2.970  0.00  0.00    -0.164 S 
ENDBRANCH  18  20
ENDBRANCH  17  18
ENDBRANCH  13  17
ENDBRANCH   9  13
ENDBRANCH   1  10
BRANCH   1  21
ATOM     21  N   PHE A   1      -1.980   0.744   0.008  0.00  0.00    -0.275 N 
ATOM     22  C   UNK A   0      -1.833  -0.244  -0.897  0.00  0.00    +0.284 C 
ATOM     23  O   UNK A   0      -0.980  -0.156  -1.762  0.00  0.00    -0.266 OA
ATOM     24  H   PHE A   1      -2.703   0.707   0.653  0.00  0.00    +0.155 HD
BRANCH  22  25
ATOM     25  C   UNK A   0      -2.700  -1.423  -0.841  0.00  0.00    +0.191 A 
ATOM     26  C   UNK A   0      -2.601  -2.531  -1.634  0.00  0.00    +0.056 A 
ATOM     27  C   UNK A   0      -3.623  -3.405  -1.237  0.00  0.00    +0.058 A 
ATOM     28  C   UNK A   0      -4.301  -2.797  -0.236  0.00  0.00    +0.171 A 
ATOM     29  O   UNK A   0      -3.741  -1.603  -0.001  0.00  0.00    -0.444 OA
ATOM     30 BR   UNK A   0      -5.791  -3.515   0.680  0.00  0.00    -0.008 Br
ENDBRANCH  22  25
ENDBRANCH   1  21
TORSDOF 9
