REMARK  Name = ZINC13768312
REMARK  6 active torsions:
REMARK  status: ('A' for Active; 'I' for Inactive)
REMARK    1  A    between atoms: C_1  and  C_2
REMARK    2  A    between atoms: C_7  and  C_33
REMARK    3  A    between atoms: N_9  and  C_10
REMARK    4  A    between atoms: C_10  and  C_11
REMARK    5  A    between atoms: C_12  and  O_32
REMARK    6  A    between atoms: C_19  and  C_22
REMARK                            x       y       z     vdW  Elec       q    Type
REMARK                         _______ _______ _______ _____ _____    ______ ____
ROOT
ATOM      1  C   UNL     1       2.931  -0.708   2.988  0.00  0.00    +0.020 A 
ATOM      2  C   UNL     1       2.692  -0.099   4.208  0.00  0.00    +0.122 A 
ATOM      3  C   UNL     1       2.971  -0.764   5.401  0.00  0.00    +0.046 A 
ATOM      4  C   UNL     1       3.482  -2.030   5.380  0.00  0.00    +0.019 A 
ATOM      5  C   UNL     1       3.725  -2.657   4.159  0.00  0.00    +0.065 A 
ATOM      6  C   UNL     1       3.448  -1.996   2.948  0.00  0.00    +0.143 A 
ATOM      7  O   UNL     1       3.693  -2.602   1.770  0.00  0.00    -0.462 OA
ATOM      8  C   UNL     1       3.905  -3.917   1.687  0.00  0.00    +0.208 A 
ATOM      9  C   UNL     1       4.194  -4.686   2.770  0.00  0.00    +0.064 A 
ATOM     10  C   UNL     1       4.269  -4.027   4.090  0.00  0.00    +0.200 A 
ATOM     11  O   UNL     1       4.737  -4.586   5.067  0.00  0.00    -0.286 OA
ENDROOT
BRANCH   9  12
ATOM     12  C   UNL     1       4.438  -6.142   2.627  0.00  0.00    -0.008 A 
ATOM     13  C   UNL     1       3.561  -7.057   3.205  0.00  0.00    +0.012 A 
ATOM     14  C   UNL     1       3.791  -8.411   3.072  0.00  0.00    +0.050 A 
ATOM     15  C   UNL     1       4.895  -8.866   2.365  0.00  0.00    +0.162 A 
ATOM     16  C   UNL     1       5.772  -7.957   1.784  0.00  0.00    +0.163 A 
ATOM     17  C   UNL     1       5.543  -6.597   1.911  0.00  0.00    +0.058 A 
ATOM     18  O   UNL     1       6.855  -8.387   1.080  0.00  0.00    -0.485 OA
ATOM     19  C   UNL     1       7.257  -9.746   1.283  0.00  0.00    +0.270 C 
ATOM     20  C   UNL     1       6.005 -10.631   1.221  0.00  0.00    +0.270 C 
ATOM     21  O   UNL     1       5.105 -10.207   2.250  0.00  0.00    -0.485 OA
ENDBRANCH   9  12
BRANCH   2  22
ATOM     22  O   UNL     1       2.182   1.158   4.243  0.00  0.00    -0.506 OA
ATOM     23  H   UNL     1       1.239   1.194   4.454  0.00  0.00    +0.292 HD
ENDBRANCH   2  22
BRANCH   1  24
ATOM     24  C   UNL     1       2.625   0.023   1.706  0.00  0.00    -0.035 C 
BRANCH  24  31
ATOM     25  C   UNL     1       1.762  -2.241   0.287  0.00  0.00    -0.013 C 
ATOM     26  C   UNL     1       0.863  -1.555   1.316  0.00  0.00    -0.071 C 
ATOM     27  C   UNL     1      -0.602  -1.717   0.903  0.00  0.00    -0.016 C 
ATOM     28  C   UNL     1      -1.498  -1.029   1.936  0.00  0.00    -0.003 C 
ATOM     29  C   UNL     1      -1.088   0.442   2.054  0.00  0.00    -0.016 C 
ATOM     30  C   UNL     1       0.394   0.524   2.425  0.00  0.00    -0.071 C 
ATOM     31  N   UNL     1       1.199  -0.128   1.385  0.00  0.00    +0.386 N 
ATOM     32  C   UNL     1       0.809   1.992   2.544  0.00  0.00    -0.013 C 
ATOM     33  H   UNL     1       1.010   0.305   0.493  0.00  0.00    -0.081 HD
ENDBRANCH  24  31
ENDBRANCH   1  24
TORSDOF 4
