REMARK  Name = ZINC28053108
REMARK  3 active torsions:
REMARK  status: ('A' for Active; 'I' for Inactive)
REMARK    1  A    between atoms: C_1  and  C_2
REMARK    2  A    between atoms: C_5  and  C_8
REMARK    3  A    between atoms: C_25  and  C_27
REMARK                            x       y       z     vdW  Elec       q    Type
REMARK                         _______ _______ _______ _____ _____    ______ ____
ROOT
ATOM      1  C   UNL     1       4.104   4.257   0.599  0.00  0.00    +0.234 C 
ATOM      2  C   UNL     1       3.620   2.848   0.341  0.00  0.00    +0.025 C 
ATOM      3  C   UNL     1       4.476   1.833   0.470  0.00  0.00    +0.050 C 
ATOM      4  C   UNL     1       5.867   2.131   0.886  0.00  0.00    +0.038 A 
ATOM      5  C   UNL     1       6.889   1.204   0.719  0.00  0.00    +0.013 A 
ATOM      6  C   UNL     1       8.171   1.525   1.123  0.00  0.00    +0.001 A 
ATOM      7  C   UNL     1       8.437   2.759   1.690  0.00  0.00    +0.004 A 
ATOM      8  C   UNL     1       7.425   3.687   1.859  0.00  0.00    +0.046 A 
ATOM      9  C   UNL     1       6.138   3.380   1.459  0.00  0.00    +0.131 A 
ATOM     10  O   UNL     1       5.118   4.264   1.604  0.00  0.00    -0.479 OA
ATOM     11  N   UNL     1       4.100   0.504   0.240  0.00  0.00    -0.282 N 
ATOM     12  C   UNL     1       2.744   0.234   0.149  0.00  0.00    +0.240 A 
ATOM     13  N   UNL     1       2.089  -0.891   0.170  0.00  0.00    -0.092 NA
ATOM     14  N   UNL     1       0.823  -0.671   0.063  0.00  0.00    -0.021 NA
ATOM     15  N   UNL     1       0.592   0.598  -0.035  0.00  0.00    -0.042 NA
ATOM     16  N   UNL     1       1.833   1.232   0.014  0.00  0.00    -0.201 N 
ATOM     17  C   UNL     1       2.180   2.644  -0.061  0.00  0.00    +0.174 C 
ATOM     18  H   UNL     1       4.869  -0.276   0.140  0.00  0.00    +0.155 HD
ENDROOT
BRANCH   1  23
ATOM     19  C   UNL     1       6.257   6.456  -4.292  0.00  0.00    +0.044 C 
ATOM     20  C   UNL     1       5.695   5.882  -3.017  0.00  0.00    -0.050 A 
ATOM     21  C   UNL     1       6.415   4.939  -2.307  0.00  0.00    +0.004 A 
ATOM     22  C   UNL     1       5.901   4.414  -1.137  0.00  0.00    +0.008 A 
ATOM     23  C   UNL     1       4.666   4.830  -0.676  0.00  0.00    -0.003 A 
ATOM     24  C   UNL     1       3.943   5.769  -1.389  0.00  0.00    +0.008 A 
ATOM     25  C   UNL     1       4.460   6.298  -2.557  0.00  0.00    +0.004 A 
ENDBRANCH   1  23
BRANCH  17  26
ATOM     26  C   UNL     1       1.982   3.133  -1.473  0.00  0.00    -0.019 A 
ATOM     27  C   UNL     1       2.706   2.572  -2.507  0.00  0.00    +0.006 A 
ATOM     28  C   UNL     1       2.521   3.017  -3.802  0.00  0.00    +0.000 A 
ATOM     29  C   UNL     1       1.618   4.031  -4.062  0.00  0.00    +0.000 A 
ATOM     30  C   UNL     1       0.897   4.596  -3.027  0.00  0.00    +0.000 A 
ATOM     31  C   UNL     1       1.079   4.147  -1.732  0.00  0.00    +0.006 A 
ENDBRANCH  17  26
TORSDOF 2
