REMARK  Name = ZINC22215385
REMARK  10 active torsions:
REMARK  status: ('A' for Active; 'I' for Inactive)
REMARK    1  A    between atoms: C_1  and  N_2
REMARK    2  A    between atoms: N_2  and  C_3
REMARK    3  A    between atoms: N_2  and  C_4
REMARK    4  A    between atoms: C_4  and  C_5
REMARK    5  A    between atoms: C_5  and  C_6
REMARK    6  A    between atoms: C_6  and  N_7
REMARK    7  A    between atoms: C_16  and  S_17
REMARK    8  A    between atoms: S_17  and  C_18
REMARK    9  A    between atoms: C_18  and  C_19
REMARK   10  A    between atoms: N_24  and  C_25
REMARK                            x       y       z     vdW  Elec       q    Type
REMARK                         _______ _______ _______ _____ _____    ______ ____
ROOT
ATOM      1  N   UNL     1      -0.254   0.244  11.223  0.00  0.00    -0.287 N 
ATOM      2  C   UNL     1       0.019  -0.661  12.182  0.00  0.00    +0.263 A 
ATOM      3  O   UNL     1      -0.055  -0.354  13.360  0.00  0.00    -0.267 OA
ATOM      4  C   UNL     1       0.401  -1.985  11.799  0.00  0.00    +0.076 A 
ATOM      5  C   UNL     1       0.743  -3.116  12.664  0.00  0.00    -0.023 A 
ATOM      6  C   UNL     1       1.074  -4.273  12.057  0.00  0.00    -0.004 A 
ATOM      7  S   UNL     1       0.953  -3.933  10.321  0.00  0.00    -0.073 S 
ATOM      8  C   UNL     1       0.456  -2.232  10.417  0.00  0.00    +0.117 A 
ATOM      9  N   UNL     1       0.169  -1.295   9.521  0.00  0.00    -0.216 NA
ATOM     10  C   UNL     1      -0.181  -0.083   9.900  0.00  0.00    +0.173 A 
ATOM     11  C   UNL     1       1.460  -5.564  12.712  0.00  0.00    +0.043 C 
ATOM     12  C   UNL     1       1.786  -5.282  14.186  0.00  0.00    +0.005 C 
ATOM     13  C   UNL     1       0.668  -4.418  14.779  0.00  0.00    +0.005 C 
ATOM     14  C   UNL     1       0.731  -3.010  14.187  0.00  0.00    +0.037 C 
ENDROOT
BRANCH   1  15
ATOM     15  C   UNL     1      -0.642   1.603  11.608  0.00  0.00    +0.125 C 
BRANCH  15  16
ATOM     16  C   UNL     1      -2.162   1.675  11.764  0.00  0.00    +0.003 C 
BRANCH  16  17
ATOM     17  C   UNL     1      -2.567   3.095  12.165  0.00  0.00    -0.078 C 
BRANCH  17  19
ATOM     18  C   UNL     1      -4.479   2.340  13.444  0.00  0.00    -0.097 C 
ATOM     19  N   UNL     1      -4.026   3.165  12.316  0.00  0.00    +0.376 N 
ATOM     20  C   UNL     1      -4.474   4.555  12.466  0.00  0.00    -0.097 C 
ATOM     21  H   UNL     1      -4.480   2.761  11.398  0.00  0.00    -0.083 HD
ENDBRANCH  17  19
ENDBRANCH  16  17
ENDBRANCH  15  16
ENDBRANCH   1  15
BRANCH  10  22
ATOM     22  S   UNL     1      -0.554   1.135   8.683  0.00  0.00    -0.078 S 
BRANCH  22  23
ATOM     23  C   UNL     1      -0.289   0.166   7.177  0.00  0.00    +0.173 C 
BRANCH  23  24
ATOM     24  C   UNL     1      -0.557   1.028   5.971  0.00  0.00    +0.231 C 
ATOM     25  O   UNL     1      -0.894   2.184   6.115  0.00  0.00    -0.274 OA
ATOM     26  N   UNL     1      -0.423   0.515   4.732  0.00  0.00    -0.239 N 
ATOM     27  C   UNL     1      -0.663   1.286   3.653  0.00  0.00    +0.306 C 
ATOM     28  O   UNL     1      -1.000   2.444   3.797  0.00  0.00    -0.252 OA
ATOM     29  N   UNL     1      -0.528   0.772   2.414  0.00  0.00    -0.296 N 
ATOM     30  H   UNL     1      -0.117  -0.534   4.601  0.00  0.00    +0.159 HD
ATOM     31  H   UNL     1      -0.222  -0.276   2.284  0.00  0.00    +0.151 HD
BRANCH  29  32
ATOM     32  C   UNL     1      -0.789   1.611   1.242  0.00  0.00    +0.074 C 
ATOM     33  C   UNL     1      -0.013   1.086   0.008  0.00  0.00    +0.022 C 
ATOM     34  C   UNL     1      -0.809   1.622  -1.200  0.00  0.00    +0.002 C 
ATOM     35  C   UNL     1      -2.243   1.875  -0.703  0.00  0.00    +0.002 C 
ATOM     36  C   UNL     1      -2.268   1.485   0.789  0.00  0.00    +0.022 C 
ENDBRANCH  29  32
ENDBRANCH  23  24
ENDBRANCH  22  23
ENDBRANCH  10  22
TORSDOF 8
