REMARK  Name = ZINC38663622
REMARK  9 active torsions:
REMARK  status: ('A' for Active; 'I' for Inactive)
REMARK    1  A    between atoms: C_1  and  C_2
REMARK    2  A    between atoms: C_6  and  N_12
REMARK    3  A    between atoms: C_9  and  C_11
REMARK    4  A    between atoms: C_13  and  C_15
REMARK    5  A    between atoms: C_15  and  S_16
REMARK    6  A    between atoms: S_16  and  C_17
REMARK    7  A    between atoms: C_21  and  C_26
REMARK    8  A    between atoms: N_22  and  C_23
REMARK    9  A    between atoms: C_23  and  C_24
REMARK                            x       y       z     vdW  Elec       q    Type
REMARK                         _______ _______ _______ _____ _____    ______ ____
ROOT
ATOM      1  S   UNL     1      -6.077  -5.894  -1.013  0.00  0.00    -0.109 S 
ENDROOT
BRANCH   1   2
ATOM      2  C   UNL     1      -6.213  -7.095  -2.366  0.00  0.00    +0.237 C 
ATOM      3  N   UNL     1      -4.954  -7.846  -2.520  0.00  0.00    -0.238 N 
ATOM      4  N   UNL     1      -4.489  -7.561  -3.810  0.00  0.00    -0.170 NA
ATOM      5  C   UNL     1      -5.277  -6.764  -4.432  0.00  0.00    +0.162 C 
ATOM      6  N   UNL     1      -6.373  -6.404  -3.657  0.00  0.00    -0.282 N 
ATOM      7  H   UNL     1      -4.533  -8.420  -1.862  0.00  0.00    +0.171 HD
BRANCH   5   8
ATOM      8  C   UNL     1      -5.043  -6.274  -5.838  0.00  0.00    +0.275 C 
ATOM      9  C   UNL     1      -3.963  -7.131  -6.511  0.00  0.00    +0.281 C 
ATOM     10  O   UNL     1      -3.756  -6.631  -7.837  0.00  0.00    -0.484 OA
ATOM     11  C   UNL     1      -3.631  -5.283  -7.969  0.00  0.00    +0.162 A 
ATOM     12  C   UNL     1      -3.079  -4.761  -9.130  0.00  0.00    +0.049 A 
ATOM     13  C   UNL     1      -2.948  -3.393  -9.280  0.00  0.00    +0.004 A 
ATOM     14  C   UNL     1      -3.367  -2.542  -8.275  0.00  0.00    +0.004 A 
ATOM     15  C   UNL     1      -3.917  -3.055  -7.115  0.00  0.00    +0.049 A 
ATOM     16  C   UNL     1      -4.050  -4.427  -6.957  0.00  0.00    +0.163 A 
ATOM     17  O   UNL     1      -4.586  -4.918  -5.807  0.00  0.00    -0.474 OA
ENDBRANCH   5   8
BRANCH   6  18
ATOM     18  C   UNL     1      -7.471  -5.515  -4.044  0.00  0.00    +0.135 C 
BRANCH  18  19
ATOM     19  C   UNL     1      -7.124  -4.096  -3.671  0.00  0.00    -0.016 C 
ATOM     20  C   UNL     1      -7.150  -3.155  -4.582  0.00  0.00    +0.005 C 
ENDBRANCH  18  19
ENDBRANCH   6  18
ENDBRANCH   1   2
BRANCH   1  21
ATOM     21  C   UNL     1      -4.645  -4.879  -1.470  0.00  0.00    +0.168 C 
BRANCH  21  23
ATOM     22  N   UNL     1      -3.401  -2.952  -0.543  0.00  0.00    -0.285 N 
ATOM     23  C   UNL     1      -4.418  -3.827  -0.415  0.00  0.00    +0.225 C 
ATOM     24  O   UNL     1      -5.151  -3.768   0.550  0.00  0.00    -0.275 OA
ATOM     25  H   UNL     1      -2.815  -2.999  -1.315  0.00  0.00    +0.151 HD
BRANCH  22  30
ATOM     26  C   UNL     1      -0.019   1.526   0.010  0.00  0.00    +0.030 C 
ATOM     27  C   UNL     1       0.002  -0.004   0.002  0.00  0.00    +0.099 C 
ATOM     28  C   UNL     1      -1.409  -0.528   0.019  0.00  0.00    -0.011 C 
ATOM     29  C   UNL     1      -1.717  -1.674   0.651  0.00  0.00    +0.065 C 
ATOM     30  C   UNL     1      -3.181  -1.929   0.482  0.00  0.00    +0.243 C 
ATOM     31  O   UNL     1      -3.752  -0.670   0.063  0.00  0.00    -0.347 OA
ATOM     32  C   UNL     1      -2.663   0.023  -0.586  0.00  0.00    +0.146 C 
ATOM     33  C   UNL     1      -2.687  -0.251  -2.091  0.00  0.00    +0.043 C 
ATOM     34  C   UNL     1      -0.670  -2.429   1.357  0.00  0.00    +0.258 C 
ATOM     35  O   UNL     1      -0.872  -3.538   1.815  0.00  0.00    -0.269 OA
ATOM     36  N   UNL     1       0.533  -1.813   1.465  0.00  0.00    -0.247 N 
ATOM     37  N   UNL     1       0.706  -0.493   1.194  0.00  0.00    -0.233 NA
ATOM     38  H   UNL     1       1.300  -2.335   1.746  0.00  0.00    +0.169 HD
ATOM     39  H   UNL     1       1.686  -0.255   1.159  0.00  0.00    +0.145 HD
ENDBRANCH  22  30
ENDBRANCH  21  23
ENDBRANCH   1  21
TORSDOF 7
