REMARK  Name = ZINC30551649
REMARK  13 active torsions:
REMARK  status: ('A' for Active; 'I' for Inactive)
REMARK    1  A    between atoms: C_1  and  C_2
REMARK    2  A    between atoms: C_5  and  S_8
REMARK    3  A    between atoms: S_8  and  N_11
REMARK    4  A    between atoms: N_11  and  C_12
REMARK    5  A    between atoms: C_12  and  C_14
REMARK    6  A    between atoms: C_12  and  C_18
REMARK    7  A    between atoms: C_14  and  C_15
REMARK    8  A    between atoms: C_15  and  S_16
REMARK    9  A    between atoms: S_16  and  C_17
REMARK   10  A    between atoms: N_20  and  C_21
REMARK   11  A    between atoms: C_21  and  C_22
REMARK   12  A    between atoms: C_27  and  C_28
REMARK   13  A    between atoms: C_28  and  N_29
REMARK                            x       y       z     vdW  Elec       q    Type
REMARK                         _______ _______ _______ _____ _____    ______ ____
ROOT
ATOM      1  C   UNL     1       3.448   2.479   5.338  0.00  0.00    +0.232 C 
ATOM      2  O   UNL     1       2.943   3.433   4.783  0.00  0.00    -0.274 OA
ATOM      3  N   UNL     1       4.300   1.681   4.665  0.00  0.00    -0.310 N 
ATOM      4  H   UNL     1       4.758   0.817   5.168  0.00  0.00    +0.149 HD
ENDROOT
BRANCH   1   5
ATOM      5  C   UNL     1       3.121   2.187   6.780  0.00  0.00    +0.163 C 
BRANCH   5   6
ATOM      6  N   UNL     1       2.179   3.192   7.280  0.00  0.00    -0.178 NA
ATOM      7  H   UNL     1       1.263   3.416   6.715  0.00  0.00    +0.149 HD
BRANCH   6   8
ATOM      8  S   UNL     1       2.603   4.162   8.554  0.00  0.00    +0.059 S 
ATOM      9  O   UNL     1       1.502   5.030   8.787  0.00  0.00    -0.153 OA
ATOM     10  O   UNL     1       3.124   3.306   9.561  0.00  0.00    -0.153 OA
BRANCH   8  15
ATOM     11  C   UNL     1       7.176   7.636   6.705  0.00  0.00    +0.044 C 
ATOM     12  C   UNL     1       6.034   6.769   7.167  0.00  0.00    -0.050 A 
ATOM     13  C   UNL     1       4.730   7.199   7.006  0.00  0.00    +0.005 A 
ATOM     14  C   UNL     1       3.682   6.403   7.430  0.00  0.00    +0.029 A 
ATOM     15  C   UNL     1       3.938   5.176   8.014  0.00  0.00    +0.105 A 
ATOM     16  C   UNL     1       5.242   4.748   8.179  0.00  0.00    +0.029 A 
ATOM     17  C   UNL     1       6.290   5.542   7.752  0.00  0.00    +0.005 A 
ENDBRANCH   8  15
ENDBRANCH   6   8
ENDBRANCH   5   6
BRANCH   5  18
ATOM     18  C   UNL     1       2.490   0.798   6.888  0.00  0.00    +0.040 C 
BRANCH  18  19
ATOM     19  C   UNL     1       2.302   0.437   8.363  0.00  0.00    +0.071 C 
BRANCH  19  20
ATOM     20  S   UNL     1       1.697  -1.268   8.496  0.00  0.00    -0.164 S 
ATOM     21  C   UNL     1       1.528  -1.536  10.283  0.00  0.00    +0.084 C 
ENDBRANCH  19  20
ENDBRANCH  18  19
ENDBRANCH   5  18
ENDBRANCH   1   5
BRANCH   3  22
ATOM     22  C   UNL     1       4.618   1.965   3.264  0.00  0.00    +0.139 C 
BRANCH  22  23
ATOM     23  C   UNL     1       5.587   0.932   2.749  0.00  0.00    -0.029 A 
ATOM     24  C   UNL     1       6.913   1.267   2.549  0.00  0.00    +0.005 A 
ATOM     25  C   UNL     1       7.802   0.320   2.078  0.00  0.00    +0.000 A 
ATOM     26  C   UNL     1       7.364  -0.963   1.805  0.00  0.00    +0.000 A 
ATOM     27  C   UNL     1       6.039  -1.300   2.009  0.00  0.00    +0.002 A 
ATOM     28  C   UNL     1       5.149  -0.350   2.476  0.00  0.00    -0.059 A 
BRANCH  28  29
ATOM     29  C   UNL     1       3.703  -0.715   2.694  0.00  0.00    -0.043 C 
BRANCH  29  30
ATOM     30  N   UNL     1       3.461  -2.075   2.192  0.00  0.00    +0.382 N 
ATOM     31  C   UNL     1       2.207  -2.618   2.730  0.00  0.00    -0.078 C 
ATOM     32  C   UNL     1       2.060  -4.081   2.305  0.00  0.00    -0.019 C 
ATOM     33  C   UNL     1       2.060  -4.166   0.776  0.00  0.00    -0.004 C 
ATOM     34  C   UNL     1       3.354  -3.549   0.239  0.00  0.00    -0.019 C 
ATOM     35  C   UNL     1       3.464  -2.102   0.724  0.00  0.00    -0.078 C 
ATOM     36  H   UNL     1       4.282  -2.717   2.541  0.00  0.00    -0.081 HD
ENDBRANCH  29  30
ENDBRANCH  28  29
ENDBRANCH  22  23
ENDBRANCH   3  22
TORSDOF 11
