REMARK  Name = ZINC06832533
REMARK  7 active torsions:
REMARK  status: ('A' for Active; 'I' for Inactive)
REMARK    1  A    between atoms: C_1  and  C_2
REMARK    2  A    between atoms: C_2  and  C_3
REMARK    3  A    between atoms: C_2  and  C_4
REMARK    4  A    between atoms: C_4  and  C_5
REMARK    5  A    between atoms: C_22  and  C_24
REMARK    6  A    between atoms: C_27  and  O_30
REMARK    7  A    between atoms: O_30  and  C_31
REMARK                            x       y       z     vdW  Elec       q    Type
REMARK                         _______ _______ _______ _____ _____    ______ ____
ROOT
ATOM      1  C   UNL     1       2.230  -0.292  -1.091  0.00  0.00    +0.204 C 
ATOM      2  C   UNL     1       2.948  -0.898  -2.261  0.00  0.00    +0.023 C 
ATOM      3  C   UNL     1       3.132  -0.196  -3.397  0.00  0.00    +0.083 C 
ATOM      4  C   UNL     1       2.629   1.200  -3.433  0.00  0.00    +0.042 A 
ATOM      5  C   UNL     1       2.525   1.901  -4.628  0.00  0.00    +0.013 A 
ATOM      6  C   UNL     1       2.035   3.193  -4.621  0.00  0.00    +0.001 A 
ATOM      7  C   UNL     1       1.648   3.785  -3.431  0.00  0.00    +0.004 A 
ATOM      8  C   UNL     1       1.756   3.096  -2.237  0.00  0.00    +0.046 A 
ATOM      9  C   UNL     1       2.254   1.805  -2.228  0.00  0.00    +0.131 A 
ATOM     10  O   UNL     1       2.412   1.124  -1.065  0.00  0.00    -0.484 OA
ATOM     11  N   UNL     1       3.756  -0.739  -4.473  0.00  0.00    -0.213 NA
ATOM     12  C   UNL     1       4.238  -1.959  -4.511  0.00  0.00    +0.237 C 
ATOM     13  N   UNL     1       4.875  -2.647  -5.484  0.00  0.00    -0.205 NA
ATOM     14  C   UNL     1       5.177  -3.846  -5.069  0.00  0.00    +0.203 C 
ATOM     15  N   UNL     1       4.746  -4.005  -3.787  0.00  0.00    -0.251 N 
ATOM     16  N   UNL     1       4.141  -2.801  -3.421  0.00  0.00    -0.208 N 
ATOM     17  C   UNL     1       3.481  -2.313  -2.204  0.00  0.00    +0.159 C 
ATOM     18  H   UNL     1       4.840  -4.798  -3.237  0.00  0.00    +0.171 HD
ENDROOT
BRANCH  17  19
ATOM     19  C   UNL     1       2.332  -3.236  -1.890  0.00  0.00    -0.021 A 
ATOM     20  C   UNL     1       1.466  -3.627  -2.894  0.00  0.00    +0.009 A 
ATOM     21  C   UNL     1       0.412  -4.473  -2.609  0.00  0.00    +0.046 A 
ATOM     22  C   UNL     1       0.223  -4.930  -1.312  0.00  0.00    +0.120 A 
ATOM     23  C   UNL     1       1.093  -4.536  -0.306  0.00  0.00    +0.046 A 
ATOM     24  C   UNL     1       2.149  -3.695  -0.599  0.00  0.00    +0.009 A 
BRANCH  22  25
ATOM     25  O   UNL     1      -0.814  -5.762  -1.029  0.00  0.00    -0.495 OA
ATOM     26  C   UNL     1      -0.948  -6.193   0.327  0.00  0.00    +0.277 C 
ENDBRANCH  22  25
ENDBRANCH  17  19
BRANCH   1  27
ATOM     27  C   UNL     1       0.737  -0.607  -1.197  0.00  0.00    +0.052 C 
BRANCH  27  29
ATOM     28  C   UNL     1      -1.492  -0.276  -0.119  0.00  0.00    +0.007 C 
ATOM     29  C   UNL     1       0.017  -0.090   0.050  0.00  0.00    -0.013 C 
ATOM     30  C   UNL     1       0.493  -0.872   1.275  0.00  0.00    +0.007 C 
ENDBRANCH  27  29
ENDBRANCH   1  27
TORSDOF 4
