REMARK  Name = ZINC15222453
REMARK  8 active torsions:
REMARK  status: ('A' for Active; 'I' for Inactive)
REMARK    1  A    between atoms: C_1  and  C_2
REMARK    2  A    between atoms: C_2  and  C_40
REMARK    3  A    between atoms: C_3  and  C_15
REMARK    4  A    between atoms: C_16  and  C_17
REMARK    5  A    between atoms: C_20  and  C_23
REMARK    6  A    between atoms: C_24  and  C_25
REMARK    7  A    between atoms: C_33  and  C_34
REMARK    8  A    between atoms: C_33  and  C_35
REMARK                            x       y       z     vdW  Elec       q    Type
REMARK                         _______ _______ _______ _____ _____    ______ ____
ROOT
ATOM      1  C   UNL     1       4.142   1.168  -2.061  0.00  0.00    -0.025 A 
ATOM      2  C   UNL     1       3.727   2.423  -2.511  0.00  0.00    +0.008 A 
ATOM      3  C   UNL     1       4.658   3.346  -2.930  0.00  0.00    +0.008 A 
ATOM      4  C   UNL     1       6.018   3.028  -2.905  0.00  0.00    -0.025 A 
ATOM      5  C   UNL     1       6.433   1.772  -2.455  0.00  0.00    +0.008 A 
ATOM      6  C   UNL     1       5.502   0.851  -2.031  0.00  0.00    +0.008 A 
ENDROOT
BRANCH   1   8
ATOM      7  C   UNL     1       1.851   0.478  -1.640  0.00  0.00    +0.020 C 
ATOM      8  C   UNL     1       3.143   0.177  -1.611  0.00  0.00    +0.007 C 
BRANCH   7  11
ATOM      9  C   UNL     1      -0.019   1.526   0.010  0.00  0.00    +0.020 C 
ATOM     10  C   UNL     1       0.002  -0.004   0.002  0.00  0.00    +0.034 C 
ATOM     11  C   UNL     1       0.832  -0.533  -1.181  0.00  0.00    +0.131 C 
ATOM     12  N   UNL     1       1.457  -1.747  -0.605  0.00  0.00    -0.296 N 
ATOM     13  C   UNL     1       1.636  -1.527   0.755  0.00  0.00    +0.036 A 
ATOM     14  C   UNL     1       0.761  -0.539   1.202  0.00  0.00    -0.017 A 
ATOM     15  C   UNL     1       0.707  -0.208   2.539  0.00  0.00    +0.006 A 
ATOM     16  C   UNL     1       1.557  -0.822   3.442  0.00  0.00    +0.000 A 
ATOM     17  C   UNL     1       2.462  -1.769   3.001  0.00  0.00    +0.002 A 
ATOM     18  C   UNL     1       2.506  -2.121   1.668  0.00  0.00    +0.023 A 
ATOM     19  C   UNL     1       1.531  -2.659  -1.753  0.00  0.00    +0.203 C 
ATOM     20  C   UNL     1       0.352  -2.255  -2.620  0.00  0.00    +0.232 C 
ATOM     21  O   UNL     1      -0.179  -2.944  -3.465  0.00  0.00    -0.274 OA
ATOM     22  N   UNL     1      -0.001  -0.994  -2.286  0.00  0.00    -0.289 N 
ATOM     23  C   UNL     1      -1.421  -0.564  -0.034  0.00  0.00    +0.020 C 
ATOM     24  H   UNL     1      -0.701  -0.476  -2.714  0.00  0.00    +0.151 HD
ENDBRANCH   7  11
ENDBRANCH   1   8
BRANCH   4  25
ATOM     25  C   UNL     1       7.016   4.018  -3.356  0.00  0.00    +0.007 C 
ATOM     26  C   UNL     1       8.308   3.715  -3.332  0.00  0.00    +0.020 C 
BRANCH  26  27
ATOM     27  C   UNL     1       9.327   4.725  -3.792  0.00  0.00    +0.131 C 
ATOM     28  N   UNL     1       8.707   6.039  -4.090  0.00  0.00    -0.296 N 
ATOM     29  C   UNL     1       8.688   6.769  -2.908  0.00  0.00    +0.036 A 
ATOM     30  C   UNL     1       9.693   6.320  -2.053  0.00  0.00    -0.017 A 
ATOM     31  C   UNL     1       9.920   6.953  -0.850  0.00  0.00    +0.006 A 
ATOM     32  C   UNL     1       9.117   8.009  -0.459  0.00  0.00    +0.000 A 
ATOM     33  C   UNL     1       8.084   8.428  -1.276  0.00  0.00    +0.002 A 
ATOM     34  C   UNL     1       7.866   7.814  -2.492  0.00  0.00    +0.023 A 
ATOM     35  C   UNL     1      10.319   5.083  -2.671  0.00  0.00    +0.034 C 
ATOM     36  C   UNL     1      10.410   3.951  -1.646  0.00  0.00    +0.020 C 
ATOM     37  C   UNL     1      11.698   5.405  -3.250  0.00  0.00    +0.020 C 
ATOM     38  C   UNL     1       8.461   5.974  -5.535  0.00  0.00    +0.203 C 
ATOM     39  C   UNL     1       9.552   5.054  -6.054  0.00  0.00    +0.232 C 
ATOM     40  O   UNL     1       9.950   4.997  -7.198  0.00  0.00    -0.274 OA
ATOM     41  N   UNL     1      10.001   4.292  -5.012  0.00  0.00    -0.289 N 
ATOM     42  H   UNL     1      10.671   3.592  -5.063  0.00  0.00    +0.151 HD
ENDBRANCH  26  27
ENDBRANCH   4  25
TORSDOF 4
