REMARK  Name = ZINC09448525
REMARK  6 active torsions:
REMARK  status: ('A' for Active; 'I' for Inactive)
REMARK    1  A    between atoms: C_1  and  C_2
REMARK    2  A    between atoms: C_8  and  N_10
REMARK    3  A    between atoms: C_14  and  C_16
REMARK    4  A    between atoms: C_16  and  O_17
REMARK    5  A    between atoms: O_17  and  C_18
REMARK    6  A    between atoms: C_18  and  C_20
REMARK                            x       y       z     vdW  Elec       q    Type
REMARK                         _______ _______ _______ _____ _____    ______ ____
ROOT
ATOM      1  C   UNL     1      -6.209   1.118  -3.456  0.00  0.00    +0.328 C 
ENDROOT
BRANCH   1   6
ATOM      2  N   UNL     1      -2.142  -0.048  -1.174  0.00  0.00    -0.296 N 
ATOM      3  C   UNL     1      -3.485   0.062  -1.159  0.00  0.00    +0.306 C 
ATOM      4  O   UNL     1      -4.108  -0.241  -0.160  0.00  0.00    -0.252 OA
ATOM      5  N   UNL     1      -4.137   0.509  -2.251  0.00  0.00    -0.237 N 
ATOM      6  C   UNL     1      -5.480   0.619  -2.236  0.00  0.00    +0.258 C 
ATOM      7  O   UNL     1      -6.102   0.317  -1.240  0.00  0.00    -0.272 OA
ATOM      8  H   UNL     1      -1.644   0.194  -1.971  0.00  0.00    +0.151 HD
ATOM      9  H   UNL     1      -3.639   0.750  -3.047  0.00  0.00    +0.159 HD
BRANCH   2  16
ATOM     10  C   UNL     1      -0.019   1.526   0.010  0.00  0.00    +0.009 C 
ATOM     11  C   UNL     1       0.002  -0.004   0.002  0.00  0.00    +0.006 C 
ATOM     12  C   UNL     1       0.742  -0.511   1.242  0.00  0.00    +0.005 C 
ATOM     13  C   UNL     1       0.763  -2.041   1.233  0.00  0.00    +0.000 C 
ATOM     14  C   UNL     1      -0.673  -2.570   1.244  0.00  0.00    +0.002 C 
ATOM     15  C   UNL     1      -1.413  -2.063   0.004  0.00  0.00    +0.022 C 
ATOM     16  C   UNL     1      -1.433  -0.534   0.013  0.00  0.00    +0.077 C 
ENDBRANCH   2  16
ENDBRANCH   1   6
BRANCH   1  17
ATOM     17  O   UNL     1      -7.636   1.146  -3.190  0.00  0.00    -0.452 OA
BRANCH  17  18
ATOM     18  C   UNL     1      -8.436   1.572  -4.188  0.00  0.00    +0.340 C 
ATOM     19  O   UNL     1      -7.954   1.910  -5.251  0.00  0.00    -0.245 OA
BRANCH  18  20
ATOM     20  C   UNL     1      -9.895   1.627  -3.990  0.00  0.00    +0.061 A 
ATOM     21  C   UNL     1     -10.448   1.237  -2.765  0.00  0.00    +0.016 A 
ATOM     22  C   UNL     1     -11.812   1.292  -2.583  0.00  0.00    +0.017 A 
ATOM     23  C   UNL     1     -12.635   1.731  -3.612  0.00  0.00    +0.030 A 
ATOM     24  C   UNL     1     -12.096   2.121  -4.843  0.00  0.00    +0.048 A 
ATOM     25  C   UNL     1     -10.723   2.074  -5.023  0.00  0.00    +0.039 A 
ATOM     26  N   UNL     1     -12.907   2.558  -5.887  0.00  0.00    -0.284 N 
ATOM     27  C   UNL     1     -14.141   3.042  -5.777  0.00  0.00    +0.227 C 
ATOM     28  O   UNL     1     -14.713   3.390  -6.788  0.00  0.00    -0.275 OA
ATOM     29  C   UNL     1     -14.867   3.182  -4.466  0.00  0.00    +0.170 C 
ATOM     30  S   UNL     1     -14.383   1.807  -3.379  0.00  0.00    -0.114 S 
ATOM     31  H   UNL     1     -12.536   2.504  -6.782  0.00  0.00    +0.155 HD
ENDBRANCH  18  20
ENDBRANCH  17  18
ENDBRANCH   1  17
TORSDOF 5
