REMARK  Name = ZINC02944254
REMARK  9 active torsions:
REMARK  status: ('A' for Active; 'I' for Inactive)
REMARK    1  A    between atoms: C_1  and  C_2
REMARK    2  A    between atoms: C_5  and  C_8
REMARK    3  A    between atoms: C_8  and  N_9
REMARK    4  A    between atoms: N_12  and  C_20
REMARK    5  A    between atoms: C_20  and  N_22
REMARK    6  A    between atoms: N_22  and  C_23
REMARK    7  A    between atoms: C_23  and  C_24
REMARK    8  A    between atoms: N_26  and  C_27
REMARK    9  A    between atoms: C_27  and  C_28
REMARK                            x       y       z     vdW  Elec       q    Type
REMARK                         _______ _______ _______ _____ _____    ______ ____
ROOT
ATOM      1  N   UNL     1       1.451  -4.745  -0.035  0.00  0.00    +0.388 N 
ATOM      2  C   UNL     1       2.101  -4.329  -1.284  0.00  0.00    -0.058 C 
ATOM      3  C   UNL     1       3.581  -4.724  -1.244  0.00  0.00    +0.088 C 
ATOM      4  N   UNL     1       3.672  -6.165  -0.963  0.00  0.00    -0.316 N 
ATOM      5  C   UNL     1       2.915  -6.697   0.181  0.00  0.00    +0.095 C 
ATOM      6  C   UNL     1       1.467  -6.208   0.074  0.00  0.00    -0.049 C 
ATOM      7  C   UNL     1       0.694  -6.637   1.323  0.00  0.00    -0.010 C 
ATOM      8  C   UNL     1       0.717  -8.163   1.438  0.00  0.00    -0.001 C 
ATOM      9  C   UNL     1       0.064  -8.777   0.197  0.00  0.00    -0.000 C 
ATOM     10  C   UNL     1       0.836  -8.348  -1.052  0.00  0.00    -0.001 C 
ATOM     11  C   UNL     1       0.814  -6.822  -1.166  0.00  0.00    -0.010 C 
ATOM     12  H   UNL     1       1.946  -4.345   0.748  0.00  0.00    -0.080 HD
ENDROOT
BRANCH   4  13
ATOM     13  C   UNL     1       4.426  -6.975  -1.732  0.00  0.00    +0.133 C 
ATOM     14  S   UNL     1       5.189  -6.358  -3.135  0.00  0.00    -0.019 S 
BRANCH  13  15
ATOM     15  N   UNL     1       4.580  -8.271  -1.397  0.00  0.00    -0.318 N 
ATOM     16  H   UNL     1       4.091  -8.639  -0.644  0.00  0.00    +0.148 HD
BRANCH  15  17
ATOM     17  C   UNL     1       5.486  -9.125  -2.169  0.00  0.00    +0.199 C 
BRANCH  17  18
ATOM     18  C   UNL     1       5.477 -10.518  -1.593  0.00  0.00    +0.230 C 
ATOM     19  O   UNL     1       4.782 -10.772  -0.632  0.00  0.00    -0.274 OA
ATOM     20  N   UNL     1       6.241 -11.481  -2.146  0.00  0.00    -0.310 N 
ATOM     21  H   UNL     1       6.796 -11.278  -2.914  0.00  0.00    +0.149 HD
BRANCH  20  22
ATOM     22  C   UNL     1       6.232 -12.835  -1.586  0.00  0.00    +0.141 C 
BRANCH  22  23
ATOM     23  C   UNL     1       7.164 -13.713  -2.380  0.00  0.00    -0.012 A 
ATOM     24  C   UNL     1       6.657 -14.564  -3.344  0.00  0.00    +0.006 A 
ATOM     25  C   UNL     1       7.512 -15.370  -4.073  0.00  0.00    +0.000 A 
ATOM     26  C   UNL     1       8.874 -15.325  -3.838  0.00  0.00    +0.001 A 
ATOM     27  C   UNL     1       9.381 -14.474  -2.874  0.00  0.00    +0.020 A 
ATOM     28  C   UNL     1       8.527 -13.663  -2.148  0.00  0.00    +0.046 A 
ATOM     29 CL   UNL     1       9.164 -12.590  -0.942  0.00  0.00    -0.083 Cl
ENDBRANCH  22  23
ENDBRANCH  20  22
ENDBRANCH  17  18
ENDBRANCH  15  17
ENDBRANCH  13  15
ENDBRANCH   4  13
BRANCH   1  30
ATOM     30  C   UNL     1       0.060  -4.270  -0.028  0.00  0.00    -0.042 C 
BRANCH  30  35
ATOM     31  C   UNL     1      -0.005   1.508   0.017  0.00  0.00    +0.044 C 
ATOM     32  C   UNL     1       0.012   0.002   0.005  0.00  0.00    -0.050 A 
ATOM     33  C   UNL     1       0.018  -0.680  -1.197  0.00  0.00    +0.003 A 
ATOM     34  C   UNL     1       0.034  -2.063  -1.208  0.00  0.00    +0.002 A 
ATOM     35  C   UNL     1       0.044  -2.763  -0.016  0.00  0.00    -0.064 A 
ATOM     36  C   UNL     1       0.040  -2.081   1.187  0.00  0.00    +0.002 A 
ATOM     37  C   UNL     1       0.028  -0.699   1.197  0.00  0.00    +0.003 A 
ENDBRANCH  30  35
ENDBRANCH   1  30
TORSDOF 8
