REMARK  Name = ZINC14506540
REMARK  11 active torsions:
REMARK  status: ('A' for Active; 'I' for Inactive)
REMARK    1  A    between atoms: C_1  and  O_2
REMARK    2  A    between atoms: O_2  and  C_3
REMARK    3  A    between atoms: C_3  and  C_4
REMARK    4  A    between atoms: C_4  and  N_5
REMARK    5  A    between atoms: C_6  and  N_36
REMARK    6  A    between atoms: C_7  and  N_14
REMARK    7  A    between atoms: N_14  and  C_15
REMARK    8  A    between atoms: C_15  and  C_16
REMARK    9  A    between atoms: C_22  and  C_24
REMARK   10  A    between atoms: C_25  and  C_26
REMARK   11  A    between atoms: C_29  and  C_32
REMARK                            x       y       z     vdW  Elec       q    Type
REMARK                         _______ _______ _______ _____ _____    ______ ____
ROOT
ATOM      1  N   UNL     1       4.062  -1.038  -1.425  0.00  0.00    -0.256 N 
ATOM      2  C   UNL     1       3.591  -2.150  -2.023  0.00  0.00    +0.244 C 
ATOM      3  O   UNL     1       3.829  -2.356  -3.199  0.00  0.00    -0.270 OA
ENDROOT
BRANCH   1   6
ATOM      4  N   UNL     1       7.058   0.845  -2.413  0.00  0.00    -0.278 N 
ATOM      5  C   UNL     1       6.235  -0.004  -1.710  0.00  0.00    +0.127 A 
ATOM      6  C   UNL     1       4.930  -0.175  -2.125  0.00  0.00    +0.140 A 
ATOM      7  C   UNL     1       4.483   0.522  -3.264  0.00  0.00    +0.277 A 
ATOM      8  O   UNL     1       3.336   0.385  -3.656  0.00  0.00    -0.266 OA
ATOM      9  N   UNL     1       5.328   1.346  -3.913  0.00  0.00    -0.273 N 
ATOM     10  H   UNL     1       5.009   1.848  -4.717  0.00  0.00    +0.173 HD
ATOM     11  C   UNL     1       6.596   1.500  -3.494  0.00  0.00    +0.331 A 
ATOM     12  O   UNL     1       7.340   2.246  -4.102  0.00  0.00    -0.246 OA
BRANCH   5  13
ATOM     13  N   UNL     1       6.707  -0.672  -0.606  0.00  0.00    -0.343 N 
ATOM     14  H   UNL     1       6.146  -1.324  -0.157  0.00  0.00    +0.144 HD
ATOM     15  H   UNL     1       7.601  -0.493  -0.275  0.00  0.00    +0.144 HD
ENDBRANCH   5  13
BRANCH   4  16
ATOM     16  C   UNL     1       8.445   1.036  -1.984  0.00  0.00    +0.156 C 
BRANCH  16  17
ATOM     17  C   UNL     1       9.340   0.006  -2.676  0.00  0.00    +0.181 C 
BRANCH  17  19
ATOM     18  C   UNL     1      10.154  -0.664  -4.828  0.00  0.00    +0.194 C 
ATOM     19  O   UNL     1       9.344   0.248  -4.084  0.00  0.00    -0.381 OA
ENDBRANCH  17  19
ENDBRANCH  16  17
ENDBRANCH   4  16
ENDBRANCH   1   6
BRANCH   2  20
ATOM     20  C   UNL     1       2.792  -3.110  -1.259  0.00  0.00    +0.068 C 
ATOM     21  C   UNL     1       2.320  -4.221  -1.857  0.00  0.00    +0.013 C 
BRANCH  21  22
ATOM     22  C   UNL     1       1.517  -5.186  -1.088  0.00  0.00    -0.025 A 
ATOM     23  C   UNL     1       1.246  -4.956   0.264  0.00  0.00    +0.008 A 
ATOM     24  C   UNL     1       0.488  -5.862   0.976  0.00  0.00    +0.013 A 
ATOM     25  C   UNL     1       0.005  -7.002   0.358  0.00  0.00    +0.055 A 
ATOM     26  C   UNL     1       0.274  -7.240  -0.979  0.00  0.00    +0.013 A 
ATOM     27  C   UNL     1       1.026  -6.341  -1.706  0.00  0.00    +0.008 A 
BRANCH  25  28
ATOM     28  C   UNL     1      -0.816  -7.990   1.145  0.00  0.00    +0.417 C 
ATOM     29  F   UNL     1       0.029  -8.943   1.724  0.00  0.00    -0.166 F 
ATOM     30  F   UNL     1      -1.519  -7.317   2.150  0.00  0.00    -0.166 F 
ATOM     31  F   UNL     1      -1.722  -8.629   0.291  0.00  0.00    -0.166 F 
ENDBRANCH  25  28
ENDBRANCH  21  22
ENDBRANCH   2  20
BRANCH   1  32
ATOM     32  C   UNL     1       3.673  -0.726  -0.048  0.00  0.00    +0.149 C 
BRANCH  32  33
ATOM     33  C   UNL     1       2.369   0.030  -0.053  0.00  0.00    -0.030 A 
ATOM     34  C   UNL     1       1.171  -0.659  -0.089  0.00  0.00    +0.005 A 
ATOM     35  C   UNL     1      -0.025   0.033  -0.094  0.00  0.00    +0.000 A 
ATOM     36  C   UNL     1      -0.023   1.415  -0.063  0.00  0.00    +0.000 A 
ATOM     37  C   UNL     1       1.175   2.104  -0.027  0.00  0.00    +0.000 A 
ATOM     38  C   UNL     1       2.371   1.412  -0.022  0.00  0.00    +0.005 A 
ENDBRANCH  32  33
ENDBRANCH   1  32
TORSDOF 10
