REMARK  Name = ZINC62496584
REMARK  8 active torsions:
REMARK  status: ('A' for Active; 'I' for Inactive)
REMARK    1  A    between atoms: C_1  and  C_2
REMARK    2  A    between atoms: C_4  and  C_25
REMARK    3  A    between atoms: C_6  and  C_8
REMARK    4  A    between atoms: C_8  and  C_9
REMARK    5  A    between atoms: N_13  and  C_22
REMARK    6  A    between atoms: C_16  and  N_21
REMARK    7  A    between atoms: C_22  and  C_23
REMARK    8  A    between atoms: C_22  and  C_24
REMARK                            x       y       z     vdW  Elec       q    Type
REMARK                         _______ _______ _______ _____ _____    ______ ____
ROOT
ATOM      1  C   UNL     1       1.373  -3.063   2.924  0.00  0.00    +0.263 C 
ATOM      2  C   UNL     1       1.390  -3.942   4.148  0.00  0.00    +0.261 C 
ATOM      3  O   UNL     1       1.372  -5.149   4.032  0.00  0.00    -0.271 OA
ATOM      4  N   UNL     1       1.426  -3.381   5.375  0.00  0.00    -0.263 N 
ATOM      5  C   UNL     1       1.574  -1.991   5.488  0.00  0.00    +0.080 A 
ATOM      6  C   UNL     1       1.387  -1.361   6.707  0.00  0.00    +0.050 A 
ATOM      7  C   UNL     1       1.524   0.017   6.800  0.00  0.00    +0.027 A 
ATOM      8  C   UNL     1       1.847   0.761   5.672  0.00  0.00    +0.026 A 
ATOM      9  C   UNL     1       2.039   0.131   4.456  0.00  0.00    +0.049 A 
ATOM     10  C   UNL     1       1.909  -1.244   4.361  0.00  0.00    +0.143 A 
ATOM     11  O   UNL     1       2.127  -1.875   3.175  0.00  0.00    -0.477 OA
ENDROOT
BRANCH   7  12
ATOM     12  N   UNL     1       1.337   0.658   8.030  0.00  0.00    -0.358 N 
ATOM     13  H   UNL     1       1.111   0.139   8.817  0.00  0.00    +0.142 HD
ATOM     14  H   UNL     1       1.433   1.621   8.095  0.00  0.00    +0.142 HD
ENDBRANCH   7  12
BRANCH   4  15
ATOM     15  C   UNL     1       1.310  -4.213   6.575  0.00  0.00    +0.076 C 
ATOM     16  C   UNL     1      -0.011  -4.984   6.536  0.00  0.00    +0.028 C 
ATOM     17  C   UNL     1       2.476  -5.203   6.623  0.00  0.00    +0.028 C 
ENDBRANCH   4  15
BRANCH   1  18
ATOM     18  C   UNL     1      -0.071  -2.688   2.586  0.00  0.00    +0.089 C 
BRANCH  18  24
ATOM     19  C   UNL     1       0.101   1.677   0.143  0.00  0.00    +0.044 C 
ATOM     20  C   UNL     1      -0.018   0.175   0.124  0.00  0.00    -0.050 A 
ATOM     21  C   UNL     1      -0.153  -0.493  -1.079  0.00  0.00    +0.006 A 
ATOM     22  C   UNL     1      -0.262  -1.871  -1.095  0.00  0.00    -0.050 A 
ATOM     23  C   UNL     1      -0.235  -2.581   0.090  0.00  0.00    +0.007 A 
ATOM     24  C   UNL     1      -0.100  -1.913   1.293  0.00  0.00    -0.043 A 
ATOM     25  C   UNL     1       0.014  -0.536   1.310  0.00  0.00    +0.007 A 
ATOM     26  C   UNL     1      -0.411  -2.599  -2.407  0.00  0.00    +0.044 C 
ENDBRANCH  18  24
ENDBRANCH   1  18
TORSDOF 4
