REMARK  Name = ZINC38893062
REMARK  12 active torsions:
REMARK  status: ('A' for Active; 'I' for Inactive)
REMARK    1  A    between atoms: C_1  and  C_2
REMARK    2  A    between atoms: C_2  and  C_3
REMARK    3  A    between atoms: C_3  and  C_5
REMARK    4  A    between atoms: C_3  and  N_15
REMARK    5  A    between atoms: C_8  and  S_11
REMARK    6  A    between atoms: S_11  and  C_14
REMARK    7  A    between atoms: C_16  and  C_18
REMARK    8  A    between atoms: N_23  and  C_25
REMARK    9  A    between atoms: C_25  and  C_26
REMARK   10  A    between atoms: C_28  and  C_31
REMARK   11  A    between atoms: C_34  and  O_37
REMARK   12  A    between atoms: O_37  and  C_38
REMARK                            x       y       z     vdW  Elec       q    Type
REMARK                         _______ _______ _______ _____ _____    ______ ____
ROOT
ATOM      1  C   UNL     1       3.964   1.535   1.536  0.00  0.00    +0.058 C 
ATOM      2  C   UNL     1       4.433   1.508   0.078  0.00  0.00    +0.009 C 
ATOM      3  C   UNL     1       5.878   2.010   0.007  0.00  0.00    -0.018 C 
ATOM      4  C   UNL     1       5.956   3.411   0.616  0.00  0.00    -0.078 C 
ATOM      5  N   UNL     1       5.520   3.366   2.017  0.00  0.00    +0.386 N 
ATOM      6  C   UNL     1       4.113   2.954   2.089  0.00  0.00    -0.065 C 
ATOM      7  H   UNL     1       6.089   2.704   2.523  0.00  0.00    -0.081 HD
ENDROOT
BRANCH   1   9
ATOM      8  N   UNL     1       2.148  -0.104   1.172  0.00  0.00    -0.308 N 
ATOM      9  C   UNL     1       2.518   1.116   1.608  0.00  0.00    +0.215 C 
ATOM     10  O   UNL     1       1.688   1.877   2.059  0.00  0.00    -0.276 OA
ATOM     11  H   UNL     1       2.812  -0.712   0.811  0.00  0.00    +0.149 HD
BRANCH   8  12
ATOM     12  C   UNL     1       0.742  -0.511   1.242  0.00  0.00    +0.103 C 
BRANCH  12  13
ATOM     13  C   UNL     1       0.657  -2.014   1.298  0.00  0.00    -0.027 A 
ATOM     14  C   UNL     1       1.506  -2.784   0.525  0.00  0.00    +0.007 A 
ATOM     15  C   UNL     1       1.428  -4.163   0.577  0.00  0.00    +0.027 A 
ATOM     16  C   UNL     1       0.500  -4.773   1.401  0.00  0.00    +0.088 A 
ATOM     17  C   UNL     1      -0.348  -4.003   2.175  0.00  0.00    +0.027 A 
ATOM     18  C   UNL     1      -0.267  -2.624   2.126  0.00  0.00    +0.007 A 
BRANCH  16  19
ATOM     19  S   UNL     1       0.400  -6.531   1.466  0.00  0.00    -0.006 S 
ATOM     20  O   UNL     1      -0.939  -6.803   1.855  0.00  0.00    -0.170 OA
ATOM     21  O   UNL     1       0.892  -6.969   0.207  0.00  0.00    -0.170 OA
ATOM     22  C   UNL     1       1.545  -7.015   2.787  0.00  0.00    +0.200 C 
ENDBRANCH  16  19
ENDBRANCH  12  13
BRANCH  12  24
ATOM     23  C   UNL     1      -0.019   1.526   0.010  0.00  0.00    +0.006 C 
ATOM     24  C   UNL     1       0.002  -0.004   0.002  0.00  0.00    +0.024 C 
ENDBRANCH  12  24
ENDBRANCH   8  12
ENDBRANCH   1   9
BRANCH   5  25
ATOM     25  C   UNL     1       5.671   4.697   2.618  0.00  0.00    +0.022 C 
BRANCH  25  26
ATOM     26  C   UNL     1       7.131   5.065   2.666  0.00  0.00    +0.211 A 
ATOM     27  N   UNL     1       7.788   5.697   1.735  0.00  0.00    -0.193 NA
ATOM     28  C   UNL     1       9.071   5.860   2.105  0.00  0.00    +0.202 A 
ATOM     29  N   UNL     1       9.235   5.324   3.290  0.00  0.00    -0.056 NA
ATOM     30  O   UNL     1       7.972   4.803   3.675  0.00  0.00    -0.340 OA
BRANCH  28  31
ATOM     31  C   UNL     1      10.124   6.533   1.306  0.00  0.00    +0.023 A 
ATOM     32  C   UNL     1       9.816   7.068   0.056  0.00  0.00    +0.015 A 
ATOM     33  C   UNL     1      10.797   7.693  -0.684  0.00  0.00    +0.046 A 
ATOM     34  C   UNL     1      12.090   7.790  -0.186  0.00  0.00    +0.120 A 
ATOM     35  C   UNL     1      12.399   7.257   1.058  0.00  0.00    +0.046 A 
ATOM     36  C   UNL     1      11.421   6.636   1.806  0.00  0.00    +0.015 A 
BRANCH  34  37
ATOM     37  O   UNL     1      13.054   8.406  -0.918  0.00  0.00    -0.495 OA
ATOM     38  C   UNL     1      14.361   8.470  -0.346  0.00  0.00    +0.277 C 
ENDBRANCH  34  37
ENDBRANCH  28  31
ENDBRANCH  25  26
ENDBRANCH   5  25
TORSDOF 9
