REMARK  Name = ZINC55422470
REMARK  5 active torsions:
REMARK  status: ('A' for Active; 'I' for Inactive)
REMARK    1  A    between atoms: C_4  and  N_7
REMARK    2  A    between atoms: N_10  and  C_11
REMARK    3  A    between atoms: C_17  and  C_19
REMARK    4  A    between atoms: C_19  and  S_20
REMARK    5  A    between atoms: S_20  and  C_21
REMARK                            x       y       z     vdW  Elec       q    Type
REMARK                         _______ _______ _______ _____ _____    ______ ____
ROOT
ATOM      1  C   UNL     1       4.848  -4.106   0.247  0.00  0.00    +0.077 C 
ATOM      2  C   UNL     1       4.679  -4.517   1.711  0.00  0.00    +0.041 C 
ATOM      3  C   UNL     1       4.671  -6.045   1.810  0.00  0.00    +0.109 C 
ATOM      4  N   UNL     1       5.888  -6.567   1.174  0.00  0.00    -0.301 N 
ATOM      5  C   UNL     1       6.194  -6.161  -0.205  0.00  0.00    +0.109 C 
ATOM      6  C   UNL     1       6.185  -4.631  -0.281  0.00  0.00    +0.041 C 
ATOM      7  C   UNL     1       6.709  -7.402   1.841  0.00  0.00    +0.226 C 
ATOM      8  O   UNL     1       6.446  -7.730   2.979  0.00  0.00    -0.275 OA
ENDROOT
BRANCH   1  12
ATOM      9  N   UNL     1       3.622  -0.651  -0.036  0.00  0.00    -0.269 N 
ATOM     10  C   UNL     1       3.645  -1.995   0.058  0.00  0.00    +0.304 C 
ATOM     11  O   UNL     1       2.603  -2.622   0.065  0.00  0.00    -0.253 OA
ATOM     12  N   UNL     1       4.823  -2.644   0.144  0.00  0.00    -0.296 N 
ATOM     13  H   UNL     1       4.452  -0.155  -0.110  0.00  0.00    +0.156 HD
ATOM     14  H   UNL     1       5.654  -2.144   0.139  0.00  0.00    +0.151 HD
BRANCH   9  18
ATOM     15  C   UNL     1      -0.018   1.377  -0.014  0.00  0.00    +0.000 A 
ATOM     16  C   UNL     1       1.092   1.944   0.587  0.00  0.00    +0.002 A 
ATOM     17  C   UNL     1       2.300   1.274   0.581  0.00  0.00    +0.023 A 
ATOM     18  C   UNL     1       2.399   0.030  -0.029  0.00  0.00    +0.035 A 
ATOM     19  C   UNL     1       1.283  -0.536  -0.631  0.00  0.00    +0.023 A 
ATOM     20  C   UNL     1       0.078   0.139  -0.622  0.00  0.00    +0.002 A 
ENDBRANCH   9  18
ENDBRANCH   1  12
BRANCH   7  21
ATOM     21  C   UNL     1       7.953  -7.928   1.175  0.00  0.00    +0.173 C 
BRANCH  21  22
ATOM     22  S   UNL     1       8.840  -9.018   2.322  0.00  0.00    -0.042 S 
BRANCH  22  23
ATOM     23  C   UNL     1      10.292  -9.560   1.380  0.00  0.00    +0.444 C 
ATOM     24  F   UNL     1      11.055  -8.445   1.017  0.00  0.00    -0.160 F 
ATOM     25  F   UNL     1      11.066 -10.418   2.169  0.00  0.00    -0.160 F 
ATOM     26  F   UNL     1       9.875 -10.236   0.228  0.00  0.00    -0.160 F 
ENDBRANCH  22  23
ENDBRANCH  21  22
ENDBRANCH   7  21
TORSDOF 5
