REMARK  Name = ZINC10263958
REMARK  8 active torsions:
REMARK  status: ('A' for Active; 'I' for Inactive)
REMARK    1  A    between atoms: C_1  and  C_2
REMARK    2  A    between atoms: C_5  and  C_8
REMARK    3  A    between atoms: C_11  and  S_14
REMARK    4  A    between atoms: N_12  and  C_13
REMARK    5  A    between atoms: S_14  and  C_15
REMARK    6  A    between atoms: C_15  and  C_16
REMARK    7  A    between atoms: N_18  and  C_19
REMARK    8  A    between atoms: C_20  and  C_28
REMARK                            x       y       z     vdW  Elec       q    Type
REMARK                         _______ _______ _______ _____ _____    ______ ____
ROOT
ATOM      1  C   UNL     1      -0.483   1.017   0.989  0.00  0.00    +0.228 C 
ATOM      2  O   UNL     1       0.612   1.528   1.092  0.00  0.00    -0.275 OA
ATOM      3  N   UNL     1      -0.620  -0.317   1.122  0.00  0.00    -0.279 N 
ATOM      4  H   UNL     1      -1.495  -0.726   1.040  0.00  0.00    +0.155 HD
ENDROOT
BRANCH   3   5
ATOM      5  C   UNL     1       0.492  -1.105   1.378  0.00  0.00    +0.084 A 
ATOM      6  C   UNL     1       0.552  -2.481   1.551  0.00  0.00    +0.068 A 
ATOM      7  C   UNL     1       1.856  -3.069   1.807  0.00  0.00    -0.023 A 
ATOM      8  C   UNL     1       2.882  -2.193   1.858  0.00  0.00    -0.004 A 
ATOM      9  S   UNL     1       2.142  -0.611   1.566  0.00  0.00    -0.077 S 
ATOM     10  C   UNL     1       4.325  -2.505   2.110  0.00  0.00    +0.043 C 
ATOM     11  C   UNL     1       4.420  -3.930   2.674  0.00  0.00    +0.005 C 
ATOM     12  C   UNL     1       3.572  -4.863   1.804  0.00  0.00    +0.005 C 
ATOM     13  C   UNL     1       2.087  -4.561   2.013  0.00  0.00    +0.037 C 
BRANCH   6  14
ATOM     14  C   UNL     1      -0.654  -3.311   1.474  0.00  0.00    +0.244 C 
ATOM     15  O   UNL     1      -1.004  -3.779   0.407  0.00  0.00    -0.270 OA
ATOM     16  N   UNL     1      -1.376  -3.554   2.586  0.00  0.00    -0.325 N 
ATOM     17  H   UNL     1      -1.097  -3.181   3.437  0.00  0.00    +0.145 HD
ATOM     18  H   UNL     1      -2.174  -4.103   2.535  0.00  0.00    +0.145 HD
ENDBRANCH   6  14
ENDBRANCH   3   5
BRANCH   1  19
ATOM     19  C   UNL     1      -1.691   1.873   0.705  0.00  0.00    +0.173 C 
BRANCH  19  20
ATOM     20  S   UNL     1      -1.185   3.607   0.582  0.00  0.00    -0.077 S 
BRANCH  20  24
ATOM     21  C   UNL     1      -4.333   5.801  -0.154  0.00  0.00    +0.165 A 
ATOM     22  N   UNL     1      -4.835   4.590  -0.091  0.00  0.00    -0.128 NA
ATOM     23  N   UNL     1      -3.901   3.740   0.145  0.00  0.00    -0.122 NA
ATOM     24  C   UNL     1      -2.746   4.358   0.256  0.00  0.00    +0.192 A 
ATOM     25  N   UNL     1      -2.980   5.690   0.066  0.00  0.00    -0.305 N 
ATOM     26  C   UNL     1      -1.995   6.774   0.092  0.00  0.00    +0.153 C 
BRANCH  21  31
ATOM     27  C   UNL     1      -7.245  10.661  -1.165  0.00  0.00    +0.044 C 
ATOM     28  C   UNL     1      -6.483   9.388  -0.900  0.00  0.00    -0.050 A 
ATOM     29  C   UNL     1      -5.116   9.347  -1.112  0.00  0.00    +0.004 A 
ATOM     30  C   UNL     1      -4.412   8.186  -0.872  0.00  0.00    +0.012 A 
ATOM     31  C   UNL     1      -5.081   7.050  -0.414  0.00  0.00    +0.019 A 
ATOM     32  C   UNL     1      -6.461   7.096  -0.208  0.00  0.00    +0.012 A 
ATOM     33  C   UNL     1      -7.152   8.265  -0.447  0.00  0.00    +0.004 A 
ENDBRANCH  21  31
ENDBRANCH  20  24
ENDBRANCH  19  20
ENDBRANCH   1  19
TORSDOF 6
