REMARK  Name = ZINC39898098
REMARK  12 active torsions:
REMARK  status: ('A' for Active; 'I' for Inactive)
REMARK    1  A    between atoms: C_1  and  C_2
REMARK    2  A    between atoms: C_2  and  C_3
REMARK    3  A    between atoms: C_2  and  C_4
REMARK    4  A    between atoms: C_4  and  C_5
REMARK    5  A    between atoms: C_5  and  O_6
REMARK    6  A    between atoms: O_6  and  C_7
REMARK    7  A    between atoms: C_11  and  C_13
REMARK    8  A    between atoms: C_16  and  C_28
REMARK    9  A    between atoms: N_23  and  C_24
REMARK   10  A    between atoms: C_24  and  C_25
REMARK   11  A    between atoms: C_25  and  C_26
REMARK   12  A    between atoms: C_26  and  O_27
REMARK                            x       y       z     vdW  Elec       q    Type
REMARK                         _______ _______ _______ _____ _____    ______ ____
ROOT
ATOM      1  C   UNL     1      -7.758  -1.003  -3.587  0.00  0.00    +0.141 C 
ATOM      2  C   UNL     1      -8.700   0.130  -3.286  0.00  0.00    +0.035 A 
ATOM      3  C   UNL     1      -9.120   1.069  -2.399  0.00  0.00    +0.075 A 
ATOM      4  N   UNL     1     -10.135   1.754  -3.005  0.00  0.00    -0.276 N 
ATOM      5  N   UNL     1     -10.339   1.283  -4.184  0.00  0.00    -0.168 NA
ATOM      6  H   UNL     1     -10.629   2.487  -2.605  0.00  0.00    +0.189 HD
ATOM      7  C   UNL     1      -9.508   0.291  -4.435  0.00  0.00    +0.153 A 
ATOM      8  C   UNL     1      -9.086  -0.712  -5.429  0.00  0.00    +0.268 C 
ATOM      9  O   UNL     1      -9.579  -0.845  -6.532  0.00  0.00    -0.268 OA
ATOM     10  N   UNL     1      -8.079  -1.460  -4.944  0.00  0.00    -0.285 N 
ENDROOT
BRANCH   3  11
ATOM     11  C   UNL     1      -8.583   1.304  -1.041  0.00  0.00    +0.048 A 
ATOM     12  C   UNL     1      -9.385   1.079   0.078  0.00  0.00    +0.033 A 
ATOM     13  C   UNL     1      -8.878   1.300   1.343  0.00  0.00    +0.042 A 
ATOM     14  C   UNL     1      -7.576   1.744   1.505  0.00  0.00    +0.024 A 
ATOM     15  C   UNL     1      -6.774   1.970   0.403  0.00  0.00    +0.053 A 
ATOM     16  C   UNL     1      -7.267   1.748  -0.873  0.00  0.00    +0.188 A 
ATOM     17  O   UNL     1      -6.477   1.964  -1.956  0.00  0.00    -0.287 OA
ATOM     18 CL   UNL     1      -9.876   1.020   2.736  0.00  0.00    -0.084 Cl
ENDBRANCH   3  11
BRANCH   1  23
ATOM     19  C   UNL     1      -4.242  -0.353  -2.364  0.00  0.00    +0.121 A 
ATOM     20  C   UNL     1      -3.713   0.370  -3.423  0.00  0.00    +0.045 A 
ATOM     21  C   UNL     1      -4.494   0.645  -4.529  0.00  0.00    +0.004 A 
ATOM     22  C   UNL     1      -5.802   0.200  -4.581  0.00  0.00    +0.006 A 
ATOM     23  C   UNL     1      -6.332  -0.520  -3.527  0.00  0.00    -0.019 A 
ATOM     24  C   UNL     1      -5.553  -0.803  -2.421  0.00  0.00    +0.051 A 
BRANCH  19  25
ATOM     25  O   UNL     1      -3.476  -0.626  -1.276  0.00  0.00    -0.492 OA
BRANCH  25  26
ATOM     26  C   UNL     1      -2.135  -0.131  -1.286  0.00  0.00    +0.229 C 
BRANCH  26  27
ATOM     27  C   UNL     1      -1.433  -0.534   0.013  0.00  0.00    +0.044 C 
BRANCH  27  29
ATOM     28  C   UNL     1      -0.019   1.526   0.010  0.00  0.00    +0.007 C 
ATOM     29  C   UNL     1       0.002  -0.004   0.002  0.00  0.00    -0.014 C 
ATOM     30  C   UNL     1       0.742  -0.511   1.242  0.00  0.00    +0.007 C 
ENDBRANCH  27  29
ENDBRANCH  26  27
ENDBRANCH  25  26
ENDBRANCH  19  25
ENDBRANCH   1  23
BRANCH  10  31
ATOM     31  C   UNL     1      -7.410  -2.552  -5.655  0.00  0.00    +0.111 C 
BRANCH  31  32
ATOM     32  C   UNL     1      -8.131  -3.869  -5.361  0.00  0.00    +0.047 C 
BRANCH  32  33
ATOM     33  C   UNL     1      -7.432  -5.010  -6.104  0.00  0.00    +0.157 C 
BRANCH  33  34
ATOM     34  O   UNL     1      -8.106  -6.240  -5.830  0.00  0.00    -0.395 OA
ATOM     35  H   UNL     1      -7.716  -7.008  -6.269  0.00  0.00    +0.209 HD
ENDBRANCH  33  34
ENDBRANCH  32  33
ENDBRANCH  31  32
ENDBRANCH  10  31
TORSDOF 10
