REMARK  Name = ZINC51325515
REMARK  9 active torsions:
REMARK  status: ('A' for Active; 'I' for Inactive)
REMARK    1  A    between atoms: C_1  and  C_2
REMARK    2  A    between atoms: C_2  and  C_3
REMARK    3  A    between atoms: C_3  and  C_4
REMARK    4  A    between atoms: C_9  and  S_11
REMARK    5  A    between atoms: S_11  and  C_12
REMARK    6  A    between atoms: C_12  and  C_13
REMARK    7  A    between atoms: C_13  and  C_15
REMARK    8  A    between atoms: C_13  and  O_22
REMARK    9  A    between atoms: C_18  and  N_21
REMARK                            x       y       z     vdW  Elec       q    Type
REMARK                         _______ _______ _______ _____ _____    ______ ____
ROOT
ATOM      1  C   UNL     1      -1.408  -6.642   1.023  0.00  0.00    +0.113 C 
ENDROOT
BRANCH   1   2
ATOM      2  S   UNL     1      -1.890  -4.893   0.995  0.00  0.00    -0.083 S 
BRANCH   2   8
ATOM      3  C   UNL     1       0.762  -2.018   1.233  0.00  0.00    +0.049 A 
ATOM      4  C   UNL     1       1.961  -2.701   1.328  0.00  0.00    +0.095 A 
ATOM      5  C   UNL     1       1.935  -4.095   1.316  0.00  0.00    +0.274 A 
ATOM      6  O   UNL     1       3.086  -4.804   1.407  0.00  0.00    -0.266 OA
ATOM      7  N   UNL     1       0.767  -4.718   1.216  0.00  0.00    -0.183 NA
ATOM      8  C   UNL     1      -0.361  -4.027   1.127  0.00  0.00    +0.192 A 
ATOM      9  N   UNL     1      -0.367  -2.702   1.141  0.00  0.00    -0.227 NA
BRANCH   3  10
ATOM     10  C   UNL     1       0.742  -0.511   1.242  0.00  0.00    +0.055 C 
BRANCH  10  12
ATOM     11  C   UNL     1      -0.019   1.526   0.010  0.00  0.00    +0.004 C 
ATOM     12  C   UNL     1       0.002  -0.004   0.002  0.00  0.00    +0.003 C 
ENDBRANCH  10  12
ENDBRANCH   3  10
ENDBRANCH   2   8
ENDBRANCH   1   2
BRANCH   1  13
ATOM     13  C   UNL     1      -2.658  -7.517   0.914  0.00  0.00    +0.155 C 
BRANCH  13  14
ATOM     14  C   UNL     1      -2.258  -8.970   0.937  0.00  0.00    -0.018 A 
ATOM     15  C   UNL     1      -2.078  -9.616   2.146  0.00  0.00    +0.008 A 
ATOM     16  C   UNL     1      -1.712 -10.947   2.171  0.00  0.00    +0.023 A 
ATOM     17  C   UNL     1      -1.523 -11.637   0.980  0.00  0.00    +0.025 A 
ATOM     18  C   UNL     1      -1.704 -10.984  -0.233  0.00  0.00    +0.023 A 
ATOM     19  C   UNL     1      -2.077  -9.655  -0.251  0.00  0.00    +0.008 A 
BRANCH  17  20
ATOM     20  N   UNL     1      -1.152 -12.983   1.002  0.00  0.00    -0.358 N 
ATOM     21  H   UNL     1      -1.025 -13.438   1.849  0.00  0.00    +0.142 HD
ATOM     22  H   UNL     1      -1.020 -13.464   0.170  0.00  0.00    +0.142 HD
ENDBRANCH  17  20
ENDBRANCH  13  14
BRANCH  13  23
ATOM     23  O   UNL     1      -3.528  -7.245   2.014  0.00  0.00    -0.386 OA
ATOM     24  H   UNL     1      -3.133  -7.418   2.880  0.00  0.00    +0.210 HD
ENDBRANCH  13  23
ENDBRANCH   1  13
TORSDOF 8
