REMARK  Name = ZINC28050222
REMARK  7 active torsions:
REMARK  status: ('A' for Active; 'I' for Inactive)
REMARK    1  A    between atoms: C_4  and  O_31
REMARK    2  A    between atoms: C_5  and  C_7
REMARK    3  A    between atoms: N_8  and  N_9
REMARK    4  A    between atoms: C_13  and  C_16
REMARK    5  A    between atoms: C_16  and  C_17
REMARK    6  A    between atoms: N_19  and  C_20
REMARK    7  A    between atoms: C_25  and  C_26
REMARK                            x       y       z     vdW  Elec       q    Type
REMARK                         _______ _______ _______ _____ _____    ______ ____
ROOT
ATOM      1  N   UNL     1      -1.011  -2.316  -0.164  0.00  0.00    -0.127 NA
ATOM      2  C   UNL     1      -2.138  -2.993  -0.291  0.00  0.00    +0.183 C 
ATOM      3  N   UNL     1      -2.321  -4.331  -0.257  0.00  0.00    -0.263 N 
ATOM      4  C   UNL     1      -3.456  -4.905  -0.390  0.00  0.00    +0.233 C 
ATOM      5  C   UNL     1      -4.650  -3.983  -0.598  0.00  0.00    +0.149 C 
ATOM      6  S   UNL     1      -3.791  -2.358  -0.544  0.00  0.00    -0.075 S 
ATOM      7  O   UNL     1      -3.587  -6.244  -0.347  0.00  0.00    -0.274 OA
ATOM      8  H   UNL     1      -1.461  -5.000  -0.106  0.00  0.00    +0.157 HD
ENDROOT
BRANCH   1  10
ATOM      9  C   UNL     1       1.216  -2.274   0.146  0.00  0.00    +0.146 C 
ATOM     10  N   UNL     1       0.101  -2.943   0.020  0.00  0.00    -0.155 NA
BRANCH   9  15
ATOM     11  C   UNL     1      -0.041   1.237   0.542  0.00  0.00    +0.001 A 
ATOM     12  C   UNL     1       1.130   1.962   0.401  0.00  0.00    +0.004 A 
ATOM     13  C   UNL     1       2.331   1.315   0.177  0.00  0.00    +0.046 A 
ATOM     14  C   UNL     1       2.371  -0.067   0.092  0.00  0.00    +0.125 A 
ATOM     15  C   UNL     1       1.187  -0.806   0.234  0.00  0.00    +0.036 A 
ATOM     16  C   UNL     1      -0.021  -0.139   0.461  0.00  0.00    +0.013 A 
BRANCH  14  17
ATOM     17  O   UNL     1       3.550  -0.703  -0.129  0.00  0.00    -0.506 OA
ATOM     18  H   UNL     1       3.579  -1.800  -0.196  0.00  0.00    +0.292 HD
ENDBRANCH  14  17
ENDBRANCH   9  15
ENDBRANCH   1  10
BRANCH   5  19
ATOM     19  C   UNL     1      -5.312  -4.225  -1.956  0.00  0.00    +0.120 C 
BRANCH  19  20
ATOM     20  C   UNL     1      -6.555  -3.381  -2.067  0.00  0.00    +0.219 C 
ATOM     21  O   UNL     1      -6.880  -2.657  -1.150  0.00  0.00    -0.275 OA
ATOM     22  N   UNL     1      -7.306  -3.431  -3.185  0.00  0.00    -0.285 N 
ATOM     23  H   UNL     1      -6.965  -4.018  -4.051  0.00  0.00    +0.155 HD
BRANCH  22  24
ATOM     24  C   UNL     1      -8.520  -2.737  -3.244  0.00  0.00    +0.045 A 
ATOM     25  C   UNL     1      -9.191  -2.407  -2.073  0.00  0.00    +0.024 A 
ATOM     26  C   UNL     1     -10.388  -1.722  -2.135  0.00  0.00    +0.002 A 
ATOM     27  C   UNL     1     -10.919  -1.364  -3.361  0.00  0.00    +0.001 A 
ATOM     28  C   UNL     1     -10.253  -1.690  -4.528  0.00  0.00    +0.014 A 
ATOM     29  C   UNL     1      -9.052  -2.370  -4.473  0.00  0.00    +0.076 A 
BRANCH  29  30
ATOM     30  C   UNL     1      -8.324  -2.720  -5.745  0.00  0.00    +0.419 C 
ATOM     31  F   UNL     1      -9.052  -2.249  -6.843  0.00  0.00    -0.166 F 
ATOM     32  F   UNL     1      -7.058  -2.126  -5.736  0.00  0.00    -0.166 F 
ATOM     33  F   UNL     1      -8.187  -4.109  -5.837  0.00  0.00    -0.166 F 
ENDBRANCH  29  30
ENDBRANCH  22  24
ENDBRANCH  19  20
ENDBRANCH   5  19
TORSDOF 7
