REMARK  Name = ZINC12540550
REMARK  8 active torsions:
REMARK  status: ('A' for Active; 'I' for Inactive)
REMARK    1  A    between atoms: C_1  and  C_2
REMARK    2  A    between atoms: C_2  and  O_3
REMARK    3  A    between atoms: O_3  and  C_4
REMARK    4  A    between atoms: C_7  and  C_12
REMARK    5  A    between atoms: C_9  and  O_10
REMARK    6  A    between atoms: O_10  and  C_11
REMARK    7  A    between atoms: C_17  and  C_28
REMARK    8  A    between atoms: C_19  and  C_27
REMARK                            x       y       z     vdW  Elec       q    Type
REMARK                         _______ _______ _______ _____ _____    ______ ____
ROOT
ATOM      1  C   UNL     1       5.380  -2.053  -0.723  0.00  0.00    +0.190 C 
ATOM      2  N   UNL     1       4.121  -1.820  -0.014  0.00  0.00    -0.321 N 
ATOM      3  C   UNL     1       3.774  -0.459  -0.032  0.00  0.00    +0.058 A 
ATOM      4  C   UNL     1       2.408   0.054  -0.020  0.00  0.00    +0.032 A 
ATOM      5  C   UNL     1       1.197  -0.684  -0.012  0.00  0.00    -0.037 A 
ATOM      6  C   UNL     1       0.002  -0.004   0.002  0.00  0.00    +0.027 A 
ATOM      7  C   UNL     1      -0.017   1.383   0.010  0.00  0.00    +0.040 A 
ATOM      8  N   UNL     1       1.111   2.066   0.003  0.00  0.00    -0.245 NA
ATOM      9  C   UNL     1       2.279   1.461  -0.013  0.00  0.00    +0.111 A 
ATOM     10  S   UNL     1       3.959   2.046  -0.030  0.00  0.00    -0.062 S 
ATOM     11  C   UNL     1       4.788   0.489  -0.048  0.00  0.00    +0.097 A 
ATOM     12  C   UNL     1       6.159   0.173  -0.083  0.00  0.00    +0.254 C 
ATOM     13  O   UNL     1       7.028   1.011   0.084  0.00  0.00    -0.270 OA
ATOM     14  N   UNL     1       6.443  -1.137  -0.316  0.00  0.00    -0.289 N 
ATOM     15  C   UNL     1      -1.335   2.114   0.020  0.00  0.00    +0.065 C 
ATOM     16  C   UNL     1       1.219  -2.191  -0.020  0.00  0.00    +0.044 C 
ATOM     17  H   UNL     1       4.169  -2.168   0.932  0.00  0.00    +0.148 HD
ATOM     18  H   UNL     1       7.351  -1.463  -0.212  0.00  0.00    +0.151 HD
ENDROOT
BRANCH   1  22
ATOM     19  C   UNL     1       6.653  -6.066   0.028  0.00  0.00    +0.162 A 
ATOM     20  C   UNL     1       5.308  -5.740   0.089  0.00  0.00    +0.050 A 
ATOM     21  C   UNL     1       4.900  -4.441  -0.149  0.00  0.00    +0.011 A 
ATOM     22  C   UNL     1       5.831  -3.467  -0.459  0.00  0.00    -0.006 A 
ATOM     23  C   UNL     1       7.175  -3.785  -0.521  0.00  0.00    +0.056 A 
ATOM     24  C   UNL     1       7.591  -5.085  -0.279  0.00  0.00    +0.162 A 
BRANCH  24  25
ATOM     25  O   UNL     1       8.912  -5.400  -0.341  0.00  0.00    -0.491 OA
ATOM     26  C   UNL     1       9.817  -4.341  -0.661  0.00  0.00    +0.277 C 
ENDBRANCH  24  25
BRANCH  19  27
ATOM     27  O   UNL     1       7.057  -7.343   0.267  0.00  0.00    -0.489 OA
BRANCH  27  29
ATOM     28  C   UNL     1       6.680  -9.667   0.812  0.00  0.00    +0.048 C 
ATOM     29  C   UNL     1       6.039  -8.297   0.575  0.00  0.00    +0.226 C 
ENDBRANCH  27  29
ENDBRANCH  19  27
ENDBRANCH   1  22
TORSDOF 4
