REMARK  Name = ZINC65098916
REMARK  5 active torsions:
REMARK  status: ('A' for Active; 'I' for Inactive)
REMARK    1  A    between atoms: C_2  and  C_18
REMARK    2  A    between atoms: C_5  and  S_6
REMARK    3  A    between atoms: S_6  and  N_9
REMARK    4  A    between atoms: N_9  and  C_10
REMARK    5  A    between atoms: C_21  and  C_23
REMARK                            x       y       z     vdW  Elec       q    Type
REMARK                         _______ _______ _______ _____ _____    ______ ____
ROOT
ATOM      1  C   UNL     1      -0.020   1.347   0.021  0.00  0.00    +0.049 A 
ATOM      2  C   UNL     1       1.254   2.001   0.197  0.00  0.00    +0.047 A 
ATOM      3  C   UNL     1       2.328   1.200   0.511  0.00  0.00    +0.060 A 
ATOM      4  S   UNL     1       1.683  -0.348   0.572  0.00  0.00    -0.076 S 
ATOM      5  C   UNL     1      -0.018   0.008   0.186  0.00  0.00    +0.143 A 
ENDROOT
BRANCH   2   6
ATOM      6  C   UNL     1       1.398   3.459   0.046  0.00  0.00    +0.249 A 
ATOM      7  N   UNL     1       0.435   4.314  -0.247  0.00  0.00    -0.107 NA
ATOM      8  N   UNL     1       0.923   5.504  -0.298  0.00  0.00    -0.102 NA
ATOM      9  C   UNL     1       2.211   5.458  -0.040  0.00  0.00    +0.304 A 
ATOM     10  O   UNL     1       2.535   4.166   0.188  0.00  0.00    -0.412 OA
BRANCH   9  11
ATOM     11  C   UNL     1       3.131   6.605  -0.001  0.00  0.00    +0.303 C 
ATOM     12  O   UNL     1       4.328   6.421   0.111  0.00  0.00    -0.265 OA
ATOM     13  N   UNL     1       2.647   7.860  -0.089  0.00  0.00    -0.294 N 
ATOM     14  C   UNL     1       1.200   8.108  -0.061  0.00  0.00    +0.108 C 
ATOM     15  C   UNL     1       0.896   9.133   1.036  0.00  0.00    +0.019 C 
ATOM     16  C   UNL     1       1.744  10.386   0.808  0.00  0.00    +0.003 C 
ATOM     17  C   UNL     1       3.228  10.021   0.886  0.00  0.00    +0.019 C 
ATOM     18  C   UNL     1       3.559   9.007  -0.207  0.00  0.00    +0.108 C 
ENDBRANCH   9  11
ENDBRANCH   2   6
BRANCH   5  19
ATOM     19  S   UNL     1      -1.369  -1.115   0.054  0.00  0.00    +0.065 S 
ATOM     20  O   UNL     1      -1.027  -2.256   0.829  0.00  0.00    -0.153 OA
ATOM     21  O   UNL     1      -2.550  -0.359   0.290  0.00  0.00    -0.153 OA
BRANCH  19  22
ATOM     22  N   UNL     1      -1.437  -1.616  -1.523  0.00  0.00    -0.186 NA
ATOM     23  H   UNL     1      -2.202  -1.387  -2.073  0.00  0.00    +0.148 HD
BRANCH  22  24
ATOM     24  C   UNL     1      -0.340  -2.406  -2.088  0.00  0.00    +0.077 C 
ATOM     25  C   UNL     1       0.640  -1.477  -2.807  0.00  0.00    +0.020 C 
ATOM     26  C   UNL     1       1.959  -2.214  -3.047  0.00  0.00    +0.002 C 
ATOM     27  C   UNL     1       2.353  -2.981  -1.783  0.00  0.00    +0.000 C 
ATOM     28  C   UNL     1       2.275  -4.485  -2.054  0.00  0.00    +0.000 C 
ATOM     29  C   UNL     1       0.810  -4.926  -2.059  0.00  0.00    +0.000 C 
ATOM     30  C   UNL     1       0.152  -4.493  -3.370  0.00  0.00    +0.002 C 
ATOM     31  C   UNL     1      -0.903  -3.422  -3.083  0.00  0.00    +0.020 C 
ENDBRANCH  22  24
ENDBRANCH  19  22
ENDBRANCH   5  19
TORSDOF 5
