REMARK  Name = ZINC57179748
REMARK  6 active torsions:
REMARK  status: ('A' for Active; 'I' for Inactive)
REMARK    1  A    between atoms: C_1  and  C_2
REMARK    2  A    between atoms: C_7  and  C_10
REMARK    3  A    between atoms: N_13  and  C_14
REMARK    4  A    between atoms: C_14  and  C_15
REMARK    5  A    between atoms: C_15  and  C_16
REMARK    6  A    between atoms: N_18  and  C_19
REMARK                            x       y       z     vdW  Elec       q    Type
REMARK                         _______ _______ _______ _____ _____    ______ ____
ROOT
ATOM      1  C   UNL     1      -0.016  -2.182   3.716  0.00  0.00    +0.039 C 
ATOM      2  C   UNL     1      -0.970  -1.786   2.588  0.00  0.00    +0.133 C 
ATOM      3  C   UNL     1      -0.583  -2.530   1.305  0.00  0.00    +0.140 C 
ATOM      4  N   UNL     1      -1.389  -1.995   0.196  0.00  0.00    -0.281 N 
ATOM      5  C   UNL     1      -1.432  -0.536   0.013  0.00  0.00    +0.140 C 
ATOM      6  C   UNL     1      -1.778   0.111   1.359  0.00  0.00    +0.133 C 
ATOM      7  O   UNL     1      -0.883  -0.377   2.361  0.00  0.00    -0.371 OA
ATOM      8  C   UNL     1      -3.217  -0.244   1.741  0.00  0.00    +0.039 C 
ATOM      9  C   UNL     1      -2.069  -2.818  -0.627  0.00  0.00    +0.302 C 
ATOM     10  O   UNL     1      -2.805  -2.356  -1.477  0.00  0.00    -0.253 OA
ATOM     11  N   UNL     1      -1.933  -4.154  -0.507  0.00  0.00    -0.299 N 
ATOM     12  H   UNL     1      -1.404  -4.525   0.216  0.00  0.00    +0.150 HD
ENDROOT
BRANCH  11  13
ATOM     13  C   UNL     1      -2.585  -5.045  -1.469  0.00  0.00    +0.115 C 
BRANCH  13  14
ATOM     14  C   UNL     1      -2.274  -6.500  -1.109  0.00  0.00    +0.114 C 
BRANCH  14  15
ATOM     15  C   UNL     1      -2.944  -7.417  -2.099  0.00  0.00    +0.215 C 
ATOM     16  O   UNL     1      -3.607  -6.953  -3.003  0.00  0.00    -0.276 OA
ATOM     17  N   UNL     1      -2.808  -8.752  -1.980  0.00  0.00    -0.312 N 
ATOM     18  H   UNL     1      -2.279  -9.123  -1.257  0.00  0.00    +0.149 HD
BRANCH  17  19
ATOM     19  C   UNL     1      -3.461  -9.644  -2.942  0.00  0.00    +0.073 C 
ATOM     20  C   UNL     1      -4.904  -9.899  -2.504  0.00  0.00    +0.022 C 
ATOM     21  C   UNL     1      -5.585 -10.831  -3.509  0.00  0.00    +0.002 C 
ATOM     22  C   UNL     1      -4.828 -12.159  -3.568  0.00  0.00    +0.000 C 
ATOM     23  C   UNL     1      -3.384 -11.903  -4.006  0.00  0.00    +0.002 C 
ATOM     24  C   UNL     1      -2.703 -10.972  -3.001  0.00  0.00    +0.022 C 
ENDBRANCH  17  19
ENDBRANCH  14  15
ENDBRANCH  13  14
ENDBRANCH  11  13
TORSDOF 4
