REMARK  Name = ZINC39439817
REMARK  17 active torsions:
REMARK  status: ('A' for Active; 'I' for Inactive)
REMARK    1  A    between atoms: C_1  and  C_2
REMARK    2  A    between atoms: C_2  and  O_3
REMARK    3  A    between atoms: O_3  and  C_4
REMARK    4  A    between atoms: C_9  and  C_10
REMARK    5  A    between atoms: C_10  and  N_11
REMARK    6  A    between atoms: N_11  and  C_12
REMARK    7  A    between atoms: N_11  and  C_22
REMARK    8  A    between atoms: C_14  and  C_20
REMARK    9  A    between atoms: C_14  and  C_21
REMARK   10  A    between atoms: C_16  and  C_18
REMARK   11  A    between atoms: C_16  and  C_19
REMARK   12  A    between atoms: C_22  and  N_24
REMARK   13  A    between atoms: N_24  and  C_25
REMARK   14  A    between atoms: C_28  and  O_33
REMARK   15  A    between atoms: C_30  and  O_31
REMARK   16  A    between atoms: O_31  and  C_32
REMARK   17  A    between atoms: O_33  and  C_34
REMARK                            x       y       z     vdW  Elec       q    Type
REMARK                         _______ _______ _______ _____ _____    ______ ____
ROOT
ATOM      1  N   UNL     1      -4.673  -0.444  -1.431  0.00  0.00    -0.305 N 
ENDROOT
BRANCH   1   2
ATOM      2  C   UNL     1      -5.360  -1.447  -2.255  0.00  0.00    +0.073 C 
ATOM      3  C   UNL     1      -6.238  -0.734  -3.285  0.00  0.00    +0.009 C 
ATOM      4  C   UNL     1      -6.951  -1.765  -4.159  0.00  0.00    -0.072 C 
ATOM      5  N   UNL     1      -6.021  -2.701  -4.772  0.00  0.00    +0.386 N 
ATOM      6  C   UNL     1      -4.999  -3.292  -3.923  0.00  0.00    -0.072 C 
ATOM      7  C   UNL     1      -4.321  -2.280  -3.005  0.00  0.00    +0.009 C 
ATOM      8  C   UNL     1      -3.905  -3.875  -4.850  0.00  0.00    -0.010 C 
ATOM      9  C   UNL     1      -5.552  -4.456  -3.098  0.00  0.00    -0.010 C 
ATOM     10  C   UNL     1      -8.039  -2.477  -3.357  0.00  0.00    -0.010 C 
ATOM     11  C   UNL     1      -7.654  -0.992  -5.299  0.00  0.00    -0.010 C 
ATOM     12  H   UNL     1      -6.561  -3.457  -5.200  0.00  0.00    -0.084 HD
ATOM     13  H   UNL     1      -5.557  -2.228  -5.552  0.00  0.00    -0.084 HD
ENDBRANCH   1   2
BRANCH   1  14
ATOM     14  C   UNL     1      -3.894   0.488  -2.014  0.00  0.00    +0.138 C 
ATOM     15  S   UNL     1      -3.230   1.757  -1.076  0.00  0.00    -0.018 S 
BRANCH  14  16
ATOM     16  N   UNL     1      -3.638   0.422  -3.335  0.00  0.00    -0.294 N 
ATOM     17  H   UNL     1      -4.075  -0.250  -3.881  0.00  0.00    +0.154 HD
BRANCH  16  18
ATOM     18  C   UNL     1      -2.738   1.325  -3.922  0.00  0.00    +0.075 A 
ATOM     19  C   UNL     1      -1.666   1.812  -3.189  0.00  0.00    +0.030 A 
ATOM     20  C   UNL     1      -0.780   2.701  -3.766  0.00  0.00    +0.047 A 
ATOM     21  C   UNL     1      -0.961   3.110  -5.079  0.00  0.00    +0.124 A 
ATOM     22  C   UNL     1      -2.031   2.626  -5.816  0.00  0.00    +0.093 A 
ATOM     23  C   UNL     1      -2.918   1.730  -5.242  0.00  0.00    +0.145 A 
BRANCH  23  24
ATOM     24  O   UNL     1      -3.965   1.250  -5.965  0.00  0.00    -0.493 OA
ATOM     25  C   UNL     1      -4.087   1.708  -7.313  0.00  0.00    +0.277 C 
ENDBRANCH  23  24
BRANCH  21  26
ATOM     26  O   UNL     1      -0.088   3.986  -5.644  0.00  0.00    -0.495 OA
ATOM     27  C   UNL     1       0.992   4.444  -4.828  0.00  0.00    +0.277 C 
ENDBRANCH  21  26
ENDBRANCH  16  18
ENDBRANCH  14  16
ENDBRANCH   1  14
BRANCH   1  28
ATOM     28  C   UNL     1      -4.834  -0.458   0.025  0.00  0.00    +0.145 C 
BRANCH  28  34
ATOM     29  C   UNL     1      -2.627  -1.224   0.935  0.00  0.00    +0.125 A 
ATOM     30  C   UNL     1      -1.812  -2.203   1.487  0.00  0.00    +0.046 A 
ATOM     31  C   UNL     1      -2.314  -3.469   1.715  0.00  0.00    +0.004 A 
ATOM     32  C   UNL     1      -3.627  -3.763   1.395  0.00  0.00    +0.001 A 
ATOM     33  C   UNL     1      -4.440  -2.790   0.844  0.00  0.00    +0.009 A 
ATOM     34  C   UNL     1      -3.945  -1.520   0.619  0.00  0.00    +0.011 A 
BRANCH  29  35
ATOM     35  O   UNL     1      -2.136   0.023   0.710  0.00  0.00    -0.492 OA
BRANCH  35  37
ATOM     36  C   UNL     1      -0.400   1.704   0.736  0.00  0.00    +0.048 C 
ATOM     37  C   UNL     1      -0.770   0.255   1.059  0.00  0.00    +0.225 C 
ENDBRANCH  35  37
ENDBRANCH  29  35
ENDBRANCH  28  34
ENDBRANCH   1  28
TORSDOF 10
