REMARK  Name = ZINC22215426
REMARK  15 active torsions:
REMARK  status: ('A' for Active; 'I' for Inactive)
REMARK    1  A    between atoms: C_1  and  C_2
REMARK    2  A    between atoms: C_4  and  C_30
REMARK    3  A    between atoms: C_7  and  C_20
REMARK    4  A    between atoms: C_10  and  C_11
REMARK    5  A    between atoms: C_10  and  O_19
REMARK    6  A    between atoms: C_16  and  O_17
REMARK    7  A    between atoms: O_17  and  C_18
REMARK    8  A    between atoms: C_22  and  O_28
REMARK    9  A    between atoms: C_25  and  O_26
REMARK   10  A    between atoms: O_26  and  C_27
REMARK   11  A    between atoms: O_28  and  C_29
REMARK   12  A    between atoms: C_32  and  O_38
REMARK   13  A    between atoms: C_35  and  O_36
REMARK   14  A    between atoms: O_36  and  C_37
REMARK   15  A    between atoms: O_38  and  C_39
REMARK                            x       y       z     vdW  Elec       q    Type
REMARK                         _______ _______ _______ _____ _____    ______ ____
ROOT
ATOM      1  C   UNL     1      -2.625   3.870  -2.476  0.00  0.00    +0.009 C 
ATOM      2  C   UNL     1      -2.650   4.743  -1.219  0.00  0.00    +0.012 C 
ATOM      3  C   UNL     1      -3.961   5.531  -1.171  0.00  0.00    -0.030 C 
ATOM      4  N   UNL     1      -3.994   6.353   0.046  0.00  0.00    +0.389 N 
ATOM      5  C   UNL     1      -3.946   5.517   1.252  0.00  0.00    -0.033 C 
ATOM      6  C   UNL     1      -2.634   4.729   1.276  0.00  0.00    +0.029 C 
ATOM      7  C   UNL     1      -2.548   3.853   0.023  0.00  0.00    +0.094 C 
ATOM      8  H   UNL     1      -3.128   7.031   0.054  0.00  0.00    -0.084 HD
ATOM      9  H   UNL     1      -4.923   6.942   0.065  0.00  0.00    -0.084 HD
ENDROOT
BRANCH   7  10
ATOM     10  C   UNL     1      -1.232   3.120   0.011  0.00  0.00    +0.026 A 
ATOM     11  C   UNL     1      -1.211   1.738   0.000  0.00  0.00    +0.010 A 
ATOM     12  C   UNL     1      -0.004   1.064  -0.005  0.00  0.00    +0.001 A 
ATOM     13  C   UNL     1       1.185   1.771  -0.011  0.00  0.00    +0.004 A 
ATOM     14  C   UNL     1       1.169   3.152  -0.007  0.00  0.00    +0.046 A 
ATOM     15  C   UNL     1      -0.041   3.830   0.004  0.00  0.00    +0.126 A 
BRANCH  15  16
ATOM     16  O   UNL     1      -0.059   5.189   0.008  0.00  0.00    -0.495 OA
ATOM     17  C   UNL     1       1.205   5.855   0.001  0.00  0.00    +0.277 C 
ENDBRANCH  15  16
ENDBRANCH   7  10
BRANCH   5  18
ATOM     18  C   UNL     1      -4.026   6.395   2.475  0.00  0.00    -0.016 A 
ATOM     19  C   UNL     1      -3.714   7.738   2.382  0.00  0.00    +0.051 A 
ATOM     20  C   UNL     1      -3.788   8.546   3.507  0.00  0.00    +0.121 A 
ATOM     21  C   UNL     1      -4.175   8.006   4.725  0.00  0.00    +0.049 A 
ATOM     22  C   UNL     1      -4.486   6.664   4.817  0.00  0.00    +0.049 A 
ATOM     23  C   UNL     1      -4.418   5.857   3.691  0.00  0.00    +0.122 A 
BRANCH  23  24
ATOM     24  O   UNL     1      -4.730   4.536   3.781  0.00  0.00    -0.495 OA
ATOM     25  C   UNL     1      -5.126   4.049   5.064  0.00  0.00    +0.277 C 
ENDBRANCH  23  24
BRANCH  20  26
ATOM     26  O   UNL     1      -3.481   9.868   3.416  0.00  0.00    -0.495 OA
ATOM     27  C   UNL     1      -3.579  10.641   4.614  0.00  0.00    +0.277 C 
ENDBRANCH  20  26
ENDBRANCH   5  18
BRANCH   3  28
ATOM     28  C   UNL     1      -5.123   4.572  -1.161  0.00  0.00    -0.016 A 
ATOM     29  C   UNL     1      -5.316   3.731  -0.082  0.00  0.00    +0.051 A 
ATOM     30  C   UNL     1      -6.386   2.849  -0.073  0.00  0.00    +0.121 A 
ATOM     31  C   UNL     1      -7.263   2.811  -1.147  0.00  0.00    +0.049 A 
ATOM     32  C   UNL     1      -7.070   3.652  -2.225  0.00  0.00    +0.049 A 
ATOM     33  C   UNL     1      -6.003   4.538  -2.232  0.00  0.00    +0.122 A 
BRANCH  33  34
ATOM     34  O   UNL     1      -5.816   5.370  -3.292  0.00  0.00    -0.495 OA
ATOM     35  C   UNL     1      -6.761   5.280  -4.361  0.00  0.00    +0.277 C 
ENDBRANCH  33  34
BRANCH  30  36
ATOM     36  O   UNL     1      -6.576   2.021   0.989  0.00  0.00    -0.495 OA
ATOM     37  C   UNL     1      -7.698   1.138   0.931  0.00  0.00    +0.277 C 
ENDBRANCH  30  36
ENDBRANCH   3  28
BRANCH   7  38
ATOM     38  O   UNL     1      -3.621   2.910   0.025  0.00  0.00    -0.384 OA
ATOM     39  H   UNL     1      -3.713   2.183   0.846  0.00  0.00    +0.211 HD
ENDBRANCH   7  38
TORSDOF 9
