REMARK  Name = ZINC15969417
REMARK  6 active torsions:
REMARK  status: ('A' for Active; 'I' for Inactive)
REMARK    1  A    between atoms: C_1  and  C_2
REMARK    2  A    between atoms: C_13  and  C_16
REMARK    3  A    between atoms: C_16  and  C_17
REMARK    4  A    between atoms: N_29  and  C_32
REMARK    5  A    between atoms: C_35  and  O_38
REMARK    6  A    between atoms: O_38  and  C_39
REMARK                            x       y       z     vdW  Elec       q    Type
REMARK                         _______ _______ _______ _____ _____    ______ ____
ROOT
ATOM      1  C   UNL     1      -3.312   1.597   1.579  0.00  0.00    +0.044 C 
ATOM      2  C   UNL     1      -3.179   0.113   1.359  0.00  0.00    -0.050 A 
ATOM      3  C   UNL     1      -3.941  -0.515   0.390  0.00  0.00    +0.005 A 
ATOM      4  C   UNL     1      -3.823  -1.874   0.184  0.00  0.00    +0.024 A 
ATOM      5  C   UNL     1      -2.936  -2.625   0.951  0.00  0.00    +0.039 A 
ATOM      6  C   UNL     1      -2.176  -1.983   1.925  0.00  0.00    +0.004 A 
ATOM      7  C   UNL     1      -2.292  -0.625   2.122  0.00  0.00    +0.011 A 
ATOM      8  C   UNL     1      -1.340  -3.054   2.566  0.00  0.00    +0.136 C 
ATOM      9  C   UNL     1       0.159  -2.758   2.434  0.00  0.00    +0.123 C 
ATOM     10  C   UNL     1       0.778  -3.285   3.758  0.00  0.00    +0.108 C 
ATOM     11  C   UNL     1      -0.411  -3.871   4.548  0.00  0.00    +0.072 C 
ATOM     12  N   UNL     1      -1.607  -3.155   4.013  0.00  0.00    -0.295 NA
ATOM     13  C   UNL     1       1.276  -2.028   4.435  0.00  0.00    +0.232 C 
ATOM     14  O   UNL     1       1.827  -1.985   5.514  0.00  0.00    -0.274 OA
ATOM     15  N   UNL     1       1.013  -0.971   3.659  0.00  0.00    -0.210 N 
ATOM     16  C   UNL     1       0.389  -1.264   2.495  0.00  0.00    +0.233 C 
ATOM     17  O   UNL     1       0.062  -0.470   1.639  0.00  0.00    -0.274 OA
ATOM     18  C   UNL     1      -1.714  -4.323   1.850  0.00  0.00    +0.243 C 
ATOM     19  O   UNL     1      -1.268  -5.431   2.059  0.00  0.00    -0.273 OA
ATOM     20  N   UNL     1      -2.642  -3.990   0.931  0.00  0.00    -0.283 N 
ATOM     21  H   UNL     1      -1.707  -2.240   4.426  0.00  0.00    +0.124 HD
ATOM     22  H   UNL     1      -3.057  -4.624   0.326  0.00  0.00    +0.155 HD
ENDROOT
BRANCH  15  23
ATOM     23  C   UNL     1       1.362   0.340   4.018  0.00  0.00    +0.044 A 
ATOM     24  C   UNL     1       0.740   0.953   5.097  0.00  0.00    +0.027 A 
ATOM     25  C   UNL     1       1.084   2.243   5.451  0.00  0.00    +0.047 A 
ATOM     26  C   UNL     1       2.051   2.926   4.727  0.00  0.00    +0.120 A 
ATOM     27  C   UNL     1       2.672   2.314   3.648  0.00  0.00    +0.047 A 
ATOM     28  C   UNL     1       2.333   1.022   3.298  0.00  0.00    +0.027 A 
BRANCH  26  29
ATOM     29  O   UNL     1       2.389   4.196   5.076  0.00  0.00    -0.495 OA
ATOM     30  C   UNL     1       3.392   4.839   4.287  0.00  0.00    +0.277 C 
ENDBRANCH  26  29
ENDBRANCH  15  23
BRANCH  11  31
ATOM     31  C   UNL     1      -0.514  -5.380   4.313  0.00  0.00    +0.056 C 
BRANCH  31  32
ATOM     32  C   UNL     1       0.270  -6.108   5.374  0.00  0.00    -0.021 A 
ATOM     33  C   UNL     1       1.539  -6.534   5.279  0.00  0.00    +0.087 A 
ATOM     34  N   UNL     1       1.912  -7.153   6.441  0.00  0.00    -0.360 N 
ATOM     35  H   UNL     1       2.784  -7.543   6.609  0.00  0.00    +0.165 HD
ATOM     36  C   UNL     1       0.865  -7.140   7.335  0.00  0.00    +0.047 A 
ATOM     37  C   UNL     1      -0.208  -6.479   6.709  0.00  0.00    +0.003 A 
ATOM     38  C   UNL     1      -1.415  -6.311   7.389  0.00  0.00    +0.010 A 
ATOM     39  C   UNL     1      -1.548  -6.787   8.663  0.00  0.00    +0.001 A 
ATOM     40  C   UNL     1      -0.491  -7.436   9.287  0.00  0.00    +0.002 A 
ATOM     41  C   UNL     1       0.706  -7.621   8.630  0.00  0.00    +0.026 A 
ENDBRANCH  31  32
ENDBRANCH  11  31
TORSDOF 4
