REMARK  Name = ZINC11917794
REMARK  8 active torsions:
REMARK  status: ('A' for Active; 'I' for Inactive)
REMARK    1  A    between atoms: C_1  and  C_2
REMARK    2  A    between atoms: C_2  and  C_3
REMARK    3  A    between atoms: C_2  and  C_4
REMARK    4  A    between atoms: C_4  and  C_6
REMARK    5  A    between atoms: C_4  and  N_22
REMARK    6  A    between atoms: N_8  and  C_9
REMARK    7  A    between atoms: N_22  and  S_23
REMARK    8  A    between atoms: S_23  and  C_26
REMARK                            x       y       z     vdW  Elec       q    Type
REMARK                         _______ _______ _______ _____ _____    ______ ____
ROOT
ATOM      1  C   UNL     1      -2.448   1.664   0.073  0.00  0.00    +0.236 C 
ATOM      2  O   UNL     1      -2.184   0.489  -0.071  0.00  0.00    -0.274 OA
ATOM      3  N   UNL     1      -1.510   2.514   0.536  0.00  0.00    -0.284 N 
ATOM      4  H   UNL     1      -1.738   3.440   0.712  0.00  0.00    +0.155 HD
ENDROOT
BRANCH   3   5
ATOM      5  C   UNL     1      -0.204   2.059   0.763  0.00  0.00    +0.037 A 
ATOM      6  C   UNL     1       0.875   2.900   0.521  0.00  0.00    +0.027 A 
ATOM      7  C   UNL     1       2.164   2.456   0.751  0.00  0.00    +0.051 A 
ATOM      8  C   UNL     1       2.382   1.173   1.222  0.00  0.00    +0.167 A 
ATOM      9  C   UNL     1       1.300   0.327   1.463  0.00  0.00    +0.169 A 
ATOM     10  C   UNL     1       0.011   0.771   1.234  0.00  0.00    +0.072 A 
ATOM     11  O   UNL     1       1.786  -0.873   1.917  0.00  0.00    -0.447 OA
ATOM     12  C   UNL     1       3.148  -0.883   1.466  0.00  0.00    +0.254 C 
ATOM     13  O   UNL     1       3.535   0.497   1.529  0.00  0.00    -0.448 OA
ATOM     14  C   UNL     1       4.027  -1.751   2.373  0.00  0.00    +0.093 C 
ATOM     15  C   UNL     1       4.149  -3.092   1.603  0.00  0.00    +0.008 C 
ATOM     16  C   UNL     1       4.231  -2.635   0.125  0.00  0.00    +0.008 C 
ATOM     17  C   UNL     1       3.263  -1.433   0.044  0.00  0.00    +0.093 C 
ENDBRANCH   3   5
BRANCH   1  18
ATOM     18  C   UNL     1      -3.825   2.174  -0.266  0.00  0.00    +0.165 C 
BRANCH  18  20
ATOM     19  C   UNL     1      -3.525   1.694  -2.700  0.00  0.00    +0.009 C 
ATOM     20  C   UNL     1      -3.811   2.787  -1.668  0.00  0.00    +0.010 C 
ATOM     21  C   UNL     1      -5.172   3.421  -1.961  0.00  0.00    +0.009 C 
ENDBRANCH  18  20
BRANCH  18  22
ATOM     22  N   UNL     1      -4.780   1.064  -0.228  0.00  0.00    -0.177 NA
ATOM     23  H   UNL     1      -4.886   0.489  -1.002  0.00  0.00    +0.149 HD
BRANCH  22  24
ATOM     24  S   UNL     1      -5.677   0.790   1.137  0.00  0.00    +0.065 S 
ATOM     25  O   UNL     1      -6.541  -0.299   0.843  0.00  0.00    -0.153 OA
ATOM     26  O   UNL     1      -4.764   0.766   2.225  0.00  0.00    -0.153 OA
BRANCH  24  27
ATOM     27  C   UNL     1      -6.707   2.200   1.374  0.00  0.00    +0.142 A 
ATOM     28  C   UNL     1      -7.979   2.407   0.955  0.00  0.00    +0.036 A 
ATOM     29  C   UNL     1      -8.599   3.604   1.261  0.00  0.00    +0.010 A 
ATOM     30  C   UNL     1      -7.916   4.535   1.972  0.00  0.00    +0.047 A 
ATOM     31  S   UNL     1      -6.349   3.721   2.236  0.00  0.00    -0.077 S 
ENDBRANCH  24  27
ENDBRANCH  22  24
ENDBRANCH  18  22
ENDBRANCH   1  18
TORSDOF 6
