REMARK  Name = ZINC67280523
REMARK  6 active torsions:
REMARK  status: ('A' for Active; 'I' for Inactive)
REMARK    1  A    between atoms: C_1  and  C_2
REMARK    2  A    between atoms: C_2  and  C_3
REMARK    3  A    between atoms: C_2  and  C_4
REMARK    4  A    between atoms: C_2  and  N_11
REMARK    5  A    between atoms: N_14  and  C_15
REMARK    6  A    between atoms: C_17  and  C_23
REMARK                            x       y       z     vdW  Elec       q    Type
REMARK                         _______ _______ _______ _____ _____    ______ ____
ROOT
ATOM      1  N   UNL     1       0.495  -0.401  -1.305  0.00  0.00    -0.290 N 
ATOM      2  C   UNL     1       1.785  -0.194  -1.637  0.00  0.00    +0.305 C 
ATOM      3  O   UNL     1       2.527   0.380  -0.863  0.00  0.00    -0.252 OA
ATOM      4  N   UNL     1       2.252  -0.622  -2.826  0.00  0.00    -0.265 N 
ATOM      5  H   UNL     1      -0.097  -0.859  -1.922  0.00  0.00    +0.151 HD
ATOM      6  H   UNL     1       1.645  -1.015  -3.473  0.00  0.00    +0.157 HD
ENDROOT
BRANCH   4   7
ATOM      7  C   UNL     1       3.616  -0.500  -3.129  0.00  0.00    +0.100 A 
ATOM      8  C   UNL     1       4.357  -1.606  -3.443  0.00  0.00    +0.042 A 
ATOM      9  C   UNL     1       5.718  -1.456  -3.742  0.00  0.00    +0.073 A 
ATOM     10  C   UNL     1       6.285  -0.229  -3.718  0.00  0.00    +0.098 A 
ATOM     11  N   UNL     1       5.551   0.872  -3.406  0.00  0.00    -0.327 N 
ATOM     12  H   UNL     1       5.975   1.744  -3.394  0.00  0.00    +0.168 HD
ATOM     13  C   UNL     1       4.239   0.766  -3.119  0.00  0.00    +0.270 A 
ATOM     14  O   UNL     1       3.591   1.764  -2.846  0.00  0.00    -0.266 OA
BRANCH   9  15
ATOM     15  C   UNL     1       6.550  -2.664  -4.089  0.00  0.00    +0.419 C 
ATOM     16  F   UNL     1       7.866  -2.265  -4.346  0.00  0.00    -0.166 F 
ATOM     17  F   UNL     1       6.537  -3.564  -3.018  0.00  0.00    -0.166 F 
ATOM     18  F   UNL     1       6.021  -3.284  -5.226  0.00  0.00    -0.166 F 
ENDBRANCH   9  15
ENDBRANCH   4   7
BRANCH   1  20
ATOM     19  C   UNL     1       0.196   1.576   0.104  0.00  0.00    +0.036 C 
ATOM     20  C   UNL     1      -0.013   0.065  -0.012  0.00  0.00    +0.056 C 
ATOM     21  C   UNL     1       0.741  -0.642   1.117  0.00  0.00    +0.036 C 
BRANCH  20  22
ATOM     22  C   UNL     1      -1.483  -0.249   0.093  0.00  0.00    -0.025 A 
ATOM     23  C   UNL     1      -2.048  -0.506   1.328  0.00  0.00    +0.007 A 
ATOM     24  C   UNL     1      -3.397  -0.794   1.425  0.00  0.00    +0.020 A 
ATOM     25  C   UNL     1      -4.181  -0.825   0.285  0.00  0.00    +0.041 A 
ATOM     26  C   UNL     1      -3.614  -0.567  -0.951  0.00  0.00    +0.020 A 
ATOM     27  C   UNL     1      -2.267  -0.274  -1.045  0.00  0.00    +0.007 A 
ATOM     28 CL   UNL     1      -5.874  -1.186   0.406  0.00  0.00    -0.084 Cl
ENDBRANCH  20  22
ENDBRANCH   1  20
TORSDOF 4
