REMARK  Name = ZINC39691266
REMARK  11 active torsions:
REMARK  status: ('A' for Active; 'I' for Inactive)
REMARK    1  A    between atoms: C_1  and  C_2
REMARK    2  A    between atoms: C_7  and  C_8
REMARK    3  A    between atoms: C_8  and  C_9
REMARK    4  A    between atoms: C_9  and  N_10
REMARK    5  A    between atoms: C_11  and  C_13
REMARK    6  A    between atoms: C_24  and  C_26
REMARK    7  A    between atoms: C_26  and  C_28
REMARK    8  A    between atoms: C_26  and  O_31
REMARK    9  A    between atoms: C_28  and  C_29
REMARK   10  A    between atoms: C_28  and  C_30
REMARK   11  A    between atoms: O_31  and  C_32
REMARK                            x       y       z     vdW  Elec       q    Type
REMARK                         _______ _______ _______ _____ _____    ______ ____
ROOT
ATOM      1  C   UNL     1      -2.592   2.932   6.157  0.00  0.00    +0.100 C 
ATOM      2  C   UNL     1      -1.959   1.879   7.094  0.00  0.00    +0.121 C 
ATOM      3  N   UNL     1      -2.939   1.718   8.194  0.00  0.00    -0.297 N 
ATOM      4  C   UNL     1      -4.259   1.767   7.522  0.00  0.00    +0.115 C 
ATOM      5  C   UNL     1      -4.102   2.855   6.441  0.00  0.00    -0.004 C 
ATOM      6  C   UNL     1      -4.611   4.195   6.963  0.00  0.00    -0.010 C 
ATOM      7  C   UNL     1      -6.124   4.111   7.183  0.00  0.00    -0.082 C 
ATOM      8  N   UNL     1      -6.786   3.772   5.917  0.00  0.00    +0.379 N 
ATOM      9  C   UNL     1      -6.361   2.441   5.469  0.00  0.00    -0.082 C 
ATOM     10  C   UNL     1      -4.857   2.455   5.177  0.00  0.00    -0.010 C 
ATOM     11  C   UNL     1      -2.687   1.563   9.509  0.00  0.00    +0.257 C 
ATOM     12  O   UNL     1      -3.597   1.344  10.279  0.00  0.00    -0.272 OA
ATOM     13  H   UNL     1      -7.786   3.777   6.051  0.00  0.00    -0.086 HD
ATOM     14  H   UNL     1      -6.540   4.456   5.217  0.00  0.00    -0.086 HD
ENDROOT
BRANCH   1  16
ATOM     15  N   UNL     1      -2.372   3.549   3.772  0.00  0.00    -0.315 N 
ATOM     16  C   UNL     1      -2.311   2.590   4.717  0.00  0.00    +0.218 C 
ATOM     17  O   UNL     1      -2.029   1.451   4.408  0.00  0.00    -0.275 OA
ATOM     18  H   UNL     1      -2.597   4.460   4.019  0.00  0.00    +0.149 HD
BRANCH  15  19
ATOM     19  C   UNL     1      -2.098   3.217   2.372  0.00  0.00    +0.109 C 
BRANCH  19  20
ATOM     20  C   UNL     1      -2.234   4.475   1.513  0.00  0.00    +0.054 C 
BRANCH  20  27
ATOM     21  C   UNL     1      -4.344   3.438  -0.165  0.00  0.00    +0.044 C 
ATOM     22  C   UNL     1      -2.962   3.637  -0.730  0.00  0.00    -0.047 A 
ATOM     23  C   UNL     1      -2.704   3.329  -2.053  0.00  0.00    +0.003 A 
ATOM     24  C   UNL     1      -1.436   3.511  -2.571  0.00  0.00    +0.000 A 
ATOM     25  C   UNL     1      -0.425   4.003  -1.767  0.00  0.00    +0.000 A 
ATOM     26  C   UNL     1      -0.682   4.312  -0.445  0.00  0.00    +0.004 A 
ATOM     27  C   UNL     1      -1.952   4.133   0.072  0.00  0.00    -0.043 A 
ENDBRANCH  20  27
ENDBRANCH  19  20
ENDBRANCH  15  19
ENDBRANCH   1  16
BRANCH  11  28
ATOM     28  C   UNL     1      -1.273   1.662  10.022  0.00  0.00    +0.261 C 
BRANCH  28  29
ATOM     29  C   UNL     1      -0.951   3.121  10.352  0.00  0.00    +0.033 C 
ATOM     30  C   UNL     1       0.433   3.204  10.999  0.00  0.00    +0.011 C 
ATOM     31  C   UNL     1      -0.964   3.950   9.067  0.00  0.00    +0.011 C 
ENDBRANCH  28  29
BRANCH  28  32
ATOM     32  O   UNL     1      -1.137   0.866  11.200  0.00  0.00    -0.479 OA
BRANCH  32  33
ATOM     33  C   UNL     1       0.052   0.234  11.385  0.00  0.00    +0.122 A 
ATOM     34  C   UNL     1       0.258  -0.544  12.515  0.00  0.00    +0.045 A 
ATOM     35  C   UNL     1       1.467  -1.185  12.700  0.00  0.00    +0.004 A 
ATOM     36  C   UNL     1       2.473  -1.051  11.760  0.00  0.00    +0.000 A 
ATOM     37  C   UNL     1       2.271  -0.275  10.634  0.00  0.00    +0.004 A 
ATOM     38  C   UNL     1       1.061   0.363  10.441  0.00  0.00    +0.045 A 
ENDBRANCH  32  33
ENDBRANCH  28  32
ENDBRANCH  11  28
TORSDOF 8
