REMARK  Name = ZINC01440866
REMARK  8 active torsions:
REMARK  status: ('A' for Active; 'I' for Inactive)
REMARK    1  A    between atoms: C_1  and  N_2
REMARK    2  A    between atoms: N_2  and  C_3
REMARK    3  A    between atoms: N_2  and  N_4
REMARK    4  A    between atoms: C_7  and  C_14
REMARK    5  A    between atoms: C_9  and  C_12
REMARK    6  A    between atoms: C_10  and  N_11
REMARK    7  A    between atoms: C_18  and  N_20
REMARK    8  A    between atoms: C_26  and  C_29
REMARK                            x       y       z     vdW  Elec       q    Type
REMARK                         _______ _______ _______ _____ _____    ______ ____
ROOT
ATOM      1  N   UNL     1       3.076  -0.236  -1.462  0.00  0.00    -0.223 N 
ATOM      2  C   UNL     1       2.594   0.782  -0.686  0.00  0.00    +0.037 C 
ATOM      3  C   UNL     1       1.528   0.587   0.120  0.00  0.00    +0.026 C 
ATOM      4  C   UNL     1       0.844  -0.755   0.189  0.00  0.00    +0.097 C 
ATOM      5  C   UNL     1       1.202  -1.606  -0.995  0.00  0.00    +0.078 C 
ATOM      6  C   UNL     1       2.288  -1.322  -1.760  0.00  0.00    +0.117 C 
ATOM      7  C   UNL     1       1.025   1.627   0.921  0.00  0.00    +0.162 C 
ATOM      8  O   UNL     1       0.056   1.422   1.624  0.00  0.00    -0.292 OA
ATOM      9  C   UNL     1       1.666   2.988   0.925  0.00  0.00    +0.088 C 
ATOM     10  C   UNL     1       3.154   2.839   0.590  0.00  0.00    +0.032 C 
ATOM     11  C   UNL     1       3.278   2.125  -0.758  0.00  0.00    +0.061 C 
ENDROOT
BRANCH   4  12
ATOM     12  C   UNL     1       1.268  -1.462   1.450  0.00  0.00    -0.033 A 
ATOM     13  C   UNL     1       2.602  -1.756   1.663  0.00  0.00    +0.005 A 
ATOM     14  C   UNL     1       2.991  -2.401   2.822  0.00  0.00    +0.003 A 
ATOM     15  C   UNL     1       2.045  -2.760   3.764  0.00  0.00    +0.033 A 
ATOM     16  C   UNL     1       0.711  -2.471   3.549  0.00  0.00    +0.126 A 
ATOM     17  C   UNL     1       0.322  -1.822   2.392  0.00  0.00    +0.037 A 
BRANCH  16  18
ATOM     18  N   UNL     1      -0.302  -2.855   4.558  0.00  0.00    +0.056 N 
ATOM     19  O   UNL     1      -1.478  -2.600   4.368  0.00  0.00    -0.126 OA
ATOM     20  O   UNL     1       0.041  -3.427   5.577  0.00  0.00    -0.126 OA
ENDBRANCH  16  18
ENDBRANCH   4  12
BRANCH  10  21
ATOM     21  C   UNL     1       3.792   4.201   0.502  0.00  0.00    -0.044 A 
ATOM     22  C   UNL     1       3.338   5.119  -0.426  0.00  0.00    +0.004 A 
ATOM     23  C   UNL     1       3.921   6.370  -0.504  0.00  0.00    +0.000 A 
ATOM     24  C   UNL     1       4.964   6.700   0.342  0.00  0.00    +0.000 A 
ATOM     25  C   UNL     1       5.421   5.781   1.268  0.00  0.00    +0.000 A 
ATOM     26  C   UNL     1       4.835   4.531   1.347  0.00  0.00    +0.004 A 
ENDBRANCH  10  21
BRANCH   1  28
ATOM     27  C   UNL     1       4.488   0.907  -2.933  0.00  0.00    +0.128 C 
ATOM     28  N   UNL     1       4.352  -0.173  -1.946  0.00  0.00    -0.227 NA
ATOM     29  C   UNL     1       5.322  -0.013  -0.854  0.00  0.00    +0.128 C 
ENDBRANCH   1  28
BRANCH   6  30
ATOM     30  N   UNL     1       2.598  -2.122  -2.833  0.00  0.00    -0.344 N 
ATOM     31  H   UNL     1       2.093  -2.934  -2.995  0.00  0.00    +0.144 HD
ATOM     32  H   UNL     1       3.323  -1.874  -3.429  0.00  0.00    +0.144 HD
ENDBRANCH   6  30
BRANCH   5  33
ATOM     33  C   UNL     1       0.385  -2.736  -1.322  0.00  0.00    +0.099 C 
ATOM     34  N   UNL     1      -0.263  -3.632  -1.582  0.00  0.00    -0.191 NA
ENDBRANCH   5  33
TORSDOF 6
