REMARK  Name = ZINC41153935
REMARK  4 active torsions:
REMARK  status: ('A' for Active; 'I' for Inactive)
REMARK    1  A    between atoms: C_1  and  C_2
REMARK    2  A    between atoms: C_5  and  C_8
REMARK    3  A    between atoms: C_5  and  N_20
REMARK    4  A    between atoms: C_10  and  C_13
REMARK                            x       y       z     vdW  Elec       q    Type
REMARK                         _______ _______ _______ _____ _____    ______ ____
ROOT
ATOM      1  C   UNL     1       1.499  -4.041  -0.034  0.00  0.00    +0.161 A 
ATOM      2  N   UNL     1       2.597  -4.800  -0.043  0.00  0.00    -0.193 NA
ATOM      3  C   UNL     1       2.264  -6.072  -0.048  0.00  0.00    +0.259 A 
ATOM      4  O   UNL     1       0.922  -6.149  -0.041  0.00  0.00    -0.333 OA
ATOM      5  N   UNL     1       0.448  -4.811  -0.028  0.00  0.00    -0.062 NA
ENDROOT
BRANCH   1  10
ATOM      6  C   UNL     1      -0.019   1.526   0.010  0.00  0.00    +0.007 C 
ATOM      7  C   UNL     1       0.002  -0.004   0.002  0.00  0.00    -0.014 C 
ATOM      8  C   UNL     1       0.718  -0.497  -1.257  0.00  0.00    +0.002 C 
ATOM      9  C   UNL     1       0.739  -2.027  -1.265  0.00  0.00    -0.005 C 
ATOM     10  C   UNL     1       1.479  -2.534  -0.026  0.00  0.00    -0.006 C 
ATOM     11  C   UNL     1       0.763  -2.041   1.233  0.00  0.00    -0.005 C 
ATOM     12  C   UNL     1       0.742  -0.511   1.242  0.00  0.00    +0.002 C 
BRANCH  10  13
ATOM     13  N   UNL     1       2.857  -2.026  -0.036  0.00  0.00    +0.387 N 
ATOM     14  H   UNL     1       2.843  -1.017  -0.031  0.00  0.00    -0.089 HD
ATOM     15  H   UNL     1       3.345  -2.360   0.781  0.00  0.00    -0.089 HD
ATOM     16  H   UNL     1       3.329  -2.351  -0.866  0.00  0.00    -0.089 HD
ENDBRANCH  10  13
ENDBRANCH   1  10
BRANCH   3  17
ATOM     17  C   UNL     1       3.200  -7.215  -0.059  0.00  0.00    +0.053 A 
ATOM     18  C   UNL     1       4.579  -6.992  -0.059  0.00  0.00    +0.014 A 
ATOM     19  C   UNL     1       5.447  -8.064  -0.068  0.00  0.00    +0.001 A 
ATOM     20  C   UNL     1       4.955  -9.358  -0.078  0.00  0.00    +0.001 A 
ATOM     21  C   UNL     1       3.591  -9.586  -0.078  0.00  0.00    +0.016 A 
ATOM     22  C   UNL     1       2.711  -8.523  -0.062  0.00  0.00    +0.030 A 
ATOM     23 BR   UNL     1       0.846  -8.836  -0.055  0.00  0.00    -0.050 Br
ENDBRANCH   3  17
TORSDOF 3
