REMARK  Name = ZINC09382013
REMARK  9 active torsions:
REMARK  status: ('A' for Active; 'I' for Inactive)
REMARK    1  A    between atoms: C_1  and  O_2
REMARK    2  A    between atoms: O_2  and  C_3
REMARK    3  A    between atoms: C_7  and  N_9
REMARK    4  A    between atoms: C_10  and  C_26
REMARK    5  A    between atoms: C_13  and  S_14
REMARK    6  A    between atoms: S_14  and  C_15
REMARK    7  A    between atoms: C_15  and  C_16
REMARK    8  A    between atoms: C_20  and  C_22
REMARK    9  A    between atoms: C_26  and  C_27
REMARK                            x       y       z     vdW  Elec       q    Type
REMARK                         _______ _______ _______ _____ _____    ______ ____
ROOT
ATOM      1  N   UNL     1       1.477  -3.845  -2.463  0.00  0.00    -0.274 N 
ATOM      2  C   UNL     1       0.671  -4.714  -3.151  0.00  0.00    +0.144 A 
ATOM      3  N   UNL     1       0.897  -5.907  -2.681  0.00  0.00    -0.133 NA
ATOM      4  N   UNL     1       1.782  -5.856  -1.750  0.00  0.00    -0.122 NA
ATOM      5  C   UNL     1       2.178  -4.617  -1.577  0.00  0.00    +0.196 A 
ENDROOT
BRANCH   1  10
ATOM      6  C   UNL     1       1.236  -0.231  -1.801  0.00  0.00    +0.122 A 
ATOM      7  C   UNL     1       1.752   0.286  -2.981  0.00  0.00    +0.046 A 
ATOM      8  C   UNL     1       2.174  -0.566  -3.984  0.00  0.00    +0.006 A 
ATOM      9  C   UNL     1       2.083  -1.935  -3.814  0.00  0.00    +0.026 A 
ATOM     10  C   UNL     1       1.568  -2.457  -2.635  0.00  0.00    +0.054 A 
ATOM     11  C   UNL     1       1.149  -1.603  -1.625  0.00  0.00    +0.072 A 
BRANCH   6  13
ATOM     12  C   UNL     1       0.939   2.011  -1.065  0.00  0.00    +0.277 C 
ATOM     13  O   UNL     1       0.821   0.609  -0.816  0.00  0.00    -0.495 OA
ENDBRANCH   6  13
ENDBRANCH   1  10
BRANCH   5  14
ATOM     14  S   UNL     1       3.382  -4.053  -0.420  0.00  0.00    -0.081 S 
BRANCH  14  15
ATOM     15  C   UNL     1       3.914  -5.564   0.430  0.00  0.00    +0.112 C 
BRANCH  15  16
ATOM     16  C   UNL     1       4.958  -5.218   1.461  0.00  0.00    -0.037 A 
ATOM     17  C   UNL     1       6.296  -5.212   1.115  0.00  0.00    +0.004 A 
ATOM     18  C   UNL     1       7.253  -4.895   2.060  0.00  0.00    +0.001 A 
ATOM     19  C   UNL     1       6.872  -4.584   3.352  0.00  0.00    +0.012 A 
ATOM     20  C   UNL     1       5.534  -4.590   3.699  0.00  0.00    +0.055 A 
ATOM     21  C   UNL     1       4.577  -4.902   2.752  0.00  0.00    +0.016 A 
BRANCH  20  22
ATOM     22  C   UNL     1       5.119  -4.251   5.107  0.00  0.00    +0.417 C 
ATOM     23  F   UNL     1       6.255  -3.969   5.873  0.00  0.00    -0.166 F 
ATOM     24  F   UNL     1       4.279  -3.132   5.090  0.00  0.00    -0.166 F 
ATOM     25  F   UNL     1       4.437  -5.337   5.666  0.00  0.00    -0.166 F 
ENDBRANCH  20  22
ENDBRANCH  15  16
ENDBRANCH  14  15
ENDBRANCH   5  14
BRANCH   2  26
ATOM     26  C   UNL     1      -0.297  -4.354  -4.249  0.00  0.00    +0.130 C 
BRANCH  26  27
ATOM     27  C   UNL     1      -1.675  -4.178  -3.665  0.00  0.00    +0.033 A 
ATOM     28  C   UNL     1      -2.123  -2.945  -3.344  0.00  0.00    +0.091 A 
ATOM     29  C   UNL     1      -3.421  -2.804  -2.797  0.00  0.00    +0.254 A 
ATOM     30  O   UNL     1      -3.847  -1.702  -2.500  0.00  0.00    -0.268 OA
ATOM     31  N   UNL     1      -4.182  -3.901  -2.609  0.00  0.00    -0.275 N 
ATOM     32  H   UNL     1      -5.073  -3.813  -2.235  0.00  0.00    +0.173 HD
ATOM     33  C   UNL     1      -3.711  -5.118  -2.938  0.00  0.00    +0.327 A 
ATOM     34  O   UNL     1      -4.408  -6.098  -2.762  0.00  0.00    -0.247 OA
ATOM     35  N   UNL     1      -2.481  -5.265  -3.463  0.00  0.00    -0.311 N 
ATOM     36  H   UNL     1      -2.161  -6.150  -3.697  0.00  0.00    +0.170 HD
ENDBRANCH  26  27
ENDBRANCH   2  26
TORSDOF 8
