REMARK  Name = ZINC22108289
REMARK  12 active torsions:
REMARK  status: ('A' for Active; 'I' for Inactive)
REMARK    1  A    between atoms: C_1  and  C_2
REMARK    2  A    between atoms: C_5  and  N_8
REMARK    3  A    between atoms: C_9  and  C_13
REMARK    4  A    between atoms: C_13  and  O_14
REMARK    5  A    between atoms: O_14  and  C_15
REMARK    6  A    between atoms: C_18  and  C_23
REMARK    7  A    between atoms: C_20  and  O_21
REMARK    8  A    between atoms: O_21  and  C_22
REMARK    9  A    between atoms: C_23  and  N_24
REMARK   10  A    between atoms: N_24  and  C_25
REMARK   11  A    between atoms: C_25  and  C_26
REMARK   12  A    between atoms: C_26  and  C_27
REMARK                            x       y       z     vdW  Elec       q    Type
REMARK                         _______ _______ _______ _____ _____    ______ ____
ROOT
ATOM      1  C   UNL     1      -6.926  -4.687  -2.594  0.00  0.00    +0.163 A 
ATOM      2  C   UNL     1      -5.628  -5.151  -2.733  0.00  0.00    +0.049 A 
ATOM      3  C   UNL     1      -4.574  -4.256  -2.767  0.00  0.00    +0.005 A 
ATOM      4  C   UNL     1      -4.812  -2.899  -2.652  0.00  0.00    -0.061 A 
ATOM      5  C   UNL     1      -6.105  -2.430  -2.513  0.00  0.00    +0.051 A 
ATOM      6  C   UNL     1      -7.166  -3.321  -2.483  0.00  0.00    +0.162 A 
ENDROOT
BRANCH   6   7
ATOM      7  O   UNL     1      -8.438  -2.861  -2.346  0.00  0.00    -0.491 OA
ATOM      8  C   UNL     1      -8.609  -1.446  -2.238  0.00  0.00    +0.277 C 
ENDBRANCH   6   7
BRANCH   1   9
ATOM      9  O   UNL     1      -7.964  -5.566  -2.564  0.00  0.00    -0.481 OA
BRANCH   9  10
ATOM     10  C   UNL     1      -7.643  -6.953  -2.683  0.00  0.00    +0.307 C 
BRANCH  10  12
ATOM     11  N   UNL     1      -9.434  -8.364  -1.537  0.00  0.00    -0.194 N 
ATOM     12  C   UNL     1      -8.909  -7.768  -2.630  0.00  0.00    +0.194 A 
ATOM     13  N   UNL     1      -9.702  -8.034  -3.635  0.00  0.00    -0.109 NA
ATOM     14  N   UNL     1     -10.694  -8.754  -3.251  0.00  0.00    -0.023 NA
ATOM     15  N   UNL     1     -10.606  -8.995  -1.988  0.00  0.00    -0.039 NA
BRANCH  11  20
ATOM     16  C   UNL     1      -7.354  -8.318   3.744  0.00  0.00    +0.044 C 
ATOM     17  C   UNL     1      -7.906  -8.330   2.342  0.00  0.00    -0.050 A 
ATOM     18  C   UNL     1      -7.898  -7.171   1.587  0.00  0.00    +0.005 A 
ATOM     19  C   UNL     1      -8.404  -7.179   0.302  0.00  0.00    +0.028 A 
ATOM     20  C   UNL     1      -8.920  -8.352  -0.232  0.00  0.00    +0.069 A 
ATOM     21  C   UNL     1      -8.932  -9.512   0.530  0.00  0.00    +0.028 A 
ATOM     22  C   UNL     1      -8.420  -9.499   1.813  0.00  0.00    +0.005 A 
ENDBRANCH  11  20
ENDBRANCH  10  12
ENDBRANCH   9  10
ENDBRANCH   1   9
BRANCH   4  23
ATOM     23  C   UNL     1      -3.660  -1.928  -2.684  0.00  0.00    -0.047 C 
BRANCH  23  24
ATOM     24  N   UNL     1      -3.170  -1.704  -1.317  0.00  0.00    +0.382 N 
ATOM     25  H   UNL     1      -3.981  -1.290  -0.701  0.00  0.00    -0.085 HD
ATOM     26  H   UNL     1      -2.833  -2.659  -0.887  0.00  0.00    -0.085 HD
BRANCH  24  27
ATOM     27  C   UNL     1      -2.044  -0.761  -1.310  0.00  0.00    -0.077 C 
BRANCH  27  28
ATOM     28  C   UNL     1      -1.562  -0.553   0.128  0.00  0.00    +0.018 C 
BRANCH  28  29
ATOM     29  C   UNL     1      -0.407   0.415   0.135  0.00  0.00    -0.024 A 
ATOM     30  C   UNL     1       0.898   0.100   0.122  0.00  0.00    +0.087 A 
ATOM     31  N   UNL     1       1.653   1.241   0.136  0.00  0.00    -0.360 N 
ATOM     32  H   UNL     1       2.751   1.174   0.128  0.00  0.00    +0.165 HD
ATOM     33  C   UNL     1       0.832   2.346   0.159  0.00  0.00    +0.047 A 
ATOM     34  C   UNL     1      -0.495   1.877   0.160  0.00  0.00    +0.003 A 
ATOM     35  C   UNL     1      -1.555   2.785   0.186  0.00  0.00    +0.010 A 
ATOM     36  C   UNL     1      -1.298   4.127   0.202  0.00  0.00    +0.001 A 
ATOM     37  C   UNL     1       0.009   4.595   0.201  0.00  0.00    +0.002 A 
ATOM     38  C   UNL     1       1.070   3.716   0.180  0.00  0.00    +0.026 A 
ENDBRANCH  28  29
ENDBRANCH  27  28
ENDBRANCH  24  27
ENDBRANCH  23  24
ENDBRANCH   4  23
TORSDOF 10
