REMARK  Name = ZINC42054512
REMARK  5 active torsions:
REMARK  status: ('A' for Active; 'I' for Inactive)
REMARK    1  A    between atoms: C_1  and  C_2
REMARK    2  A    between atoms: C_5  and  C_7
REMARK    3  A    between atoms: C_7  and  N_8
REMARK    4  A    between atoms: C_9  and  C_11
REMARK    5  A    between atoms: N_13  and  C_14
REMARK                            x       y       z     vdW  Elec       q    Type
REMARK                         _______ _______ _______ _____ _____    ______ ____
ROOT
ATOM      1  C   UNL     1       4.159   0.765   6.294  0.00  0.00    +0.303 C 
ATOM      2  O   UNL     1       5.124   1.123   6.938  0.00  0.00    -0.265 OA
ATOM      3  N   UNL     1       3.565  -0.413   6.568  0.00  0.00    -0.278 N 
ATOM      4  H   UNL     1       2.754  -0.668   6.100  0.00  0.00    +0.155 HD
ENDROOT
BRANCH   3   5
ATOM      5  C   UNL     1       4.117  -1.268   7.527  0.00  0.00    +0.038 A 
ATOM      6  C   UNL     1       4.050  -2.644   7.351  0.00  0.00    +0.027 A 
ATOM      7  C   UNL     1       4.594  -3.491   8.298  0.00  0.00    +0.051 A 
ATOM      8  C   UNL     1       5.206  -2.970   9.424  0.00  0.00    +0.167 A 
ATOM      9  C   UNL     1       5.276  -1.588   9.603  0.00  0.00    +0.169 A 
ATOM     10  C   UNL     1       4.736  -0.741   8.653  0.00  0.00    +0.073 A 
ATOM     11  O   UNL     1       5.928  -1.340  10.784  0.00  0.00    -0.447 OA
ATOM     12  C   UNL     1       5.789  -2.565  11.517  0.00  0.00    +0.254 C 
ATOM     13  O   UNL     1       5.812  -3.573  10.496  0.00  0.00    -0.448 OA
ATOM     14  C   UNL     1       4.473  -2.597  12.301  0.00  0.00    +0.093 C 
ATOM     15  C   UNL     1       4.829  -3.371  13.597  0.00  0.00    +0.008 C 
ATOM     16  C   UNL     1       6.267  -2.885  13.906  0.00  0.00    +0.008 C 
ATOM     17  C   UNL     1       6.930  -2.752  12.516  0.00  0.00    +0.093 C 
ENDBRANCH   3   5
BRANCH   1  19
ATOM     18  N   UNL     1       4.224   2.810   4.925  0.00  0.00    -0.307 N 
ATOM     19  C   UNL     1       3.630   1.632   5.199  0.00  0.00    +0.299 C 
ATOM     20  O   UNL     1       2.665   1.275   4.556  0.00  0.00    -0.265 OA
ATOM     21  H   UNL     1       4.995   3.095   5.439  0.00  0.00    +0.149 HD
BRANCH  18  22
ATOM     22  C   UNL     1       3.705   3.660   3.850  0.00  0.00    +0.108 C 
BRANCH  22  26
ATOM     23  C   UNL     1       3.108   5.520   1.649  0.00  0.00    +0.008 C 
ATOM     24  C   UNL     1       4.244   5.896   2.604  0.00  0.00    -0.009 C 
ATOM     25  C   UNL     1       3.866   6.265   4.040  0.00  0.00    +0.009 C 
ATOM     26  C   UNL     1       4.553   4.929   3.748  0.00  0.00    +0.009 C 
ENDBRANCH  22  26
ENDBRANCH  18  22
ENDBRANCH   1  19
TORSDOF 4
