REMARK  Name = ZINC12483426
REMARK  7 active torsions:
REMARK  status: ('A' for Active; 'I' for Inactive)
REMARK    1  A    between atoms: C_4  and  C_7
REMARK    2  A    between atoms: C_7  and  C_8
REMARK    3  A    between atoms: N_11  and  C_14
REMARK    4  A    between atoms: C_16  and  O_35
REMARK    5  A    between atoms: C_18  and  N_27
REMARK    6  A    between atoms: N_27  and  C_28
REMARK    7  A    between atoms: C_28  and  C_29
REMARK                            x       y       z     vdW  Elec       q    Type
REMARK                         _______ _______ _______ _____ _____    ______ ____
ROOT
ATOM      1  C   UNL     1       6.127   1.173   5.462  0.00  0.00    +0.019 C 
ATOM      2  C   UNL     1       7.553   1.729   5.538  0.00  0.00    +0.125 C 
ATOM      3  C   UNL     1       8.441   0.982   4.537  0.00  0.00    +0.112 C 
ATOM      4  C   UNL     1       8.281  -0.529   4.773  0.00  0.00    +0.166 C 
ATOM      5  C   UNL     1       8.367  -0.779   6.296  0.00  0.00    +0.196 C 
ATOM      6  O   UNL     1       7.010  -0.678   6.766  0.00  0.00    -0.350 OA
ATOM      7  C   UNL     1       6.180  -0.356   5.598  0.00  0.00    +0.240 C 
ATOM      8  O   UNL     1       6.907  -0.867   4.456  0.00  0.00    -0.346 OA
ENDROOT
BRANCH   1  12
ATOM      9  C   UNL     1       3.519   2.800   2.511  0.00  0.00    -0.010 C 
ATOM     10  C   UNL     1       4.930   3.373   2.667  0.00  0.00    -0.015 C 
ATOM     11  C   UNL     1       5.479   2.994   4.044  0.00  0.00    -0.078 C 
ATOM     12  N   UNL     1       5.527   1.532   4.170  0.00  0.00    +0.387 N 
ATOM     13  C   UNL     1       4.168   0.982   4.094  0.00  0.00    -0.078 C 
ATOM     14  C   UNL     1       3.569   1.283   2.719  0.00  0.00    -0.015 C 
ATOM     15  H   UNL     1       6.087   1.149   3.424  0.00  0.00    -0.081 HD
BRANCH   9  16
ATOM     16  C   UNL     1       2.994   3.107   1.107  0.00  0.00    +0.038 C 
BRANCH  16  20
ATOM     17  C   UNL     1       2.526   7.329   0.652  0.00  0.00    +0.000 A 
ATOM     18  C   UNL     1       3.727   6.727   0.324  0.00  0.00    +0.000 A 
ATOM     19  C   UNL     1       3.878   5.361   0.471  0.00  0.00    +0.003 A 
ATOM     20  C   UNL     1       2.829   4.596   0.947  0.00  0.00    -0.047 A 
ATOM     21  C   UNL     1       1.629   5.198   1.276  0.00  0.00    +0.003 A 
ATOM     22  C   UNL     1       1.477   6.564   1.127  0.00  0.00    +0.000 A 
ENDBRANCH  16  20
ENDBRANCH   9  16
ENDBRANCH   1  12
BRANCH   3  23
ATOM     23  N   UNL     1       8.031   1.318   3.167  0.00  0.00    -0.309 NA
ATOM     24  H   UNL     1       7.903   0.484   2.613  0.00  0.00    +0.122 HD
BRANCH  23  25
ATOM     25  C   UNL     1       8.997   2.227   2.535  0.00  0.00    +0.084 C 
BRANCH  25  26
ATOM     26  C   UNL     1       8.536   2.553   1.113  0.00  0.00    +0.003 C 
ATOM     27  C   UNL     1       8.562   1.280   0.264  0.00  0.00    +0.005 C 
ATOM     28  C   UNL     1       8.102   1.607  -1.158  0.00  0.00    +0.000 C 
ATOM     29  C   UNL     1       9.039   2.648  -1.771  0.00  0.00    +0.000 C 
ATOM     30  C   UNL     1       9.013   3.921  -0.922  0.00  0.00    +0.000 C 
ATOM     31  C   UNL     1       9.473   3.595   0.500  0.00  0.00    +0.005 C 
ENDBRANCH  25  26
ENDBRANCH  23  25
ENDBRANCH   3  23
BRANCH   2  32
ATOM     32  O   UNL     1       8.066   1.547   6.860  0.00  0.00    -0.392 OA
ATOM     33  H   UNL     1       8.967   1.877   6.981  0.00  0.00    +0.210 HD
ENDBRANCH   2  32
TORSDOF 7
