REMARK  Name = ZINC44737461
REMARK  6 active torsions:
REMARK  status: ('A' for Active; 'I' for Inactive)
REMARK    1  A    between atoms: C_1  and  C_2
REMARK    2  A    between atoms: C_9  and  C_11
REMARK    3  A    between atoms: C_11  and  C_13
REMARK    4  A    between atoms: C_11  and  N_14
REMARK    5  A    between atoms: C_15  and  C_17
REMARK    6  A    between atoms: C_28  and  C_30
REMARK                            x       y       z     vdW  Elec       q    Type
REMARK                         _______ _______ _______ _____ _____    ______ ____
ROOT
ATOM      1  C   UNL     1      -1.623  -8.782   1.003  0.00  0.00    +0.100 C 
ATOM      2  C   UNL     1      -0.558  -9.301   0.011  0.00  0.00    +0.121 C 
ATOM      3  N   UNL     1      -0.008 -10.516   0.655  0.00  0.00    -0.297 N 
ATOM      4  C   UNL     1      -1.187 -11.177   1.265  0.00  0.00    +0.115 C 
ATOM      5  C   UNL     1      -2.036 -10.017   1.821  0.00  0.00    -0.004 C 
ATOM      6  C   UNL     1      -1.726  -9.799   3.299  0.00  0.00    -0.010 C 
ATOM      7  C   UNL     1      -2.197 -11.017   4.099  0.00  0.00    -0.082 C 
ATOM      8  N   UNL     1      -3.639 -11.205   3.904  0.00  0.00    +0.379 N 
ATOM      9  C   UNL     1      -3.919 -11.505   2.495  0.00  0.00    -0.082 C 
ATOM     10  C   UNL     1      -3.521 -10.308   1.627  0.00  0.00    -0.010 C 
ATOM     11  C   UNL     1       1.275 -10.929   0.682  0.00  0.00    +0.260 C 
ATOM     12  O   UNL     1       1.571 -11.956   1.255  0.00  0.00    -0.271 OA
ATOM     13  H   UNL     1      -3.959 -11.970   4.479  0.00  0.00    -0.086 HD
ATOM     14  H   UNL     1      -4.126 -10.362   4.170  0.00  0.00    -0.086 HD
ENDROOT
BRANCH  11  15
ATOM     15  C   UNL     1       2.343 -10.114  -0.002  0.00  0.00    +0.296 C 
ATOM     16  C   UNL     1       2.102 -10.112  -1.517  0.00  0.00    +0.283 C 
ATOM     17  O   UNL     1       3.140  -9.343  -2.135  0.00  0.00    -0.484 OA
ATOM     18  C   UNL     1       4.413  -9.590  -1.723  0.00  0.00    +0.162 A 
ATOM     19  C   UNL     1       5.476  -9.166  -2.505  0.00  0.00    +0.049 A 
ATOM     20  C   UNL     1       6.775  -9.407  -2.098  0.00  0.00    +0.004 A 
ATOM     21  C   UNL     1       7.017 -10.071  -0.910  0.00  0.00    +0.004 A 
ATOM     22  C   UNL     1       5.962 -10.498  -0.127  0.00  0.00    +0.049 A 
ATOM     23  C   UNL     1       4.657 -10.261  -0.530  0.00  0.00    +0.163 A 
ATOM     24  O   UNL     1       3.627 -10.693   0.249  0.00  0.00    -0.473 OA
ENDBRANCH  11  15
BRANCH   1  26
ATOM     25  N   UNL     1      -1.820  -6.765   2.422  0.00  0.00    -0.305 N 
ATOM     26  C   UNL     1      -1.032  -7.728   1.904  0.00  0.00    +0.219 C 
ATOM     27  O   UNL     1       0.152  -7.747   2.164  0.00  0.00    -0.275 OA
ATOM     28  H   UNL     1      -2.768  -6.750   2.214  0.00  0.00    +0.149 HD
BRANCH  25  29
ATOM     29  C   UNL     1      -1.246  -5.741   3.298  0.00  0.00    +0.136 C 
ATOM     30  C   UNL     1      -0.669  -4.608   2.448  0.00  0.00    +0.036 C 
BRANCH  29  39
ATOM     31  C   UNL     1      -5.539  -2.736   8.582  0.00  0.00    +0.044 C 
ATOM     32  C   UNL     1      -5.086  -3.403   7.309  0.00  0.00    -0.048 A 
ATOM     33  C   UNL     1      -6.023  -3.776   6.356  0.00  0.00    +0.005 A 
ATOM     34  C   UNL     1      -5.632  -4.381   5.195  0.00  0.00    +0.030 A 
ATOM     35  C   UNL     1      -4.277  -4.630   4.961  0.00  0.00    +0.089 A 
ATOM     36  C   UNL     1      -3.328  -4.252   5.926  0.00  0.00    +0.067 A 
ATOM     37  C   UNL     1      -3.743  -3.633   7.097  0.00  0.00    +0.031 A 
ATOM     38  N   UNL     1      -2.100  -4.622   5.417  0.00  0.00    -0.340 N 
ATOM     39  C   UNL     1      -2.320  -5.194   4.202  0.00  0.00    +0.128 A 
ATOM     40  N   UNL     1      -3.593  -5.199   3.935  0.00  0.00    -0.231 NA
ATOM     41  H   UNL     1      -1.238  -4.497   5.845  0.00  0.00    +0.167 HD
ENDBRANCH  29  39
ENDBRANCH  25  29
ENDBRANCH   1  26
TORSDOF 4
