REMARK  Name = ZINC13899293
REMARK  7 active torsions:
REMARK  status: ('A' for Active; 'I' for Inactive)
REMARK    1  A    between atoms: C_1  and  C_2
REMARK    2  A    between atoms: C_4  and  C_26
REMARK    3  A    between atoms: C_6  and  N_8
REMARK    4  A    between atoms: C_9  and  C_25
REMARK    5  A    between atoms: C_11  and  C_14
REMARK    6  A    between atoms: C_12  and  C_13
REMARK    7  A    between atoms: N_21  and  C_24
REMARK                            x       y       z     vdW  Elec       q    Type
REMARK                         _______ _______ _______ _____ _____    ______ ____
ROOT
ATOM      1  N   UNL     1       4.350  -4.083   0.202  0.00  0.00    -0.317 N 
ATOM      2  C   UNL     1       2.984  -4.130   0.155  0.00  0.00    +0.022 A 
ATOM      3  C   UNL     1       2.500  -2.882   0.062  0.00  0.00    +0.031 A 
ATOM      4  C   UNL     1       3.665  -1.984   0.050  0.00  0.00    -0.003 A 
ATOM      5  C   UNL     1       4.778  -2.808   0.134  0.00  0.00    +0.028 A 
ATOM      6  C   UNL     1       6.215  -2.355   0.150  0.00  0.00    +0.064 C 
ATOM      7  C   UNL     1       2.153  -5.387   0.202  0.00  0.00    +0.064 C 
ENDROOT
BRANCH   4   8
ATOM      8  C   UNL     1       3.654  -0.572  -0.036  0.00  0.00    +0.028 C 
ATOM      9  C   UNL     1       2.831   0.059  -0.955  0.00  0.00    +0.100 C 
ATOM     10  C   UNL     1       2.646   1.522  -0.945  0.00  0.00    +0.257 C 
ATOM     11  O   UNL     1       3.213   2.218  -0.124  0.00  0.00    -0.270 OA
ATOM     12  N   UNL     1       1.830   2.068  -1.870  0.00  0.00    -0.236 N 
ATOM     13  C   UNL     1       1.198   1.313  -2.780  0.00  0.00    +0.315 C 
ATOM     14  O   UNL     1       0.481   1.867  -3.590  0.00  0.00    -0.252 OA
ATOM     15  N   UNL     1       1.320  -0.020  -2.848  0.00  0.00    -0.225 N 
ATOM     16  C   UNL     1       2.103  -0.702  -1.987  0.00  0.00    +0.259 C 
ATOM     17  O   UNL     1       2.206  -1.912  -2.059  0.00  0.00    -0.269 OA
ATOM     18  C   UNL     1       0.586  -0.754  -3.882  0.00  0.00    +0.143 C 
ATOM     19  H   UNL     1       1.697   3.029  -1.877  0.00  0.00    +0.159 HD
ENDBRANCH   4   8
BRANCH   1  25
ATOM     20  C   UNL     1       7.645  -6.697   2.751  0.00  0.00    +0.044 C 
ATOM     21  C   UNL     1       6.794  -6.494   1.524  0.00  0.00    -0.048 A 
ATOM     22  C   UNL     1       6.838  -7.414   0.492  0.00  0.00    +0.006 A 
ATOM     23  C   UNL     1       6.059  -7.231  -0.635  0.00  0.00    -0.048 A 
ATOM     24  C   UNL     1       5.234  -6.128  -0.735  0.00  0.00    +0.029 A 
ATOM     25  C   UNL     1       5.187  -5.203   0.299  0.00  0.00    +0.047 A 
ATOM     26  C   UNL     1       5.974  -5.386   1.428  0.00  0.00    +0.029 A 
ATOM     27  C   UNL     1       6.111  -8.236  -1.757  0.00  0.00    +0.044 C 
ENDBRANCH   1  25
TORSDOF 2
