REMARK  Name = ZINC12983804
REMARK  6 active torsions:
REMARK  status: ('A' for Active; 'I' for Inactive)
REMARK    1  A    between atoms: C_4  and  C_7
REMARK    2  A    between atoms: N_12  and  C_13
REMARK    3  A    between atoms: C_13  and  C_14
REMARK    4  A    between atoms: C_21  and  C_23
REMARK    5  A    between atoms: C_23  and  S_24
REMARK    6  A    between atoms: S_24  and  C_25
REMARK                            x       y       z     vdW  Elec       q    Type
REMARK                         _______ _______ _______ _____ _____    ______ ____
ROOT
ATOM      1  C   UNL     1       3.687  -0.761  -0.460  0.00  0.00    +0.080 A 
ATOM      2  C   UNL     1       3.743  -2.124  -0.543  0.00  0.00    +0.076 A 
ATOM      3  S   UNL     1       5.506  -2.392  -0.407  0.00  0.00    -0.060 S 
ATOM      4  C   UNL     1       5.981  -0.676  -0.255  0.00  0.00    +0.168 A 
ATOM      5  N   UNL     1       4.810  -0.071  -0.323  0.00  0.00    -0.224 NA
ATOM      6  N   UNL     1       7.248  -0.124  -0.109  0.00  0.00    -0.245 N 
ATOM      7  C   UNL     1       7.394   1.212  -0.009  0.00  0.00    +0.232 C 
ATOM      8  O   UNL     1       6.415   1.927   0.042  0.00  0.00    -0.274 OA
ENDROOT
BRANCH   1  12
ATOM      9  C   UNL     1      -0.054   1.250  -0.655  0.00  0.00    +0.000 A 
ATOM     10  C   UNL     1       1.113   1.978  -0.511  0.00  0.00    +0.001 A 
ATOM     11  C   UNL     1       2.330   1.331  -0.447  0.00  0.00    +0.010 A 
ATOM     12  C   UNL     1       2.382  -0.059  -0.527  0.00  0.00    +0.001 A 
ATOM     13  C   UNL     1       1.203  -0.788  -0.672  0.00  0.00    +0.010 A 
ATOM     14  C   UNL     1      -0.009  -0.131  -0.736  0.00  0.00    +0.001 A 
ENDBRANCH   1  12
BRANCH   6  15
ATOM     15  C   UNL     1       8.426  -0.995  -0.063  0.00  0.00    +0.150 C 
BRANCH  15  16
ATOM     16  C   UNL     1       8.871  -1.311  -1.468  0.00  0.00    -0.029 A 
ATOM     17  C   UNL     1       8.271  -2.343  -2.167  0.00  0.00    +0.008 A 
ATOM     18  C   UNL     1       8.678  -2.634  -3.455  0.00  0.00    +0.038 A 
ATOM     19  C   UNL     1       9.687  -1.891  -4.046  0.00  0.00    +0.123 A 
ATOM     20  C   UNL     1      10.286  -0.859  -3.345  0.00  0.00    +0.038 A 
ATOM     21  C   UNL     1       9.874  -0.566  -2.059  0.00  0.00    +0.008 A 
ATOM     22  F   UNL     1      10.086  -2.175  -5.305  0.00  0.00    -0.205 F 
ENDBRANCH  15  16
ENDBRANCH   6  15
BRANCH   7  23
ATOM     23  C   UNL     1       8.773   1.818   0.040  0.00  0.00    +0.173 C 
BRANCH  23  24
ATOM     24  S   UNL     1       8.639   3.627   0.039  0.00  0.00    -0.075 S 
BRANCH  24  25
ATOM     25  C   UNL     1      10.311   4.178   0.097  0.00  0.00    +0.210 A 
ATOM     26  N   UNL     1      10.709   5.456   0.118  0.00  0.00    -0.188 NA
ATOM     27  C   UNL     1      12.023   5.510   0.162  0.00  0.00    +0.209 A 
ATOM     28  N   UNL     1      12.492   4.245   0.170  0.00  0.00    -0.246 N 
ATOM     29  H   UNL     1      13.422   3.971   0.199  0.00  0.00    +0.192 HD
ATOM     30  N   UNL     1      11.369   3.403   0.132  0.00  0.00    -0.144 NA
ATOM     31  N   UNL     1      12.789   6.661   0.194  0.00  0.00    -0.328 N 
ATOM     32  H   UNL     1      12.358   7.530   0.186  0.00  0.00    +0.145 HD
ATOM     33  H   UNL     1      13.756   6.599   0.226  0.00  0.00    +0.145 HD
ENDBRANCH  24  25
ENDBRANCH  23  24
ENDBRANCH   7  23
TORSDOF 6
