REMARK  Name = ZINC24844145
REMARK  8 active torsions:
REMARK  status: ('A' for Active; 'I' for Inactive)
REMARK    1  A    between atoms: C_1  and  C_2
REMARK    2  A    between atoms: C_2  and  O_3
REMARK    3  A    between atoms: O_3  and  C_4
REMARK    4  A    between atoms: C_11  and  C_18
REMARK    5  A    between atoms: C_13  and  O_14
REMARK    6  A    between atoms: C_18  and  S_19
REMARK    7  A    between atoms: S_19  and  C_20
REMARK    8  A    between atoms: N_24  and  C_25
REMARK                            x       y       z     vdW  Elec       q    Type
REMARK                         _______ _______ _______ _____ _____    ______ ____
ROOT
ATOM      1  C   UNL     1       9.444   4.510   4.756  0.00  0.00    +0.405 C 
ATOM      2  O   UNL     1       9.759   5.139   3.765  0.00  0.00    -0.226 OA
ATOM      3  N   UNL     1       8.343   3.732   4.738  0.00  0.00    -0.251 N 
ATOM      4  C   UNL     1       7.629   3.561   3.552  0.00  0.00    +0.040 A 
ATOM      5  C   UNL     1       6.243   3.408   3.594  0.00  0.00    +0.024 A 
ATOM      6  C   UNL     1       5.531   3.240   2.442  0.00  0.00    +0.013 A 
ATOM      7  C   UNL     1       6.195   3.225   1.210  0.00  0.00    +0.022 A 
ATOM      8  C   UNL     1       5.457   3.039  -0.041  0.00  0.00    -0.020 A 
ATOM      9  C   UNL     1       6.158   3.028  -1.205  0.00  0.00    +0.092 A 
ATOM     10  C   UNL     1       7.559   3.188  -1.181  0.00  0.00    +0.285 A 
ATOM     11  O   UNL     1       8.230   3.353  -0.030  0.00  0.00    -0.425 OA
ATOM     12  C   UNL     1       7.594   3.373   1.161  0.00  0.00    +0.141 A 
ATOM     13  C   UNL     1       8.303   3.543   2.340  0.00  0.00    +0.070 A 
ATOM     14  H   UNL     1       8.008   3.232   5.659  0.00  0.00    +0.158 HD
ENDROOT
BRANCH  10  15
ATOM     15  O   UNL     1       8.175   3.176  -2.231  0.00  0.00    -0.480 OA
ATOM     16  H   UNL     1       9.268   3.300  -2.229  0.00  0.00    +0.295 HD
ENDBRANCH  10  15
BRANCH   1  17
ATOM     17  O   UNL     1      10.193   4.591   5.871  0.00  0.00    -0.450 OA
BRANCH  17  19
ATOM     18  C   UNL     1      12.084   5.413   7.168  0.00  0.00    +0.048 C 
ATOM     19  C   UNL     1      11.364   5.449   5.819  0.00  0.00    +0.230 C 
ENDBRANCH  17  19
ENDBRANCH   1  17
BRANCH   8  20
ATOM     20  C   UNL     1       3.959   2.870  -0.038  0.00  0.00    +0.113 C 
BRANCH  20  21
ATOM     21  S   UNL     1       3.550   1.112   0.093  0.00  0.00    -0.081 S 
BRANCH  21  22
ATOM     22  C   UNL     1       1.791   1.205   0.074  0.00  0.00    +0.196 A 
ATOM     23  N   UNL     1       1.067   2.297  -0.015  0.00  0.00    -0.122 NA
ATOM     24  N   UNL     1      -0.182   1.997  -0.001  0.00  0.00    -0.137 NA
ATOM     25  C   UNL     1      -0.332   0.706   0.097  0.00  0.00    +0.230 A 
ATOM     26  N   UNL     1       0.920   0.153   0.149  0.00  0.00    -0.277 N 
BRANCH  26  27
ATOM     27  C   UNL     1       1.241  -1.208   0.255  0.00  0.00    +0.051 A 
ATOM     28  C   UNL     1       2.155  -1.777  -0.621  0.00  0.00    +0.026 A 
ATOM     29  C   UNL     1       2.474  -3.117  -0.511  0.00  0.00    +0.003 A 
ATOM     30  C   UNL     1       1.877  -3.893   0.465  0.00  0.00    +0.020 A 
ATOM     31  C   UNL     1       0.962  -3.330   1.337  0.00  0.00    +0.043 A 
ATOM     32  C   UNL     1       0.643  -1.989   1.234  0.00  0.00    +0.046 A 
ATOM     33 CL   UNL     1       0.214  -4.309   2.560  0.00  0.00    -0.083 Cl
ENDBRANCH  26  27
ENDBRANCH  21  22
ENDBRANCH  20  21
ENDBRANCH   8  20
TORSDOF 7
