REMARK  Name = ZINC31167958
REMARK  12 active torsions:
REMARK  status: ('A' for Active; 'I' for Inactive)
REMARK    1  A    between atoms: C_1  and  C_2
REMARK    2  A    between atoms: C_7  and  C_36
REMARK    3  A    between atoms: C_14  and  O_19
REMARK    4  A    between atoms: C_16  and  C_18
REMARK    5  A    between atoms: O_19  and  C_20
REMARK    6  A    between atoms: C_22  and  O_35
REMARK    7  A    between atoms: C_24  and  O_34
REMARK    8  A    between atoms: C_26  and  O_33
REMARK    9  A    between atoms: C_28  and  C_31
REMARK   10  A    between atoms: C_31  and  O_32
REMARK   11  A    between atoms: C_36  and  C_37
REMARK   12  A    between atoms: C_36  and  C_38
REMARK                            x       y       z     vdW  Elec       q    Type
REMARK                         _______ _______ _______ _____ _____    ______ ____
ROOT
ATOM      1  C   UNL     1      -1.522  -2.023   3.588  0.00  0.00    +0.008 C 
ATOM      2  C   UNL     1      -1.568  -0.494   3.554  0.00  0.00    -0.003 C 
ATOM      3  C   UNL     1      -0.178   0.063   3.872  0.00  0.00    +0.078 C 
ATOM      4  C   UNL     1      -0.229   1.569   3.736  0.00  0.00    +0.137 C 
ATOM      5  O   UNL     1       0.146   2.289   4.630  0.00  0.00    -0.297 OA
ATOM      6  C   UNL     1      -0.767   2.143   2.444  0.00  0.00    +0.065 C 
ATOM      7  C   UNL     1      -2.109   1.495   2.125  0.00  0.00    +0.026 C 
ATOM      8  C   UNL     1      -2.011  -0.029   2.163  0.00  0.00    +0.003 C 
ATOM      9  C   UNL     1      -3.425  -0.585   1.908  0.00  0.00    +0.040 C 
ATOM     10  C   UNL     1      -4.294  -0.237   3.119  0.00  0.00    +0.147 C 
ATOM     11  C   UNL     1      -4.143   1.210   3.480  0.00  0.00    -0.048 C 
ATOM     12  C   UNL     1      -3.183   1.971   3.051  0.00  0.00    -0.021 C 
ATOM     13  C   UNL     1      -5.170   1.820   4.400  0.00  0.00    +0.041 C 
ENDROOT
BRANCH   6  14
ATOM     14  C   UNL     1       0.220   1.860   1.310  0.00  0.00    -0.006 C 
ATOM     15  C   UNL     1       1.566   2.511   1.631  0.00  0.00    +0.008 C 
ATOM     16  C   UNL     1      -0.327   2.437   0.003  0.00  0.00    +0.008 C 
ENDBRANCH   6  14
BRANCH  10  17
ATOM     17  O   UNL     1      -5.663  -0.504   2.807  0.00  0.00    -0.341 OA
BRANCH  17  18
ATOM     18  C   UNL     1      -6.118  -1.789   3.238  0.00  0.00    +0.282 C 
ATOM     19  C   UNL     1      -7.646  -1.843   3.156  0.00  0.00    +0.201 C 
ATOM     20  C   UNL     1      -8.078  -1.663   1.698  0.00  0.00    +0.179 C 
ATOM     21  C   UNL     1      -7.411  -2.743   0.841  0.00  0.00    +0.177 C 
ATOM     22  C   UNL     1      -5.892  -2.654   1.012  0.00  0.00    +0.178 C 
ATOM     23  O   UNL     1      -5.561  -2.799   2.395  0.00  0.00    -0.341 OA
BRANCH  21  24
ATOM     24  O   UNL     1      -7.864  -4.032   1.261  0.00  0.00    -0.386 OA
ATOM     25  H   UNL     1      -7.491  -4.936   0.758  0.00  0.00    +0.210 HD
ENDBRANCH  21  24
BRANCH  20  26
ATOM     26  O   UNL     1      -9.498  -1.785   1.602  0.00  0.00    -0.386 OA
ATOM     27  H   UNL     1      -9.994  -1.684   0.625  0.00  0.00    +0.210 HD
ENDBRANCH  20  26
BRANCH  19  28
ATOM     28  O   UNL     1      -8.204  -0.797   3.953  0.00  0.00    -0.384 OA
ATOM     29  H   UNL     1      -9.296  -0.678   4.018  0.00  0.00    +0.210 HD
ENDBRANCH  19  28
BRANCH  22  30
ATOM     30  C   UNL     1      -5.222  -3.768   0.207  0.00  0.00    +0.190 C 
BRANCH  30  31
ATOM     31  O   UNL     1      -3.802  -3.615   0.272  0.00  0.00    -0.392 OA
ATOM     32  H   UNL     1      -3.148  -4.328  -0.250  0.00  0.00    +0.210 HD
ENDBRANCH  30  31
ENDBRANCH  22  30
ENDBRANCH  17  18
ENDBRANCH  10  17
TORSDOF 8
