REMARK  Name = ZINC45699432
REMARK  3 active torsions:
REMARK  status: ('A' for Active; 'I' for Inactive)
REMARK    1  A    between atoms: C_1  and  C_2
REMARK    2  A    between atoms: C_7  and  S_15
REMARK    3  A    between atoms: S_15  and  C_16
REMARK                            x       y       z     vdW  Elec       q    Type
REMARK                         _______ _______ _______ _____ _____    ______ ____
ROOT
ATOM      1  C   UNL     1      -0.018   1.503   0.010  0.00  0.00    +0.044 C 
ATOM      2  C   UNL     1       0.002  -0.004   0.002  0.00  0.00    -0.038 A 
ATOM      3  C   UNL     1       0.006  -0.682  -1.168  0.00  0.00    +0.052 A 
ATOM      4  C   UNL     1       0.025  -2.097  -1.175  0.00  0.00    +0.162 A 
ATOM      5  N   UNL     1       0.032  -2.982  -2.155  0.00  0.00    -0.129 NA
ATOM      6  N   UNL     1       0.051  -4.172  -1.668  0.00  0.00    -0.122 NA
ATOM      7  C   UNL     1       0.056  -4.125  -0.354  0.00  0.00    +0.197 A 
ATOM      8  N   UNL     1       0.040  -2.809   0.004  0.00  0.00    -0.270 N 
ATOM      9  C   UNL     1       0.036  -2.159   1.225  0.00  0.00    +0.058 A 
ATOM     10  C   UNL     1       0.024  -0.753   1.262  0.00  0.00    +0.002 A 
ATOM     11  C   UNL     1       0.026  -0.090   2.493  0.00  0.00    +0.010 A 
ATOM     12  C   UNL     1       0.047  -0.820   3.661  0.00  0.00    +0.001 A 
ATOM     13  C   UNL     1       0.066  -2.206   3.621  0.00  0.00    +0.002 A 
ATOM     14  C   UNL     1       0.051  -2.875   2.415  0.00  0.00    +0.027 A 
ENDROOT
BRANCH   7  15
ATOM     15  S   UNL     1       0.080  -5.506   0.740  0.00  0.00    -0.073 S 
BRANCH  15  16
ATOM     16  C   UNL     1       0.095  -6.943  -0.366  0.00  0.00    +0.140 C 
ATOM     17  C   UNL     1       0.233  -8.226   0.458  0.00  0.00    +0.024 C 
ATOM     18  C   UNL     1       0.840  -9.339  -0.376  0.00  0.00    +0.003 C 
ATOM     19  C   UNL     1      -0.052  -9.811  -1.510  0.00  0.00    +0.019 C 
ATOM     20  C   UNL     1      -0.220  -8.716  -2.564  0.00  0.00    +0.104 C 
ATOM     21  N   UNL     1      -1.338  -7.845  -2.165  0.00  0.00    -0.314 N 
ATOM     22  C   UNL     1      -1.204  -7.002  -1.142  0.00  0.00    +0.226 C 
ATOM     23  O   UNL     1      -2.129  -6.284  -0.827  0.00  0.00    -0.275 OA
ATOM     24  H   UNL     1      -2.176  -7.883  -2.653  0.00  0.00    +0.149 HD
ENDBRANCH  15  16
ENDBRANCH   7  15
TORSDOF 2
