REMARK  Name = ZINC39702987
REMARK  7 active torsions:
REMARK  status: ('A' for Active; 'I' for Inactive)
REMARK    1  A    between atoms: C_4  and  N_7
REMARK    2  A    between atoms: C_13  and  C_15
REMARK    3  A    between atoms: C_15  and  S_16
REMARK    4  A    between atoms: S_16  and  C_17
REMARK    5  A    between atoms: C_21  and  N_24
REMARK    6  A    between atoms: C_25  and  C_27
REMARK    7  A    between atoms: C_27  and  C_28
REMARK                            x       y       z     vdW  Elec       q    Type
REMARK                         _______ _______ _______ _____ _____    ______ ____
ROOT
ATOM      1  C   UNL     1       8.605  -6.310   1.292  0.00  0.00    +0.188 C 
ATOM      2  N   UNL     1       7.839  -6.713   2.513  0.00  0.00    -0.232 NA
ATOM      3  N   UNL     1       7.304  -8.059   2.345  0.00  0.00    -0.226 NA
ATOM      4  C   UNL     1       6.590  -8.212   1.047  0.00  0.00    +0.217 C 
ATOM      5  S   UNL     1       7.485  -6.992  -0.007  0.00  0.00    -0.091 S 
ATOM      6  H   UNL     1       7.102  -6.053   2.711  0.00  0.00    +0.143 HD
ATOM      7  H   UNL     1       8.031  -8.752   2.441  0.00  0.00    +0.143 HD
ENDROOT
BRANCH   4   8
ATOM      8  N   UNL     1       5.175  -7.857   1.179  0.00  0.00    -0.290 N 
ATOM      9  C   UNL     1       4.299  -8.209   0.218  0.00  0.00    +0.219 C 
ATOM     10  O   UNL     1       4.681  -8.821  -0.757  0.00  0.00    -0.275 OA
ATOM     11  H   UNL     1       4.869  -7.368   1.959  0.00  0.00    +0.151 HD
BRANCH   9  12
ATOM     12  C   UNL     1       2.843  -7.844   0.355  0.00  0.00    +0.133 C 
BRANCH  12  13
ATOM     13  C   UNL     1       2.083  -8.350  -0.844  0.00  0.00    -0.014 A 
ATOM     14  C   UNL     1       1.528  -9.695  -1.020  0.00  0.00    +0.003 A 
ATOM     15  C   UNL     1       1.509 -10.847  -0.232  0.00  0.00    +0.010 A 
ATOM     16  C   UNL     1       0.890 -11.974  -0.695  0.00  0.00    +0.001 A 
ATOM     17  C   UNL     1       0.281 -11.983  -1.942  0.00  0.00    +0.002 A 
ATOM     18  C   UNL     1       0.288 -10.857  -2.735  0.00  0.00    +0.026 A 
ATOM     19  C   UNL     1       0.912  -9.698  -2.285  0.00  0.00    +0.047 A 
ATOM     20  N   UNL     1       1.087  -8.444  -2.825  0.00  0.00    -0.360 N 
ATOM     21  C   UNL     1       1.781  -7.653  -1.951  0.00  0.00    +0.087 A 
ATOM     22  H   UNL     1       0.762  -8.162  -3.695  0.00  0.00    +0.165 HD
ENDBRANCH  12  13
ENDBRANCH   9  12
ENDBRANCH   4   8
BRANCH   1  23
ATOM     23  S   UNL     1       8.747  -4.506   1.163  0.00  0.00    -0.121 S 
BRANCH  23  24
ATOM     24  C   UNL     1       7.029  -3.927   1.211  0.00  0.00    +0.167 C 
BRANCH  24  31
ATOM     25  N   UNL     1       3.620  -0.649  -0.036  0.00  0.00    -0.327 N 
ATOM     26  C   UNL     1       4.886   0.088  -0.149  0.00  0.00    +0.124 C 
ATOM     27  C   UNL     1       5.786  -0.301   1.030  0.00  0.00    +0.126 C 
ATOM     28  N   UNL     1       5.827  -1.767   1.127  0.00  0.00    -0.298 N 
ATOM     29  C   UNL     1       4.560  -2.504   1.239  0.00  0.00    +0.126 C 
ATOM     30  C   UNL     1       3.660  -2.115   0.066  0.00  0.00    +0.124 C 
ATOM     31  C   UNL     1       7.003  -2.423   1.111  0.00  0.00    +0.226 C 
ATOM     32  O   UNL     1       8.042  -1.804   1.018  0.00  0.00    -0.275 OA
BRANCH  25  36
ATOM     33  C   UNL     1      -0.017   1.379   0.011  0.00  0.00    +0.000 A 
ATOM     34  C   UNL     1       0.002  -0.004  -0.013  0.00  0.00    +0.002 A 
ATOM     35  C   UNL     1       1.206  -0.680  -0.030  0.00  0.00    +0.023 A 
ATOM     36  C   UNL     1       2.400   0.031  -0.021  0.00  0.00    +0.030 A 
ATOM     37  C   UNL     1       2.377   1.420   0.004  0.00  0.00    +0.023 A 
ATOM     38  C   UNL     1       1.170   2.089   0.021  0.00  0.00    +0.002 A 
ENDBRANCH  25  36
ENDBRANCH  24  31
ENDBRANCH  23  24
ENDBRANCH   1  23
TORSDOF 7
