REMARK  Name = ZINC27210175
REMARK  7 active torsions:
REMARK  status: ('A' for Active; 'I' for Inactive)
REMARK    1  A    between atoms: C_1  and  C_2
REMARK    2  A    between atoms: C_5  and  N_9
REMARK    3  A    between atoms: C_10  and  C_12
REMARK    4  A    between atoms: C_12  and  C_14
REMARK    5  A    between atoms: C_12  and  N_15
REMARK    6  A    between atoms: N_18  and  S_21
REMARK    7  A    between atoms: S_21  and  C_24
REMARK                            x       y       z     vdW  Elec       q    Type
REMARK                         _______ _______ _______ _____ _____    ______ ____
ROOT
ATOM      1  N   UNL     1      -0.465   1.274   1.407  0.00  0.00    +0.389 N 
ATOM      2  C   UNL     1       0.560   0.831   2.362  0.00  0.00    -0.060 C 
ATOM      3  C   UNL     1       0.151   1.251   3.777  0.00  0.00    +0.091 C 
ATOM      4  N   UNL     1      -1.205   0.747   4.042  0.00  0.00    -0.180 NA
ATOM      5  C   UNL     1      -2.259   1.035   3.057  0.00  0.00    +0.091 C 
ATOM      6  C   UNL     1      -1.756   0.623   1.670  0.00  0.00    -0.060 C 
ATOM      7  H   UNL     1      -0.603   2.357   1.544  0.00  0.00    -0.081 HD
ENDROOT
BRANCH   4   8
ATOM      8  S   UNL     1      -1.536  -0.123   5.412  0.00  0.00    +0.061 S 
ATOM      9  O   UNL     1      -0.550   0.236   6.369  0.00  0.00    -0.153 OA
ATOM     10  O   UNL     1      -2.928   0.024   5.659  0.00  0.00    -0.153 OA
BRANCH   8  11
ATOM     11  C   UNL     1      -1.270  -1.822   5.027  0.00  0.00    +0.107 A 
ATOM     12  C   UNL     1      -2.310  -2.591   4.540  0.00  0.00    +0.031 A 
ATOM     13  C   UNL     1      -2.101  -3.923   4.233  0.00  0.00    +0.042 A 
ATOM     14  C   UNL     1      -0.853  -4.489   4.424  0.00  0.00    +0.142 A 
ATOM     15  C   UNL     1       0.188  -3.719   4.917  0.00  0.00    +0.078 A 
ATOM     16  C   UNL     1      -0.022  -2.385   5.218  0.00  0.00    +0.051 A 
ATOM     17 CL   UNL     1       1.755  -4.427   5.157  0.00  0.00    -0.081 Cl
ATOM     18  F   UNL     1      -0.649  -5.792   4.129  0.00  0.00    -0.204 F 
ENDBRANCH   8  11
ENDBRANCH   4   8
BRANCH   1  19
ATOM     19  C   UNL     1      -0.031   1.043   0.023  0.00  0.00    +0.017 C 
ATOM     20  C   UNL     1      -0.140  -0.447  -0.304  0.00  0.00    -0.004 C 
BRANCH  19  22
ATOM     21  N   UNL     1      -0.613   1.881  -2.230  0.00  0.00    -0.286 N 
ATOM     22  C   UNL     1      -0.908   1.829  -0.916  0.00  0.00    +0.203 C 
ATOM     23  O   UNL     1      -1.881   2.415  -0.490  0.00  0.00    -0.277 OA
ATOM     24  H   UNL     1       0.223   1.287  -2.630  0.00  0.00    +0.155 HD
BRANCH  21  29
ATOM     25  C   UNL     1      -3.675   5.166  -5.699  0.00  0.00    +0.044 C 
ATOM     26  C   UNL     1      -2.861   4.293  -4.779  0.00  0.00    -0.049 A 
ATOM     27  C   UNL     1      -3.468   3.672  -3.702  0.00  0.00    +0.005 A 
ATOM     28  C   UNL     1      -2.725   2.872  -2.856  0.00  0.00    +0.025 A 
ATOM     29  C   UNL     1      -1.368   2.691  -3.086  0.00  0.00    +0.052 A 
ATOM     30  C   UNL     1      -0.760   3.321  -4.165  0.00  0.00    +0.062 A 
ATOM     31  C   UNL     1      -1.510   4.116  -5.011  0.00  0.00    +0.025 A 
ATOM     32 CL   UNL     1       0.938   3.104  -4.455  0.00  0.00    -0.082 Cl
ENDBRANCH  21  29
ENDBRANCH  19  22
ENDBRANCH   1  19
TORSDOF 5
