REMARK  Name = ZINC13513879
REMARK  12 active torsions:
REMARK  status: ('A' for Active; 'I' for Inactive)
REMARK    1  A    between atoms: C_1  and  C_2
REMARK    2  A    between atoms: C_4  and  C_39
REMARK    3  A    between atoms: C_6  and  N_8
REMARK    4  A    between atoms: C_9  and  C_11
REMARK    5  A    between atoms: C_12  and  N_38
REMARK    6  A    between atoms: C_19  and  C_21
REMARK    7  A    between atoms: C_24  and  O_29
REMARK    8  A    between atoms: C_25  and  O_27
REMARK    9  A    between atoms: O_27  and  C_28
REMARK   10  A    between atoms: O_29  and  C_30
REMARK   11  A    between atoms: C_34  and  C_36
REMARK   12  A    between atoms: C_34  and  C_37
REMARK                            x       y       z     vdW  Elec       q    Type
REMARK                         _______ _______ _______ _____ _____    ______ ____
ROOT
ATOM      1  C   UNL     1      -1.279   3.844   5.616  0.00  0.00    +0.097 A 
ATOM      2  C   UNL     1      -2.271   3.261   4.827  0.00  0.00    +0.050 A 
ATOM      3  C   UNL     1      -1.903   2.548   3.699  0.00  0.00    +0.014 A 
ATOM      4  C   UNL     1      -0.553   2.467   3.432  0.00  0.00    +0.076 A 
ATOM      5  S   UNL     1       0.209   3.376   4.744  0.00  0.00    -0.067 S 
ATOM      6  N   UNL     1      -0.008   1.811   2.360  0.00  0.00    -0.312 N 
ATOM      7  C   UNL     1      -0.848   1.454   1.330  0.00  0.00    +0.016 C 
ATOM      8  C   UNL     1      -2.189   1.483   1.468  0.00  0.00    +0.024 C 
ATOM      9  C   UNL     1      -2.879   1.861   2.757  0.00  0.00    +0.088 C 
ATOM     10  C   UNL     1      -3.025   1.141   0.386  0.00  0.00    +0.162 C 
ATOM     11  O   UNL     1      -4.230   1.163   0.540  0.00  0.00    -0.292 OA
ATOM     12  C   UNL     1      -2.464   0.752  -0.951  0.00  0.00    +0.086 C 
ATOM     13  C   UNL     1      -1.103   1.430  -1.141  0.00  0.00    -0.023 C 
ATOM     14  C   UNL     1      -0.203   1.033   0.031  0.00  0.00    +0.058 C 
ATOM     15  C   UNL     1      -1.283   2.950  -1.161  0.00  0.00    +0.011 C 
ATOM     16  C   UNL     1      -0.473   0.968  -2.456  0.00  0.00    +0.011 C 
ATOM     17  H   UNL     1       0.940   1.606   2.328  0.00  0.00    +0.152 HD
ENDROOT
BRANCH   9  18
ATOM     18  C   UNL     1      -3.414   0.618   3.420  0.00  0.00    -0.032 A 
ATOM     19  C   UNL     1      -2.549  -0.398   3.781  0.00  0.00    +0.008 A 
ATOM     20  C   UNL     1      -3.035  -1.538   4.394  0.00  0.00    +0.050 A 
ATOM     21  C   UNL     1      -4.392  -1.669   4.638  0.00  0.00    +0.162 A 
ATOM     22  C   UNL     1      -5.264  -0.648   4.269  0.00  0.00    +0.162 A 
ATOM     23  C   UNL     1      -4.770   0.494   3.660  0.00  0.00    +0.054 A 
BRANCH  22  24
ATOM     24  O   UNL     1      -6.597  -0.772   4.507  0.00  0.00    -0.491 OA
ATOM     25  C   UNL     1      -7.432   0.315   4.103  0.00  0.00    +0.277 C 
ENDBRANCH  22  24
BRANCH  21  26
ATOM     26  O   UNL     1      -4.872  -2.792   5.236  0.00  0.00    -0.491 OA
ATOM     27  C   UNL     1      -3.920  -3.798   5.586  0.00  0.00    +0.277 C 
ENDBRANCH  21  26
ENDBRANCH   9  18
BRANCH   1  29
ATOM     28  N   UNL     1      -0.320   5.087   7.416  0.00  0.00    -0.281 N 
ATOM     29  C   UNL     1      -1.415   4.606   6.794  0.00  0.00    +0.257 C 
ATOM     30  O   UNL     1      -2.523   4.830   7.251  0.00  0.00    -0.269 OA
ATOM     31  H   UNL     1       0.563   4.846   7.097  0.00  0.00    +0.155 HD
BRANCH  28  37
ATOM     32  C   UNL     1       1.346   6.688  11.755  0.00  0.00    +0.044 C 
ATOM     33  C   UNL     1       0.334   6.731  10.638  0.00  0.00    -0.048 A 
ATOM     34  C   UNL     1      -0.732   7.609  10.706  0.00  0.00    +0.006 A 
ATOM     35  C   UNL     1      -1.662   7.651   9.683  0.00  0.00    -0.048 A 
ATOM     36  C   UNL     1      -1.529   6.816   8.591  0.00  0.00    +0.026 A 
ATOM     37  C   UNL     1      -0.459   5.934   8.520  0.00  0.00    +0.034 A 
ATOM     38  C   UNL     1       0.471   5.890   9.552  0.00  0.00    +0.026 A 
ATOM     39  C   UNL     1      -2.823   8.609   9.761  0.00  0.00    +0.044 C 
ENDBRANCH  28  37
ENDBRANCH   1  29
BRANCH   2  40
ATOM     40  N   UNL     1      -3.614   3.394   5.170  0.00  0.00    -0.357 N 
ATOM     41  H   UNL     1      -4.299   2.986   4.617  0.00  0.00    +0.142 HD
ATOM     42  H   UNL     1      -3.865   3.895   5.962  0.00  0.00    +0.142 HD
ENDBRANCH   2  40
TORSDOF 6
