REMARK  Name = ZINC38925940
REMARK  9 active torsions:
REMARK  status: ('A' for Active; 'I' for Inactive)
REMARK    1  A    between atoms: C_1  and  C_2
REMARK    2  A    between atoms: C_2  and  N_3
REMARK    3  A    between atoms: C_4  and  C_25
REMARK    4  A    between atoms: C_8  and  S_9
REMARK    5  A    between atoms: S_9  and  C_10
REMARK    6  A    between atoms: C_10  and  C_11
REMARK    7  A    between atoms: N_13  and  N_14
REMARK    8  A    between atoms: C_15  and  C_16
REMARK    9  A    between atoms: C_28  and  C_31
REMARK                            x       y       z     vdW  Elec       q    Type
REMARK                         _______ _______ _______ _____ _____    ______ ____
ROOT
ATOM      1  C   UNL     1      -1.839  -0.653   4.351  0.00  0.00    +0.174 C 
ENDROOT
BRANCH   1   2
ATOM      2  C   UNL     1      -3.265  -0.360   4.743  0.00  0.00    +0.242 C 
ATOM      3  O   UNL     1      -4.032   0.112   3.931  0.00  0.00    -0.273 OA
ATOM      4  N   UNL     1      -3.687  -0.622   5.996  0.00  0.00    -0.206 N 
ATOM      5  H   UNL     1      -3.073  -1.000   6.645  0.00  0.00    +0.177 HD
BRANCH   4   6
ATOM      6  N   UNL     1      -5.012  -0.349   6.360  0.00  0.00    -0.188 NA
ATOM      7  C   UNL     1      -5.421  -0.604   7.577  0.00  0.00    +0.136 C 
BRANCH   7   8
ATOM      8  C   UNL     1      -6.748  -0.331   7.942  0.00  0.00    +0.000 C 
ATOM      9  C   UNL     1      -7.338  -0.535   9.187  0.00  0.00    +0.004 A 
ATOM     10  C   UNL     1      -6.841  -1.047  10.406  0.00  0.00    +0.010 A 
ATOM     11  C   UNL     1      -7.661  -1.135  11.483  0.00  0.00    +0.001 A 
ATOM     12  C   UNL     1      -8.998  -0.730  11.421  0.00  0.00    +0.002 A 
ATOM     13  C   UNL     1      -9.542  -0.230  10.286  0.00  0.00    +0.026 A 
ATOM     14  C   UNL     1      -8.746  -0.107   9.116  0.00  0.00    +0.043 A 
ATOM     15  N   UNL     1      -9.031   0.339   7.911  0.00  0.00    -0.380 N 
ATOM     16  C   UNL     1      -7.835   0.254   7.068  0.00  0.00    +0.150 C 
ATOM     17  H   UNL     1      -9.896   0.674   7.626  0.00  0.00    +0.160 HD
ENDBRANCH   7   8
ENDBRANCH   4   6
ENDBRANCH   1   2
BRANCH   1  18
ATOM     18  S   UNL     1      -1.583  -0.195   2.615  0.00  0.00    -0.080 S 
BRANCH  18  23
ATOM     19  N   UNL     1       0.744  -0.404   1.096  0.00  0.00    -0.285 N 
ATOM     20  C   UNL     1       2.134  -0.856   1.276  0.00  0.00    +0.208 C 
ATOM     21  N   UNL     1       2.183  -1.303   2.679  0.00  0.00    -0.242 N 
ATOM     22  N   UNL     1       0.898  -1.098   3.197  0.00  0.00    -0.162 NA
ATOM     23  C   UNL     1       0.106  -0.593   2.313  0.00  0.00    +0.176 C 
ATOM     24  H   UNL     1       2.950  -1.667   3.148  0.00  0.00    +0.170 HD
BRANCH  20  25
ATOM     25  C   UNL     1       2.445  -1.997   0.342  0.00  0.00    -0.008 A 
ATOM     26  C   UNL     1       3.455  -1.870  -0.593  0.00  0.00    +0.007 A 
ATOM     27  C   UNL     1       3.740  -2.917  -1.449  0.00  0.00    +0.004 A 
ATOM     28  C   UNL     1       3.015  -4.092  -1.370  0.00  0.00    -0.050 A 
ATOM     29  C   UNL     1       2.005  -4.219  -0.434  0.00  0.00    +0.004 A 
ATOM     30  C   UNL     1       1.723  -3.173   0.425  0.00  0.00    +0.007 A 
ATOM     31  C   UNL     1       3.324  -5.233  -2.304  0.00  0.00    +0.044 C 
ENDBRANCH  20  25
BRANCH  19  33
ATOM     32  C   UNL     1       0.368   1.657  -0.166  0.00  0.00    +0.024 C 
ATOM     33  C   UNL     1       0.152   0.142  -0.127  0.00  0.00    +0.106 C 
ENDBRANCH  19  33
ENDBRANCH  18  23
ENDBRANCH   1  18
TORSDOF 7
