REMARK  Name = ZINC18956700
REMARK  13 active torsions:
REMARK  status: ('A' for Active; 'I' for Inactive)
REMARK    1  A    between atoms: C_1  and  C_2
REMARK    2  A    between atoms: C_2  and  C_3
REMARK    3  A    between atoms: C_3  and  C_4
REMARK    4  A    between atoms: C_4  and  N_5
REMARK    5  A    between atoms: C_6  and  N_34
REMARK    6  A    between atoms: C_7  and  N_14
REMARK    7  A    between atoms: N_14  and  C_15
REMARK    8  A    between atoms: C_15  and  C_16
REMARK    9  A    between atoms: C_16  and  O_17
REMARK   10  A    between atoms: O_17  and  C_18
REMARK   11  A    between atoms: C_19  and  C_21
REMARK   12  A    between atoms: C_21  and  S_22
REMARK   13  A    between atoms: S_22  and  C_23
REMARK                            x       y       z     vdW  Elec       q    Type
REMARK                         _______ _______ _______ _____ _____    ______ ____
ROOT
ATOM      1  N   UNL     1      -1.369  -0.509  -0.109  0.00  0.00    -0.261 N 
ATOM      2  C   UNL     1      -2.071  -0.855   0.991  0.00  0.00    +0.230 C 
ATOM      3  O   UNL     1      -3.167  -1.362   0.876  0.00  0.00    -0.274 OA
ENDROOT
BRANCH   1   6
ATOM      4  N   UNL     1      -2.018  -1.658  -3.538  0.00  0.00    -0.280 N 
ATOM      5  C   UNL     1      -1.432  -1.545  -2.299  0.00  0.00    +0.127 A 
ATOM      6  C   UNL     1      -1.948  -0.647  -1.388  0.00  0.00    +0.140 A 
ATOM      7  C   UNL     1      -3.067   0.125  -1.754  0.00  0.00    +0.277 A 
ATOM      8  O   UNL     1      -3.546   0.923  -0.967  0.00  0.00    -0.266 OA
ATOM      9  N   UNL     1      -3.601  -0.020  -2.983  0.00  0.00    -0.273 N 
ATOM     10  H   UNL     1      -4.390   0.534  -3.247  0.00  0.00    +0.173 HD
ATOM     11  C   UNL     1      -3.084  -0.901  -3.858  0.00  0.00    +0.331 A 
ATOM     12  O   UNL     1      -3.589  -1.015  -4.958  0.00  0.00    -0.246 OA
BRANCH   5  13
ATOM     13  N   UNL     1      -0.343  -2.318  -1.973  0.00  0.00    -0.343 N 
ATOM     14  H   UNL     1       0.111  -2.184  -1.126  0.00  0.00    +0.144 HD
ATOM     15  H   UNL     1      -0.029  -2.999  -2.589  0.00  0.00    +0.144 HD
ENDBRANCH   5  13
BRANCH   4  16
ATOM     16  C   UNL     1      -1.480  -2.607  -4.515  0.00  0.00    +0.128 C 
BRANCH  16  17
ATOM     17  C   UNL     1      -2.173  -3.961  -4.346  0.00  0.00    +0.021 C 
BRANCH  17  19
ATOM     18  C   UNL     1      -2.304  -6.306  -5.197  0.00  0.00    +0.004 C 
ATOM     19  C   UNL     1      -1.611  -4.953  -5.366  0.00  0.00    -0.002 C 
ENDBRANCH  17  19
ENDBRANCH  16  17
ENDBRANCH   4  16
ENDBRANCH   1   6
BRANCH   1  20
ATOM     20  C   UNL     1      -0.006   0.010   0.026  0.00  0.00    +0.142 C 
BRANCH  20  21
ATOM     21  C   UNL     1      -0.038   1.540   0.009  0.00  0.00    +0.178 C 
BRANCH  21  22
ATOM     22  O   UNL     1      -0.739   2.014   1.160  0.00  0.00    -0.381 OA
ATOM     23  C   UNL     1      -0.827   3.438   1.241  0.00  0.00    +0.194 C 
ENDBRANCH  21  22
ENDBRANCH  20  21
ENDBRANCH   1  20
BRANCH   2  24
ATOM     24  C   UNL     1      -1.493  -0.612   2.361  0.00  0.00    +0.173 C 
BRANCH  24  25
ATOM     25  S   UNL     1      -2.664  -1.179   3.619  0.00  0.00    -0.079 S 
BRANCH  25  26
ATOM     26  C   UNL     1      -1.759  -0.786   5.079  0.00  0.00    +0.168 A 
ATOM     27  N   UNL     1      -2.192  -1.010   6.355  0.00  0.00    -0.333 N 
ATOM     28  H   UNL     1      -3.064  -1.420   6.623  0.00  0.00    +0.168 HD
ATOM     29  C   UNL     1      -1.197  -0.564   7.210  0.00  0.00    +0.068 A 
ATOM     30  C   UNL     1      -1.061  -0.527   8.590  0.00  0.00    +0.047 A 
ATOM     31  C   UNL     1       0.086  -0.005   9.153  0.00  0.00    +0.043 A 
ATOM     32  C   UNL     1       1.105   0.482   8.347  0.00  0.00    +0.022 A 
ATOM     33  C   UNL     1       0.987   0.453   6.976  0.00  0.00    +0.031 A 
ATOM     34  C   UNL     1      -0.168  -0.072   6.391  0.00  0.00    +0.090 A 
ATOM     35  N   UNL     1      -0.568  -0.239   5.102  0.00  0.00    -0.222 NA
ATOM     36 CL   UNL     1       0.255   0.041  10.880  0.00  0.00    -0.083 Cl
ENDBRANCH  25  26
ENDBRANCH  24  25
ENDBRANCH   2  24
TORSDOF 11
