REMARK  Name = ZINC58846918
REMARK  7 active torsions:
REMARK  status: ('A' for Active; 'I' for Inactive)
REMARK    1  A    between atoms: C_1  and  O_2
REMARK    2  A    between atoms: O_2  and  C_3
REMARK    3  A    between atoms: C_8  and  C_9
REMARK    4  A    between atoms: C_20  and  S_25
REMARK    5  A    between atoms: S_25  and  N_28
REMARK    6  A    between atoms: N_28  and  C_29
REMARK    7  A    between atoms: C_32  and  C_35
REMARK                            x       y       z     vdW  Elec       q    Type
REMARK                         _______ _______ _______ _____ _____    ______ ____
ROOT
ATOM      1  C   UNL     1       2.935  -4.027  -3.262  0.00  0.00    +0.108 C 
ATOM      2  C   UNL     1       1.893  -3.414  -2.373  0.00  0.00    +0.029 C 
ATOM      3  C   UNL     1       2.356  -3.326  -0.904  0.00  0.00    +0.033 C 
ATOM      4  C   UNL     1       1.064  -3.381  -0.116  0.00  0.00    -0.030 C 
ATOM      5  C   UNL     1       0.087  -3.845  -0.851  0.00  0.00    -0.023 C 
ATOM      6  C   UNL     1       0.592  -4.197  -2.228  0.00  0.00    +0.049 C 
ATOM      7  C   UNL     1       0.789  -5.686  -2.284  0.00  0.00    -0.018 A 
ATOM      8  C   UNL     1      -0.251  -6.504  -1.864  0.00  0.00    +0.034 A 
ATOM      9  C   UNL     1      -0.114  -7.877  -1.886  0.00  0.00    +0.109 A 
ATOM     10  C   UNL     1       1.065  -8.450  -2.327  0.00  0.00    +0.030 A 
ATOM     11  C   UNL     1       2.103  -7.645  -2.750  0.00  0.00    +0.025 A 
ATOM     12  C   UNL     1       1.964  -6.260  -2.734  0.00  0.00    +0.031 A 
ATOM     13  N   UNL     1       2.996  -5.472  -3.206  0.00  0.00    -0.336 N 
ATOM     14  H   UNL     1       3.812  -5.914  -3.489  0.00  0.00    +0.147 HD
ENDROOT
BRANCH   1  20
ATOM     15  C   UNL     1       4.654  -2.201  -3.266  0.00  0.00    +0.125 A 
ATOM     16  C   UNL     1       5.892  -1.696  -2.897  0.00  0.00    +0.046 A 
ATOM     17  C   UNL     1       6.753  -2.465  -2.139  0.00  0.00    +0.004 A 
ATOM     18  C   UNL     1       6.381  -3.738  -1.747  0.00  0.00    +0.001 A 
ATOM     19  C   UNL     1       5.148  -4.244  -2.113  0.00  0.00    +0.009 A 
ATOM     20  C   UNL     1       4.281  -3.476  -2.868  0.00  0.00    +0.015 A 
BRANCH  15  22
ATOM     21  C   UNL     1       4.256  -0.143  -4.387  0.00  0.00    +0.277 C 
ATOM     22  O   UNL     1       3.805  -1.446  -4.012  0.00  0.00    -0.495 OA
ENDBRANCH  15  22
ENDBRANCH   1  20
BRANCH   9  23
ATOM     23  S   UNL     1      -1.443  -8.902  -1.351  0.00  0.00    +0.072 S 
ATOM     24  O   UNL     1      -0.858 -10.091  -0.837  0.00  0.00    -0.150 OA
ATOM     25  O   UNL     1      -2.304  -8.079  -0.575  0.00  0.00    -0.150 OA
BRANCH  23  26
ATOM     26  N   UNL     1      -2.297  -9.341  -2.700  0.00  0.00    -0.216 N 
ATOM     27  H   UNL     1      -2.345 -10.274  -2.962  0.00  0.00    +0.174 HD
BRANCH  26  28
ATOM     28  C   UNL     1      -2.948  -8.368  -3.461  0.00  0.00    +0.048 A 
ATOM     29  C   UNL     1      -4.125  -7.794  -2.994  0.00  0.00    +0.025 A 
ATOM     30  C   UNL     1      -4.769  -6.834  -3.744  0.00  0.00    +0.010 A 
ATOM     31  C   UNL     1      -4.239  -6.437  -4.971  0.00  0.00    -0.018 A 
ATOM     32  C   UNL     1      -3.058  -7.013  -5.437  0.00  0.00    +0.010 A 
ATOM     33  C   UNL     1      -2.415  -7.970  -4.682  0.00  0.00    +0.025 A 
BRANCH  31  34
ATOM     34  C   UNL     1      -4.931  -5.404  -5.780  0.00  0.00    -0.018 A 
ATOM     35  C   UNL     1      -6.109  -4.823  -5.313  0.00  0.00    +0.008 A 
ATOM     36  C   UNL     1      -6.748  -3.861  -6.069  0.00  0.00    +0.001 A 
ATOM     37  C   UNL     1      -6.222  -3.474  -7.289  0.00  0.00    +0.000 A 
ATOM     38  C   UNL     1      -5.053  -4.048  -7.757  0.00  0.00    +0.001 A 
ATOM     39  C   UNL     1      -4.402  -5.006  -7.006  0.00  0.00    +0.008 A 
ENDBRANCH  31  34
ENDBRANCH  26  28
ENDBRANCH  23  26
ENDBRANCH   9  23
TORSDOF 6
