REMARK  Name = ZINC12554034
REMARK  8 active torsions:
REMARK  status: ('A' for Active; 'I' for Inactive)
REMARK    1  A    between atoms: C_1  and  C_2
REMARK    2  A    between atoms: C_3  and  C_28
REMARK    3  A    between atoms: C_4  and  C_20
REMARK    4  A    between atoms: N_9  and  C_10
REMARK    5  A    between atoms: C_24  and  O_26
REMARK    6  A    between atoms: O_26  and  C_27
REMARK    7  A    between atoms: C_28  and  O_30
REMARK    8  A    between atoms: O_30  and  C_31
REMARK                            x       y       z     vdW  Elec       q    Type
REMARK                         _______ _______ _______ _____ _____    ______ ____
ROOT
ATOM      1  C   UNL     1       2.272  -2.735   0.176  0.00  0.00    +0.062 C 
ATOM      2  C   UNL     1       3.596  -2.026   0.052  0.00  0.00    +0.027 C 
ATOM      3  C   UNL     1       4.742  -2.736   0.140  0.00  0.00    +0.078 C 
ATOM      4  C   UNL     1       6.050  -1.984   0.010  0.00  0.00    +0.141 C 
ATOM      5  N   UNL     1       5.965  -0.529  -0.202  0.00  0.00    -0.315 N 
ATOM      6  C   UNL     1       4.745   0.039  -0.274  0.00  0.00    +0.142 C 
ATOM      7  S   UNL     1       4.631   1.728  -0.527  0.00  0.00    -0.018 S 
ATOM      8  N   UNL     1       3.618  -0.674  -0.147  0.00  0.00    -0.255 N 
ATOM      9  H   UNL     1       6.768   0.007  -0.293  0.00  0.00    +0.149 HD
ENDROOT
BRANCH   8  10
ATOM     10  C   UNL     1       2.394   0.003  -0.230  0.00  0.00    +0.044 A 
ATOM     11  C   UNL     1       1.765   0.154  -1.459  0.00  0.00    +0.027 A 
ATOM     12  C   UNL     1       0.559   0.822  -1.541  0.00  0.00    +0.051 A 
ATOM     13  C   UNL     1      -0.028   1.343  -0.397  0.00  0.00    +0.162 A 
ATOM     14  C   UNL     1       0.597   1.190   0.835  0.00  0.00    +0.164 A 
ATOM     15  C   UNL     1       1.808   0.521   0.917  0.00  0.00    +0.073 A 
ATOM     16  O   UNL     1       0.031   1.687   1.969  0.00  0.00    -0.485 OA
ATOM     17  C   UNL     1      -0.993   2.673   1.800  0.00  0.00    +0.270 C 
ATOM     18  C   UNL     1      -1.958   2.182   0.712  0.00  0.00    +0.270 C 
ATOM     19  O   UNL     1      -1.214   2.005  -0.499  0.00  0.00    -0.485 OA
ENDBRANCH   8  10
BRANCH   4  20
ATOM     20  C   UNL     1       6.851  -2.224   1.265  0.00  0.00    -0.019 A 
ATOM     21  C   UNL     1       6.572  -1.501   2.410  0.00  0.00    +0.006 A 
ATOM     22  C   UNL     1       7.301  -1.722   3.564  0.00  0.00    +0.004 A 
ATOM     23  C   UNL     1       8.317  -2.659   3.571  0.00  0.00    +0.045 A 
ATOM     24  C   UNL     1       8.602  -3.381   2.422  0.00  0.00    +0.120 A 
ATOM     25  C   UNL     1       7.865  -3.161   1.267  0.00  0.00    +0.051 A 
BRANCH  24  26
ATOM     26  O   UNL     1       9.600  -4.303   2.427  0.00  0.00    -0.495 OA
ATOM     27  C   UNL     1      10.317  -4.477   3.651  0.00  0.00    +0.277 C 
ENDBRANCH  24  26
ENDBRANCH   4  20
BRANCH   3  28
ATOM     28  C   UNL     1       4.720  -4.135   0.346  0.00  0.00    +0.339 C 
ATOM     29  O   UNL     1       3.657  -4.719   0.448  0.00  0.00    -0.245 OA
BRANCH  28  30
ATOM     30  O   UNL     1       5.878  -4.823   0.431  0.00  0.00    -0.465 OA
ATOM     31  C   UNL     1       5.782  -6.233   0.640  0.00  0.00    +0.280 C 
ENDBRANCH  28  30
ENDBRANCH   3  28
TORSDOF 5
