REMARK  Name = ZINC04030361
REMARK  5 active torsions:
REMARK  status: ('A' for Active; 'I' for Inactive)
REMARK    1  A    between atoms: C_1  and  C_2
REMARK    2  A    between atoms: C_5  and  N_8
REMARK    3  A    between atoms: C_9  and  C_11
REMARK    4  A    between atoms: N_21  and  C_22
REMARK    5  A    between atoms: C_26  and  C_28
REMARK                            x       y       z     vdW  Elec       q    Type
REMARK                         _______ _______ _______ _____ _____    ______ ____
ROOT
ATOM      1  C   UNL     1       0.307  -6.313   1.122  0.00  0.00    +0.099 A 
ATOM      2  C   UNL     1       0.423  -7.040   2.299  0.00  0.00    +0.030 A 
ATOM      3  C   UNL     1       0.578  -8.445   2.204  0.00  0.00    +0.019 A 
ATOM      4  C   UNL     1       0.502  -9.249   3.350  0.00  0.00    +0.017 A 
ATOM      5  C   UNL     1       0.608 -10.608   3.244  0.00  0.00    -0.025 A 
ATOM      6  C   UNL     1       0.799 -11.208   1.997  0.00  0.00    +0.040 A 
ATOM      7  C   UNL     1       0.901 -10.425   0.854  0.00  0.00    +0.017 A 
ATOM      8  C   UNL     1       0.802  -9.044   0.951  0.00  0.00    +0.142 A 
ATOM      9  O   UNL     1       0.943  -8.274  -0.157  0.00  0.00    -0.436 OA
ATOM     10  C   UNL     1       0.314  -7.068  -0.146  0.00  0.00    +0.233 A 
ATOM     11  N   UNL     1      -0.265  -6.590  -1.227  0.00  0.00    -0.213 NA
ATOM     12  C   UNL     1       1.125 -11.031  -0.506  0.00  0.00    +0.042 C 
ATOM     13  C   UNL     1       1.742 -12.424  -0.373  0.00  0.00    +0.024 C 
ATOM     14  C   UNL     1       0.873 -13.246   0.588  0.00  0.00    +0.105 C 
ATOM     15  N   UNL     1       0.903 -12.593   1.900  0.00  0.00    -0.329 N 
ATOM     16  C   UNL     1       1.058 -13.406   3.111  0.00  0.00    +0.105 C 
ATOM     17  C   UNL     1       0.100 -12.862   4.177  0.00  0.00    +0.024 C 
ATOM     18  C   UNL     1       0.510 -11.426   4.506  0.00  0.00    +0.038 C 
ENDROOT
BRANCH  11  19
ATOM     19  C   UNL     1      -0.244  -7.310  -2.389  0.00  0.00    +0.068 A 
ATOM     20  C   UNL     1       0.939  -7.922  -2.814  0.00  0.00    +0.028 A 
ATOM     21  C   UNL     1       0.960  -8.650  -3.987  0.00  0.00    +0.003 A 
ATOM     22  C   UNL     1      -0.185  -8.778  -4.749  0.00  0.00    +0.013 A 
ATOM     23  C   UNL     1      -1.373  -8.171  -4.337  0.00  0.00    +0.038 A 
ATOM     24  C   UNL     1      -1.405  -7.440  -3.151  0.00  0.00    +0.041 A 
BRANCH  23  25
ATOM     25  C   UNL     1      -2.598  -8.309  -5.155  0.00  0.00    +0.242 C 
ATOM     26  O   UNL     1      -3.632  -7.781  -4.796  0.00  0.00    -0.270 OA
ATOM     27  N   UNL     1      -2.567  -9.021  -6.299  0.00  0.00    -0.325 N 
ATOM     28  H   UNL     1      -1.742  -9.443  -6.586  0.00  0.00    +0.145 HD
ATOM     29  H   UNL     1      -3.370  -9.112  -6.835  0.00  0.00    +0.145 HD
ENDBRANCH  23  25
ENDBRANCH  11  19
BRANCH   1  31
ATOM     30  N   UNL     1       0.059  -4.169  -0.021  0.00  0.00    -0.281 N 
ATOM     31  C   UNL     1       0.176  -4.848   1.138  0.00  0.00    +0.253 C 
ATOM     32  O   UNL     1       0.174  -4.249   2.196  0.00  0.00    -0.270 OA
ATOM     33  H   UNL     1      -0.015  -4.650  -0.860  0.00  0.00    +0.155 HD
BRANCH  30  38
ATOM     34  C   UNL     1       0.003   1.503   0.009  0.00  0.00    +0.044 C 
ATOM     35  C   UNL     1       0.017  -0.004   0.001  0.00  0.00    -0.050 A 
ATOM     36  C   UNL     1      -0.726  -0.696  -0.937  0.00  0.00    +0.005 A 
ATOM     37  C   UNL     1      -0.714  -2.077  -0.947  0.00  0.00    +0.023 A 
ATOM     38  C   UNL     1       0.046  -2.771  -0.014  0.00  0.00    +0.034 A 
ATOM     39  C   UNL     1       0.791  -2.072   0.927  0.00  0.00    +0.023 A 
ATOM     40  C   UNL     1       0.779  -0.691   0.929  0.00  0.00    +0.005 A 
ENDBRANCH  30  38
ENDBRANCH   1  31
TORSDOF 4
