REMARK  Name = ZINC03426299
REMARK  7 active torsions:
REMARK  status: ('A' for Active; 'I' for Inactive)
REMARK    1  A    between atoms: C_1  and  C_2
REMARK    2  A    between atoms: C_9  and  C_11
REMARK    3  A    between atoms: N_13  and  N_14
REMARK    4  A    between atoms: C_15  and  C_17
REMARK    5  A    between atoms: C_17  and  S_18
REMARK    6  A    between atoms: S_18  and  C_19
REMARK    7  A    between atoms: C_22  and  C_24
REMARK                            x       y       z     vdW  Elec       q    Type
REMARK                         _______ _______ _______ _____ _____    ______ ____
ROOT
ATOM      1  N   UNL     1       5.671   6.424  -0.753  0.00  0.00    -0.233 N 
ATOM      2  C   UNL     1       5.439   7.709  -1.087  0.00  0.00    +0.239 C 
ATOM      3  O   UNL     1       4.303   8.093  -1.269  0.00  0.00    -0.273 OA
ATOM      4  H   UNL     1       6.580   6.117  -0.607  0.00  0.00    +0.173 HD
ENDROOT
BRANCH   1   7
ATOM      5  C   UNL     1       4.831   4.247  -0.282  0.00  0.00    +0.267 C 
ATOM      6  O   UNL     1       5.971   3.861  -0.099  0.00  0.00    -0.268 OA
ATOM      7  N   UNL     1       4.600   5.532  -0.616  0.00  0.00    -0.230 N 
ATOM      8  H   UNL     1       3.691   5.839  -0.762  0.00  0.00    +0.173 HD
BRANCH   5  16
ATOM      9  C   UNL     1       0.830  -1.998   1.259  0.00  0.00    +0.008 C 
ATOM     10  C   UNL     1       0.991  -0.489   1.066  0.00  0.00    -0.009 C 
ATOM     11  C   UNL     1       0.002  -0.004   0.002  0.00  0.00    +0.009 C 
ATOM     12  C   UNL     1      -0.019   1.531   0.011  0.00  0.00    +0.043 C 
ATOM     13  C   UNL     1       1.396   2.023  -0.000  0.00  0.00    -0.006 A 
ATOM     14  C   UNL     1       2.522   1.297   0.266  0.00  0.00    -0.036 A 
ATOM     15  C   UNL     1       3.730   1.971   0.193  0.00  0.00    +0.024 A 
ATOM     16  C   UNL     1       3.710   3.313  -0.139  0.00  0.00    +0.076 A 
ATOM     17  S   UNL     1       1.963   3.612  -0.347  0.00  0.00    -0.088 S 
ATOM     18  C   UNL     1       2.423  -0.183   0.624  0.00  0.00    +0.039 C 
ENDBRANCH   5  16
ENDBRANCH   1   7
BRANCH   2  19
ATOM     19  C   UNL     1       6.592   8.669  -1.234  0.00  0.00    +0.176 C 
BRANCH  19  20
ATOM     20  S   UNL     1       5.961  10.304  -1.685  0.00  0.00    -0.056 S 
BRANCH  20  21
ATOM     21  C   UNL     1       7.476  11.199  -1.788  0.00  0.00    +0.278 A 
ATOM     22  N   UNL     1       8.678  10.718  -1.572  0.00  0.00    -0.101 NA
ATOM     23  N   UNL     1       9.548  11.651  -1.739  0.00  0.00    -0.106 NA
ATOM     24  C   UNL     1       8.937  12.765  -2.061  0.00  0.00    +0.249 A 
ATOM     25  O   UNL     1       7.612  12.502  -2.099  0.00  0.00    -0.411 OA
BRANCH  24  26
ATOM     26  C   UNL     1       9.579  14.067  -2.332  0.00  0.00    +0.039 A 
ATOM     27  C   UNL     1       8.800  15.175  -2.671  0.00  0.00    +0.014 A 
ATOM     28  C   UNL     1       9.404  16.390  -2.918  0.00  0.00    +0.021 A 
ATOM     29  C   UNL     1      10.782  16.510  -2.841  0.00  0.00    +0.041 A 
ATOM     30  C   UNL     1      11.560  15.413  -2.510  0.00  0.00    +0.021 A 
ATOM     31  C   UNL     1      10.967  14.194  -2.255  0.00  0.00    +0.014 A 
ATOM     32 CL   UNL     1      11.536  18.040  -3.161  0.00  0.00    -0.084 Cl
ENDBRANCH  24  26
ENDBRANCH  20  21
ENDBRANCH  19  20
ENDBRANCH   2  19
TORSDOF 6
