REMARK  Name = ZINC08744801
REMARK  9 active torsions:
REMARK  status: ('A' for Active; 'I' for Inactive)
REMARK    1  A    between atoms: C_1  and  C_2
REMARK    2  A    between atoms: C_2  and  O_3
REMARK    3  A    between atoms: O_3  and  C_4
REMARK    4  A    between atoms: C_9  and  N_10
REMARK    5  A    between atoms: C_11  and  C_13
REMARK    6  A    between atoms: C_13  and  C_15
REMARK    7  A    between atoms: C_13  and  N_59
REMARK    8  A    between atoms: C_21  and  C_22
REMARK    9  A    between atoms: C_21  and  N_59
REMARK                            x       y       z     vdW  Elec       q    Type
REMARK                         _______ _______ _______ _____ _____    ______ ____
ROOT
ATOM      1  C   UNL     1      -0.006   0.009   0.005  0.00  0.00    +0.048 C 
ENDROOT
BRANCH   1   2
ATOM      2  C   UNL     1      -0.032   1.516   0.024  0.00  0.00    -0.053 A 
ATOM      3  C   UNL     1      -1.241   2.186   0.041  0.00  0.00    +0.002 A 
ATOM      4  C   UNL     1      -1.265   3.568   0.063  0.00  0.00    +0.000 A 
ATOM      5  C   UNL     1      -0.080   4.280   0.057  0.00  0.00    +0.000 A 
ATOM      6  C   UNL     1       1.129   3.610   0.034  0.00  0.00    +0.000 A 
ATOM      7  C   UNL     1       1.153   2.228   0.017  0.00  0.00    +0.002 A 
ENDBRANCH   1   2
BRANCH   1   9
ATOM      8  N   UNL     1       0.632  -0.185   2.387  0.00  0.00    -0.284 N 
ATOM      9  C   UNL     1      -0.226  -0.514   1.401  0.00  0.00    +0.208 C 
ATOM     10  O   UNL     1      -1.176  -1.230   1.638  0.00  0.00    -0.277 OA
ATOM     11  H   UNL     1       1.434   0.320   2.183  0.00  0.00    +0.155 HD
BRANCH   8  17
ATOM     12  C   UNL     1       1.409  -0.711   4.619  0.00  0.00    +0.142 A 
ATOM     13  C   UNL     1       1.140  -1.096   5.922  0.00  0.00    +0.047 A 
ATOM     14  C   UNL     1      -0.162  -1.344   6.315  0.00  0.00    +0.004 A 
ATOM     15  C   UNL     1      -1.199  -1.209   5.410  0.00  0.00    +0.002 A 
ATOM     16  C   UNL     1      -0.939  -0.820   4.109  0.00  0.00    +0.027 A 
ATOM     17  C   UNL     1       0.365  -0.575   3.707  0.00  0.00    +0.076 A 
BRANCH  12  18
ATOM     18  O   UNL     1       2.689  -0.467   4.231  0.00  0.00    -0.490 OA
BRANCH  18  20
ATOM     19  C   UNL     1       5.072  -0.310   4.603  0.00  0.00    +0.048 C 
ATOM     20  C   UNL     1       3.708  -0.627   5.220  0.00  0.00    +0.226 C 
ENDBRANCH  18  20
ENDBRANCH  12  18
ENDBRANCH   8  17
ENDBRANCH   1   9
BRANCH   1  21
ATOM     21  N   UNL     1      -1.080  -0.491  -0.874  0.00  0.00    +0.392 N 
ATOM     22  H   UNL     1      -1.894   0.130  -0.801  0.00  0.00    -0.084 HD
ATOM     23  H   UNL     1      -1.344  -1.439  -0.581  0.00  0.00    -0.084 HD
BRANCH  21  24
ATOM     24  C   UNL     1      -0.619  -0.526  -2.275  0.00  0.00    -0.045 C 
BRANCH  24  25
ATOM     25  C   UNL     1      -1.735  -1.040  -3.148  0.00  0.00    -0.059 A 
ATOM     26  C   UNL     1      -2.639  -0.153  -3.706  0.00  0.00    +0.051 A 
ATOM     27  C   UNL     1      -3.663  -0.629  -4.508  0.00  0.00    +0.164 A 
ATOM     28  C   UNL     1      -3.780  -1.990  -4.751  0.00  0.00    +0.180 A 
ATOM     29  C   UNL     1      -2.873  -2.876  -4.191  0.00  0.00    +0.086 A 
ATOM     30  C   UNL     1      -1.847  -2.396  -3.395  0.00  0.00    +0.025 A 
ATOM     31 CL   UNL     1      -3.018  -4.579  -4.495  0.00  0.00    -0.080 Cl
ATOM     32  O   UNL     1      -4.793  -2.449  -5.542  0.00  0.00    -0.487 OA
ATOM     33  C   UNL     1      -4.710  -2.102  -6.926  0.00  0.00    +0.232 C 
ATOM     34  C   UNL     1      -5.295  -0.720  -7.171  0.00  0.00    +0.082 C 
ATOM     35  C   UNL     1      -4.497   0.377  -6.483  0.00  0.00    +0.232 C 
ATOM     36  O   UNL     1      -4.561   0.235  -5.062  0.00  0.00    -0.488 OA
ENDBRANCH  24  25
ENDBRANCH  21  24
ENDBRANCH   1  21
TORSDOF 8
