REMARK  Name = ZINC03372334
REMARK  7 active torsions:
REMARK  status: ('A' for Active; 'I' for Inactive)
REMARK    1  A    between atoms: C_1  and  C_2
REMARK    2  A    between atoms: C_2  and  C_4
REMARK    3  A    between atoms: C_2  and  S_17
REMARK    4  A    between atoms: N_6  and  C_7
REMARK    5  A    between atoms: S_17  and  C_18
REMARK    6  A    between atoms: N_28  and  C_29
REMARK    7  A    between atoms: C_29  and  C_30
REMARK                            x       y       z     vdW  Elec       q    Type
REMARK                         _______ _______ _______ _____ _____    ______ ____
ROOT
ATOM      1  S   UNL     1       4.747  -4.430  -0.470  0.00  0.00    -0.075 S 
ENDROOT
BRANCH   1   2
ATOM      2  C   UNL     1       6.416  -4.989  -0.392  0.00  0.00    +0.173 A 
ATOM      3  N   UNL     1       7.333  -4.159   0.041  0.00  0.00    -0.223 NA
ATOM      4  C   UNL     1       8.629  -4.520   0.126  0.00  0.00    +0.079 A 
ATOM      5  C   UNL     1       9.608  -3.635   0.588  0.00  0.00    +0.028 A 
ATOM      6  C   UNL     1      10.910  -4.043   0.657  0.00  0.00    +0.002 A 
ATOM      7  C   UNL     1      11.278  -5.327   0.277  0.00  0.00    +0.001 A 
ATOM      8  C   UNL     1      10.344  -6.216  -0.178  0.00  0.00    +0.015 A 
ATOM      9  C   UNL     1       9.008  -5.826  -0.260  0.00  0.00    +0.065 A 
ATOM     10  C   UNL     1       7.962  -6.738  -0.742  0.00  0.00    +0.263 A 
ATOM     11  O   UNL     1       8.225  -7.875  -1.089  0.00  0.00    -0.267 OA
ATOM     12  N   UNL     1       6.693  -6.269  -0.780  0.00  0.00    -0.280 N 
BRANCH  12  13
ATOM     13  C   UNL     1       5.609  -7.138  -1.247  0.00  0.00    +0.201 C 
BRANCH  13  14
ATOM     14  C   UNL     1       5.451  -6.986  -2.738  0.00  0.00    +0.125 A 
ATOM     15  C   UNL     1       6.088  -7.711  -3.675  0.00  0.00    +0.046 A 
ATOM     16  C   UNL     1       5.642  -7.239  -4.931  0.00  0.00    +0.041 A 
ATOM     17  C   UNL     1       4.765  -6.249  -4.686  0.00  0.00    +0.195 A 
ATOM     18  O   UNL     1       4.653  -6.100  -3.357  0.00  0.00    -0.466 OA
ENDBRANCH  13  14
ENDBRANCH  12  13
ENDBRANCH   1   2
BRANCH   1  20
ATOM     19  C   UNL     1       5.412  -2.778   1.602  0.00  0.00    +0.029 C 
ATOM     20  C   UNL     1       4.953  -2.739   0.143  0.00  0.00    +0.137 C 
BRANCH  20  21
ATOM     21  C   UNL     1       3.639  -2.007   0.050  0.00  0.00    +0.230 C 
ATOM     22  O   UNL     1       2.597  -2.628   0.058  0.00  0.00    -0.274 OA
ATOM     23  N   UNL     1       3.621  -0.663  -0.044  0.00  0.00    -0.284 N 
ATOM     24  H   UNL     1       4.454  -0.171  -0.119  0.00  0.00    +0.155 HD
BRANCH  23  25
ATOM     25  C   UNL     1       2.400   0.024  -0.034  0.00  0.00    +0.037 A 
ATOM     26  C   UNL     1       2.308   1.268   0.577  0.00  0.00    +0.027 A 
ATOM     27  C   UNL     1       1.105   1.945   0.588  0.00  0.00    +0.051 A 
ATOM     28  C   UNL     1      -0.015   1.387  -0.010  0.00  0.00    +0.162 A 
ATOM     29  C   UNL     1       0.074   0.143  -0.624  0.00  0.00    +0.164 A 
ATOM     30  C   UNL     1       1.282  -0.537  -0.634  0.00  0.00    +0.072 A 
ATOM     31  O   UNL     1      -1.011  -0.418  -1.224  0.00  0.00    -0.485 OA
ATOM     32  C   UNL     1      -2.291   0.119  -0.871  0.00  0.00    +0.270 C 
ATOM     33  C   UNL     1      -2.198   1.651  -0.916  0.00  0.00    +0.270 C 
ATOM     34  O   UNL     1      -1.195   2.066   0.018  0.00  0.00    -0.485 OA
ENDBRANCH  23  25
ENDBRANCH  20  21
ENDBRANCH   1  20
TORSDOF 6
