REMARK  Name = ZINC33939940
REMARK  10 active torsions:
REMARK  status: ('A' for Active; 'I' for Inactive)
REMARK    1  A    between atoms: C_1  and  C_2
REMARK    2  A    between atoms: C_8  and  N_10
REMARK    3  A    between atoms: C_11  and  C_13
REMARK    4  A    between atoms: N_19  and  C_35
REMARK    5  A    between atoms: C_20  and  C_28
REMARK    6  A    between atoms: C_25  and  C_27
REMARK    7  A    between atoms: N_30  and  C_31
REMARK    8  A    between atoms: C_31  and  C_32
REMARK    9  A    between atoms: C_31  and  C_33
REMARK   10  A    between atoms: C_31  and  C_34
REMARK                            x       y       z     vdW  Elec       q    Type
REMARK                         _______ _______ _______ _____ _____    ______ ____
ROOT
ATOM      1  C   UNL     1       4.507   0.365   2.397  0.00  0.00    +0.125 C 
ATOM      2  C   UNL     1       5.198   0.402   3.772  0.00  0.00    +0.128 C 
ATOM      3  C   UNL     1       4.289   0.162   4.944  0.00  0.00    +0.228 C 
ATOM      4  O   UNL     1       3.475  -0.733   5.029  0.00  0.00    -0.275 OA
ATOM      5  N   UNL     1       4.523   1.104   5.893  0.00  0.00    -0.256 N 
ATOM      6  C   UNL     1       5.486   2.119   5.402  0.00  0.00    +0.203 C 
ATOM      7  C   UNL     1       5.487   1.943   3.906  0.00  0.00    +0.128 C 
ATOM      8  C   UNL     1       6.624   2.258   3.001  0.00  0.00    +0.009 C 
ATOM      9  C   UNL     1       6.085   2.185   1.778  0.00  0.00    +0.007 C 
ATOM     10  C   UNL     1       4.597   1.861   1.952  0.00  0.00    +0.098 C 
ATOM     11  O   UNL     1       4.333   2.525   3.243  0.00  0.00    -0.355 OA
ATOM     12  C   UNL     1       3.695   2.255   0.781  0.00  0.00    +0.047 C 
ENDROOT
BRANCH   5  13
ATOM     13  C   UNL     1       3.934   1.115   7.162  0.00  0.00    +0.037 A 
ATOM     14  C   UNL     1       4.237   2.131   8.060  0.00  0.00    +0.023 A 
ATOM     15  C   UNL     1       3.654   2.140   9.312  0.00  0.00    +0.002 A 
ATOM     16  C   UNL     1       2.771   1.139   9.672  0.00  0.00    +0.000 A 
ATOM     17  C   UNL     1       2.468   0.126   8.781  0.00  0.00    +0.002 A 
ATOM     18  C   UNL     1       3.042   0.115   7.525  0.00  0.00    +0.023 A 
ENDBRANCH   5  13
BRANCH   1  20
ATOM     19  N   UNL     1       2.720  -1.334   2.206  0.00  0.00    -0.312 N 
ATOM     20  C   UNL     1       3.071  -0.073   2.527  0.00  0.00    +0.220 C 
ATOM     21  O   UNL     1       2.232   0.709   2.921  0.00  0.00    -0.275 OA
ATOM     22  H   UNL     1       3.402  -1.981   1.967  0.00  0.00    +0.149 HD
BRANCH  19  29
ATOM     23  C   UNL     1       1.549  -2.665  -0.084  0.00  0.00    +0.009 C 
ATOM     24  C   UNL     1       1.118  -2.973   1.352  0.00  0.00    +0.006 C 
ATOM     25  C   UNL     1      -0.355  -3.384   1.365  0.00  0.00    +0.005 C 
ATOM     26  C   UNL     1      -0.786  -3.692   2.801  0.00  0.00    +0.000 C 
ATOM     27  C   UNL     1      -0.596  -2.446   3.668  0.00  0.00    +0.002 C 
ATOM     28  C   UNL     1       0.878  -2.035   3.655  0.00  0.00    +0.022 C 
ATOM     29  C   UNL     1       1.309  -1.727   2.219  0.00  0.00    +0.076 C 
ENDBRANCH  19  29
ENDBRANCH   1  20
BRANCH   6  30
ATOM     30  C   UNL     1       5.031   3.505   5.780  0.00  0.00    +0.238 C 
ATOM     31  O   UNL     1       3.875   3.700   6.091  0.00  0.00    -0.274 OA
ATOM     32  N   UNL     1       5.909   4.527   5.773  0.00  0.00    -0.309 N 
ATOM     33  H   UNL     1       6.833   4.371   5.524  0.00  0.00    +0.149 HD
BRANCH  32  34
ATOM     34  C   UNL     1       5.467   5.875   6.141  0.00  0.00    +0.026 C 
ATOM     35  C   UNL     1       4.926   5.862   7.572  0.00  0.00    +0.031 C 
ATOM     36  C   UNL     1       6.649   6.842   6.051  0.00  0.00    +0.031 C 
ATOM     37  C   UNL     1       4.363   6.329   5.183  0.00  0.00    +0.031 C 
ENDBRANCH  32  34
ENDBRANCH   6  30
TORSDOF 5
