REMARK  Name = ZINC11616056
REMARK  8 active torsions:
REMARK  status: ('A' for Active; 'I' for Inactive)
REMARK    1  A    between atoms: C_1  and  C_2
REMARK    2  A    between atoms: C_13  and  C_15
REMARK    3  A    between atoms: N_17  and  C_18
REMARK    4  A    between atoms: C_18  and  C_19
REMARK    5  A    between atoms: C_18  and  C_20
REMARK    6  A    between atoms: C_18  and  C_21
REMARK    7  A    between atoms: C_25  and  C_32
REMARK    8  A    between atoms: C_28  and  C_30
REMARK                            x       y       z     vdW  Elec       q    Type
REMARK                         _______ _______ _______ _____ _____    ______ ____
ROOT
ATOM      1  C   UNL     1      -2.543   3.054   2.133  0.00  0.00    +0.012 C 
ATOM      2  C   UNL     1      -1.280   3.013   1.228  0.00  0.00    -0.018 C 
ATOM      3  C   UNL     1      -1.724   3.531  -0.111  0.00  0.00    +0.008 C 
ATOM      4  C   UNL     1      -0.862   3.095  -1.294  0.00  0.00    +0.005 C 
ATOM      5  C   UNL     1      -0.768   1.573  -1.303  0.00  0.00    +0.003 C 
ATOM      6  C   UNL     1      -0.077   1.116  -0.020  0.00  0.00    +0.000 C 
ATOM      7  C   UNL     1      -0.807   1.557   1.230  0.00  0.00    -0.001 C 
ATOM      8  C   UNL     1       0.170   1.475   2.433  0.00  0.00    +0.005 C 
ATOM      9  C   UNL     1       0.827   2.868   2.495  0.00  0.00    +0.013 C 
ATOM     10  C   UNL     1      -0.225   3.852   1.945  0.00  0.00    +0.081 C 
ATOM     11  C   UNL     1       1.383   1.571  -0.049  0.00  0.00    +0.031 C 
ATOM     12  C   UNL     1       2.037   0.854  -1.209  0.00  0.00    -0.023 C 
ATOM     13  C   UNL     1       1.349   0.607  -2.314  0.00  0.00    -0.045 C 
ATOM     14  C   UNL     1      -0.083   1.011  -2.526  0.00  0.00    -0.004 C 
ATOM     15  C   UNL     1      -0.837  -0.216  -3.051  0.00  0.00    +0.016 C 
ATOM     16  C   UNL     1      -0.242  -0.694  -4.369  0.00  0.00    +0.043 C 
ATOM     17  C   UNL     1       1.255  -0.700  -4.367  0.00  0.00    +0.041 C 
ATOM     18  C   UNL     1       2.009  -0.103  -3.424  0.00  0.00    +0.014 C 
ATOM     19  C   UNL     1      -0.084   2.054  -3.641  0.00  0.00    +0.016 C 
ENDROOT
BRANCH  10  20
ATOM     20  C   UNL     1       0.425   4.880   1.067  0.00  0.00    +0.217 C 
ATOM     21  O   UNL     1       1.486   4.637   0.531  0.00  0.00    -0.275 OA
ATOM     22  N   UNL     1      -0.169   6.074   0.874  0.00  0.00    -0.310 N 
ATOM     23  H   UNL     1      -1.017   6.269   1.302  0.00  0.00    +0.149 HD
BRANCH  22  24
ATOM     24  C   UNL     1       0.466   7.079   0.017  0.00  0.00    +0.026 C 
ATOM     25  C   UNL     1       0.629   6.514  -1.396  0.00  0.00    +0.031 C 
ATOM     26  C   UNL     1      -0.409   8.333  -0.033  0.00  0.00    +0.031 C 
ATOM     27  C   UNL     1       1.841   7.438   0.584  0.00  0.00    +0.031 C 
ENDBRANCH  22  24
ENDBRANCH  10  20
BRANCH  17  28
ATOM     28  C   UNL     1       1.921  -1.374  -5.423  0.00  0.00    +0.383 C 
ATOM     29  O   UNL     1       3.137  -1.400  -5.457  0.00  0.00    -0.241 OA
ATOM     30  O   UNL     1       1.206  -1.985  -6.390  0.00  0.00    -0.241 OA
ENDBRANCH  17  28
TORSDOF 3
