REMARK  Name = ZINC11883587
REMARK  7 active torsions:
REMARK  status: ('A' for Active; 'I' for Inactive)
REMARK    1  A    between atoms: C_1  and  C_2
REMARK    2  A    between atoms: C_5  and  C_6
REMARK    3  A    between atoms: C_5  and  C_16
REMARK    4  A    between atoms: C_9  and  O_14
REMARK    5  A    between atoms: C_10  and  O_12
REMARK    6  A    between atoms: O_12  and  C_13
REMARK    7  A    between atoms: O_14  and  C_15
REMARK                            x       y       z     vdW  Elec       q    Type
REMARK                         _______ _______ _______ _____ _____    ______ ____
ROOT
ATOM      1  C   UNL     1      -3.221  -1.149  -1.748  0.00  0.00    +0.009 C 
ATOM      2  C   UNL     1      -1.723  -1.146  -1.435  0.00  0.00    +0.003 C 
ATOM      3  C   UNL     1      -1.034   0.213  -1.287  0.00  0.00    +0.022 C 
ATOM      4  C   UNL     1      -1.291  -0.654  -0.053  0.00  0.00    +0.041 C 
ENDROOT
BRANCH   4   5
ATOM      5  C   UNL     1      -0.102  -1.326   0.585  0.00  0.00    +0.061 A 
ATOM      6  C   UNL     1       0.815  -0.605   1.273  0.00  0.00    +0.072 A 
ATOM      7  S   UNL     1       1.944  -1.895   1.776  0.00  0.00    -0.061 S 
ATOM      8  C   UNL     1       1.107  -3.227   1.041  0.00  0.00    +0.156 A 
ATOM      9  N   UNL     1       0.069  -2.631   0.486  0.00  0.00    -0.229 NA
ATOM     10  N   UNL     1       1.443  -4.572   1.039  0.00  0.00    -0.338 N 
ATOM     11  H   UNL     1       0.875  -5.213   0.582  0.00  0.00    +0.144 HD
ATOM     12  H   UNL     1       2.245  -4.872   1.494  0.00  0.00    +0.144 HD
ENDBRANCH   4   5
BRANCH   4  13
ATOM     13  C   UNL     1      -2.373  -0.210   0.897  0.00  0.00    -0.031 A 
ATOM     14  C   UNL     1      -3.143  -1.151   1.555  0.00  0.00    +0.008 A 
ATOM     15  C   UNL     1      -4.133  -0.748   2.431  0.00  0.00    +0.050 A 
ATOM     16  C   UNL     1      -4.364   0.601   2.643  0.00  0.00    +0.162 A 
ATOM     17  C   UNL     1      -3.593   1.549   1.977  0.00  0.00    +0.162 A 
ATOM     18  C   UNL     1      -2.598   1.139   1.105  0.00  0.00    +0.054 A 
BRANCH  17  19
ATOM     19  O   UNL     1      -3.815   2.875   2.182  0.00  0.00    -0.491 OA
ATOM     20  C   UNL     1      -2.986   3.791   1.464  0.00  0.00    +0.277 C 
ENDBRANCH  17  19
BRANCH  16  21
ATOM     21  O   UNL     1      -5.341   0.999   3.501  0.00  0.00    -0.491 OA
ATOM     22  C   UNL     1      -6.093  -0.029   4.150  0.00  0.00    +0.277 C 
ENDBRANCH  16  21
ENDBRANCH   4  13
TORSDOF 4
