REMARK  Name = ZINC41586435
REMARK  9 active torsions:
REMARK  status: ('A' for Active; 'I' for Inactive)
REMARK    1  A    between atoms: C_1  and  C_2
REMARK    2  A    between atoms: C_2  and  O_3
REMARK    3  A    between atoms: O_3  and  C_4
REMARK    4  A    between atoms: C_4  and  C_6
REMARK    5  A    between atoms: N_11  and  C_13
REMARK    6  A    between atoms: C_13  and  C_14
REMARK    7  A    between atoms: C_15  and  O_32
REMARK    8  A    between atoms: C_22  and  C_23
REMARK    9  A    between atoms: C_26  and  C_29
REMARK                            x       y       z     vdW  Elec       q    Type
REMARK                         _______ _______ _______ _____ _____    ______ ____
ROOT
ATOM      1  C   UNL     1       2.734  -6.431   4.837  0.00  0.00    +0.020 A 
ATOM      2  C   UNL     1       4.088  -6.723   4.891  0.00  0.00    +0.122 A 
ATOM      3  C   UNL     1       4.652  -7.257   6.045  0.00  0.00    +0.046 A 
ATOM      4  C   UNL     1       3.872  -7.500   7.141  0.00  0.00    +0.019 A 
ATOM      5  C   UNL     1       2.508  -7.212   7.101  0.00  0.00    +0.068 A 
ATOM      6  C   UNL     1       1.928  -6.667   5.944  0.00  0.00    +0.144 A 
ATOM      7  O   UNL     1       0.607  -6.468   6.145  0.00  0.00    -0.451 OA
ATOM      8  C   UNL     1       0.226  -6.841   7.390  0.00  0.00    +0.176 C 
ATOM      9  C   UNL     1      -1.028  -6.768   7.899  0.00  0.00    +0.058 C 
ATOM     10  C   UNL     1       1.419  -7.352   8.085  0.00  0.00    +0.231 C 
ATOM     11  O   UNL     1       1.492  -7.782   9.223  0.00  0.00    -0.283 OA
ENDROOT
BRANCH   9  12
ATOM     12  C   UNL     1      -2.103  -6.138   7.118  0.00  0.00    -0.021 A 
ATOM     13  C   UNL     1      -3.365  -5.941   7.690  0.00  0.00    +0.008 A 
ATOM     14  C   UNL     1      -4.367  -5.350   6.951  0.00  0.00    +0.004 A 
ATOM     15  C   UNL     1      -4.129  -4.952   5.646  0.00  0.00    -0.050 A 
ATOM     16  C   UNL     1      -2.883  -5.145   5.073  0.00  0.00    +0.004 A 
ATOM     17  C   UNL     1      -1.868  -5.728   5.801  0.00  0.00    +0.008 A 
ATOM     18  C   UNL     1      -5.231  -4.308   4.846  0.00  0.00    +0.044 C 
ENDBRANCH   9  12
BRANCH   2  19
ATOM     19  O   UNL     1       4.870  -6.485   3.807  0.00  0.00    -0.506 OA
ATOM     20  H   UNL     1       5.261  -5.600   3.791  0.00  0.00    +0.292 HD
ENDBRANCH   2  19
BRANCH   1  21
ATOM     21  C   UNL     1       2.136  -5.853   3.580  0.00  0.00    -0.036 C 
BRANCH  21  26
ATOM     22  C   UNL     1       1.507  -2.295   2.567  0.00  0.00    +0.081 C 
ATOM     23  C   UNL     1       2.952  -1.789   2.594  0.00  0.00    +0.011 C 
ATOM     24  C   UNL     1       3.689  -2.442   3.767  0.00  0.00    -0.018 C 
ATOM     25  C   UNL     1       3.610  -3.963   3.628  0.00  0.00    -0.078 C 
ATOM     26  N   UNL     1       2.205  -4.387   3.635  0.00  0.00    +0.383 N 
ATOM     27  C   UNL     1       1.508  -3.822   2.473  0.00  0.00    -0.064 C 
ATOM     28  H   UNL     1       1.761  -4.063   4.481  0.00  0.00    -0.081 HD
BRANCH  22  29
ATOM     29  C   UNL     1       0.795  -1.718   1.371  0.00  0.00    +0.308 C 
ATOM     30  O   UNL     1       0.333  -2.453   0.530  0.00  0.00    -0.251 OA
BRANCH  29  31
ATOM     31  O   UNL     1       0.673  -0.387   1.240  0.00  0.00    -0.465 OA
BRANCH  31  33
ATOM     32  C   UNL     1      -0.053   1.619   0.106  0.00  0.00    +0.048 C 
ATOM     33  C   UNL     1      -0.015   0.090   0.081  0.00  0.00    +0.229 C 
ENDBRANCH  31  33
ENDBRANCH  29  31
ENDBRANCH  22  29
ENDBRANCH  21  26
ENDBRANCH   1  21
TORSDOF 7
