REMARK  Name = ZINC02250173
REMARK  5 active torsions:
REMARK  status: ('A' for Active; 'I' for Inactive)
REMARK    1  A    between atoms: C_1  and  C_2
REMARK    2  A    between atoms: C_5  and  C_8
REMARK    3  A    between atoms: C_25  and  C_27
REMARK    4  A    between atoms: C_30  and  O_33
REMARK    5  A    between atoms: O_33  and  C_34
REMARK                            x       y       z     vdW  Elec       q    Type
REMARK                         _______ _______ _______ _____ _____    ______ ____
ROOT
ATOM      1  C   UNL     1       0.017  -4.238   0.051  0.00  0.00    +0.234 C 
ATOM      2  C   UNL     1      -1.369  -4.779   0.248  0.00  0.00    +0.027 C 
ATOM      3  C   UNL     1      -1.838  -5.030   1.488  0.00  0.00    +0.083 C 
ATOM      4  C   UNL     1      -0.930  -4.761   2.631  0.00  0.00    +0.042 A 
ATOM      5  C   UNL     1      -1.407  -4.672   3.932  0.00  0.00    +0.013 A 
ATOM      6  C   UNL     1      -0.526  -4.419   4.966  0.00  0.00    +0.001 A 
ATOM      7  C   UNL     1       0.824  -4.255   4.707  0.00  0.00    +0.004 A 
ATOM      8  C   UNL     1       1.307  -4.343   3.414  0.00  0.00    +0.046 A 
ATOM      9  C   UNL     1       0.436  -4.597   2.369  0.00  0.00    +0.131 A 
ATOM     10  O   UNL     1       0.880  -4.693   1.095  0.00  0.00    -0.479 OA
ATOM     11  N   UNL     1      -3.090  -5.511   1.687  0.00  0.00    -0.213 NA
ATOM     12  C   UNL     1      -3.942  -5.781   0.726  0.00  0.00    +0.237 C 
ATOM     13  N   UNL     1      -5.205  -6.260   0.747  0.00  0.00    -0.205 NA
ATOM     14  C   UNL     1      -5.669  -6.372  -0.467  0.00  0.00    +0.203 C 
ATOM     15  N   UNL     1      -4.720  -5.966  -1.355  0.00  0.00    -0.251 N 
ATOM     16  N   UNL     1      -3.609  -5.583  -0.600  0.00  0.00    -0.208 N 
ATOM     17  C   UNL     1      -2.278  -5.059  -0.928  0.00  0.00    +0.159 C 
ATOM     18  H   UNL     1      -4.800  -5.946  -2.322  0.00  0.00    +0.171 HD
ENDROOT
BRANCH   1  23
ATOM     19  C   UNL     1      -0.159   1.538   0.103  0.00  0.00    +0.044 C 
ATOM     20  C   UNL     1      -0.113   0.032   0.089  0.00  0.00    -0.050 A 
ATOM     21  C   UNL     1      -0.287  -0.676   1.264  0.00  0.00    +0.004 A 
ATOM     22  C   UNL     1      -0.245  -2.057   1.252  0.00  0.00    +0.008 A 
ATOM     23  C   UNL     1      -0.030  -2.731   0.064  0.00  0.00    -0.003 A 
ATOM     24  C   UNL     1       0.143  -2.024  -1.111  0.00  0.00    +0.008 A 
ATOM     25  C   UNL     1       0.097  -0.642  -1.099  0.00  0.00    +0.004 A 
ENDBRANCH   1  23
BRANCH  17  26
ATOM     26  C   UNL     1      -2.455  -3.777  -1.700  0.00  0.00    -0.021 A 
ATOM     27  C   UNL     1      -3.235  -2.760  -1.181  0.00  0.00    +0.009 A 
ATOM     28  C   UNL     1      -3.399  -1.584  -1.888  0.00  0.00    +0.046 A 
ATOM     29  C   UNL     1      -2.780  -1.424  -3.119  0.00  0.00    +0.120 A 
ATOM     30  C   UNL     1      -1.998  -2.446  -3.638  0.00  0.00    +0.046 A 
ATOM     31  C   UNL     1      -1.833  -3.618  -2.925  0.00  0.00    +0.009 A 
BRANCH  29  32
ATOM     32  O   UNL     1      -2.941  -0.269  -3.816  0.00  0.00    -0.495 OA
ATOM     33  C   UNL     1      -2.274  -0.174  -5.077  0.00  0.00    +0.277 C 
ENDBRANCH  29  32
ENDBRANCH  17  26
TORSDOF 3
