REMARK  Name = ZINC45772693
REMARK  6 active torsions:
REMARK  status: ('A' for Active; 'I' for Inactive)
REMARK    1  A    between atoms: C_3  and  C_6
REMARK    2  A    between atoms: C_6  and  C_8
REMARK    3  A    between atoms: C_6  and  N_31
REMARK    4  A    between atoms: C_8  and  N_9
REMARK    5  A    between atoms: C_10  and  C_12
REMARK    6  A    between atoms: C_24  and  C_27
REMARK                            x       y       z     vdW  Elec       q    Type
REMARK                         _______ _______ _______ _____ _____    ______ ____
ROOT
ATOM      1  C   UNL     1       7.833  -0.828  -2.376  0.00  0.00    +0.078 C 
ATOM      2  C   UNL     1       8.565   0.466  -2.013  0.00  0.00    +0.031 C 
ATOM      3  C   UNL     1      10.062   0.177  -1.869  0.00  0.00    +0.107 C 
ATOM      4  N   UNL     1      10.542  -0.461  -3.102  0.00  0.00    -0.314 N 
ATOM      5  C   UNL     1       9.850  -1.662  -3.591  0.00  0.00    +0.107 C 
ATOM      6  C   UNL     1       8.355  -1.353  -3.716  0.00  0.00    +0.031 C 
ATOM      7  C   UNL     1      11.629   0.061  -3.794  0.00  0.00    +0.142 A 
ATOM      8  C   UNL     1      12.359   1.131  -3.238  0.00  0.00    +0.049 A 
ATOM      9  C   UNL     1      13.423   1.649  -3.906  0.00  0.00    +0.053 A 
ATOM     10  C   UNL     1      13.783   1.103  -5.153  0.00  0.00    +0.178 A 
ATOM     11  N   UNL     1      14.737   1.372  -6.029  0.00  0.00    -0.128 NA
ATOM     12  N   UNL     1      14.633   0.569  -7.030  0.00  0.00    -0.123 NA
ATOM     13  C   UNL     1      13.622  -0.245  -6.852  0.00  0.00    +0.258 A 
ATOM     14  N   UNL     1      13.052   0.061  -5.667  0.00  0.00    -0.187 N 
ATOM     15  N   UNL     1      11.967  -0.452  -4.954  0.00  0.00    -0.148 NA
ENDROOT
BRANCH   1  17
ATOM     16  N   UNL     1       5.676  -0.084  -1.420  0.00  0.00    -0.316 N 
ATOM     17  C   UNL     1       6.355  -0.555  -2.485  0.00  0.00    +0.216 C 
ATOM     18  O   UNL     1       5.776  -0.760  -3.531  0.00  0.00    -0.276 OA
ATOM     19  H   UNL     1       6.139   0.080  -0.584  0.00  0.00    +0.149 HD
BRANCH  16  20
ATOM     20  C   UNL     1       4.239   0.181  -1.526  0.00  0.00    +0.096 C 
BRANCH  20  21
ATOM     21  C   UNL     1       3.692   0.582  -0.155  0.00  0.00    +0.016 C 
BRANCH  21  22
ATOM     22  N   UNL     1       4.016  -0.463   0.826  0.00  0.00    +0.387 N 
ATOM     23  C   UNL     1       3.493  -1.752   0.356  0.00  0.00    -0.078 C 
ATOM     24  C   UNL     1       3.897  -2.857   1.333  0.00  0.00    -0.019 C 
ATOM     25  C   UNL     1       3.319  -2.545   2.716  0.00  0.00    -0.004 C 
ATOM     26  C   UNL     1       3.812  -1.165   3.164  0.00  0.00    -0.019 C 
ATOM     27  C   UNL     1       3.411  -0.122   2.119  0.00  0.00    -0.078 C 
ATOM     28  H   UNL     1       5.017  -0.527   0.930  0.00  0.00    -0.081 HD
ENDBRANCH  21  22
BRANCH  21  31
ATOM     29  C   UNL     1       0.155   1.605  -0.322  0.00  0.00    +0.041 A 
ATOM     30  C   UNL     1       1.531   1.915  -0.220  0.00  0.00    +0.043 A 
ATOM     31  C   UNL     1       2.196   0.746  -0.239  0.00  0.00    +0.093 A 
ATOM     32  O   UNL     1       1.302  -0.250  -0.347  0.00  0.00    -0.469 OA
ATOM     33  C   UNL     1       0.062   0.265  -0.398  0.00  0.00    +0.195 A 
ENDBRANCH  21  31
ENDBRANCH  20  21
ENDBRANCH  16  20
ENDBRANCH   1  17
BRANCH  13  34
ATOM     34  C   UNL     1      13.175  -1.329  -7.800  0.00  0.00    +0.454 C 
ATOM     35  F   UNL     1      14.185  -1.575  -8.736  0.00  0.00    -0.163 F 
ATOM     36  F   UNL     1      12.912  -2.499  -7.079  0.00  0.00    -0.163 F 
ATOM     37  F   UNL     1      12.014  -0.918  -8.463  0.00  0.00    -0.163 F 
ENDBRANCH  13  34
TORSDOF 6
