REMARK  Name = ZINC15968453
REMARK  4 active torsions:
REMARK  status: ('A' for Active; 'I' for Inactive)
REMARK    1  A    between atoms: C_1  and  C_2
REMARK    2  A    between atoms: C_16  and  C_19
REMARK    3  A    between atoms: C_19  and  C_20
REMARK    4  A    between atoms: N_32  and  C_35
REMARK                            x       y       z     vdW  Elec       q    Type
REMARK                         _______ _______ _______ _____ _____    ______ ____
ROOT
ATOM      1  C   UNL     1       1.093   1.501  -0.178  0.00  0.00    +0.046 C 
ATOM      2  C   UNL     1       0.800   0.024  -0.130  0.00  0.00    -0.028 A 
ATOM      3  C   UNL     1       0.628  -0.682  -1.303  0.00  0.00    +0.025 A 
ATOM      4  C   UNL     1       0.359  -2.038  -1.269  0.00  0.00    +0.042 A 
ATOM      5  C   UNL     1       0.261  -2.691  -0.051  0.00  0.00    +0.027 A 
ATOM      6  C   UNL     1       0.431  -1.990   1.121  0.00  0.00    +0.005 A 
ATOM      7  C   UNL     1       0.708  -0.626   1.099  0.00  0.00    +0.042 A 
ATOM      8  N   UNL     1       0.846  -0.140   2.401  0.00  0.00    -0.283 N 
ATOM      9  C   UNL     1       0.681  -1.107   3.324  0.00  0.00    +0.243 C 
ATOM     10  O   UNL     1       0.745  -0.977   4.528  0.00  0.00    -0.273 OA
ATOM     11  C   UNL     1       0.391  -2.377   2.572  0.00  0.00    +0.136 C 
ATOM     12  C   UNL     1       1.433  -3.455   2.895  0.00  0.00    +0.123 C 
ATOM     13  C   UNL     1       0.633  -4.788   2.877  0.00  0.00    +0.108 C 
ATOM     14  C   UNL     1      -0.811  -4.379   2.516  0.00  0.00    +0.072 C 
ATOM     15  N   UNL     1      -0.915  -2.951   2.943  0.00  0.00    -0.295 NA
ATOM     16  C   UNL     1       0.692  -5.250   4.315  0.00  0.00    +0.232 C 
ATOM     17  O   UNL     1       0.179  -6.260   4.748  0.00  0.00    -0.274 OA
ATOM     18  N   UNL     1       1.397  -4.371   5.036  0.00  0.00    -0.210 N 
ATOM     19  C   UNL     1       1.875  -3.317   4.335  0.00  0.00    +0.233 C 
ATOM     20  O   UNL     1       2.545  -2.409   4.777  0.00  0.00    -0.274 OA
ATOM     21 CL   UNL     1       0.143  -2.920  -2.749  0.00  0.00    -0.084 Cl
ATOM     22  H   UNL     1       1.038   0.787   2.616  0.00  0.00    +0.155 HD
ATOM     23  H   UNL     1      -1.076  -2.872   3.936  0.00  0.00    +0.124 HD
ENDROOT
BRANCH  18  24
ATOM     24  C   UNL     1       1.630  -4.530   6.410  0.00  0.00    +0.044 A 
ATOM     25  C   UNL     1       1.054  -3.653   7.319  0.00  0.00    +0.024 A 
ATOM     26  C   UNL     1       1.285  -3.812   8.671  0.00  0.00    +0.002 A 
ATOM     27  C   UNL     1       2.089  -4.844   9.120  0.00  0.00    +0.000 A 
ATOM     28  C   UNL     1       2.664  -5.719   8.217  0.00  0.00    +0.002 A 
ATOM     29  C   UNL     1       2.432  -5.568   6.864  0.00  0.00    +0.024 A 
ENDBRANCH  18  24
BRANCH  14  30
ATOM     30  C   UNL     1      -1.816  -5.229   3.297  0.00  0.00    +0.056 C 
BRANCH  30  31
ATOM     31  C   UNL     1      -3.214  -4.900   2.840  0.00  0.00    -0.021 A 
ATOM     32  C   UNL     1      -4.052  -4.017   3.407  0.00  0.00    +0.087 A 
ATOM     33  N   UNL     1      -5.233  -3.987   2.718  0.00  0.00    -0.360 N 
ATOM     34  H   UNL     1      -5.993  -3.426   2.939  0.00  0.00    +0.165 HD
ATOM     35  C   UNL     1      -5.183  -4.871   1.663  0.00  0.00    +0.047 A 
ATOM     36  C   UNL     1      -3.914  -5.477   1.690  0.00  0.00    +0.003 A 
ATOM     37  C   UNL     1      -3.574  -6.426   0.724  0.00  0.00    +0.010 A 
ATOM     38  C   UNL     1      -4.476  -6.758  -0.247  0.00  0.00    +0.001 A 
ATOM     39  C   UNL     1      -5.729  -6.160  -0.280  0.00  0.00    +0.002 A 
ATOM     40  C   UNL     1      -6.088  -5.229   0.669  0.00  0.00    +0.026 A 
ENDBRANCH  30  31
ENDBRANCH  14  30
TORSDOF 3
