REMARK  Name = ZINC49487617
REMARK  9 active torsions:
REMARK  status: ('A' for Active; 'I' for Inactive)
REMARK    1  A    between atoms: C_1  and  N_2
REMARK    2  A    between atoms: N_2  and  C_3
REMARK    3  A    between atoms: N_2  and  C_4
REMARK    4  A    between atoms: C_4  and  C_6
REMARK    5  A    between atoms: C_4  and  C_26
REMARK    6  A    between atoms: C_6  and  N_7
REMARK    7  A    between atoms: C_8  and  C_10
REMARK    8  A    between atoms: N_12  and  C_13
REMARK    9  A    between atoms: C_17  and  N_19
REMARK                            x       y       z     vdW  Elec       q    Type
REMARK                         _______ _______ _______ _____ _____    ______ ____
ROOT
ATOM      1  N   UNL     1      -1.216  -2.525   1.160  0.00  0.00    -0.309 N 
ATOM      2  C   UNL     1      -1.397  -3.843   1.378  0.00  0.00    +0.299 C 
ATOM      3  O   UNL     1      -2.023  -4.509   0.580  0.00  0.00    -0.265 OA
ATOM      4  H   UNL     1      -0.716  -1.992   1.798  0.00  0.00    +0.149 HD
ENDROOT
BRANCH   2   5
ATOM      5  C   UNL     1      -0.828  -4.483   2.601  0.00  0.00    +0.303 C 
ATOM      6  O   UNL     1      -0.202  -3.816   3.399  0.00  0.00    -0.265 OA
ATOM      7  N   UNL     1      -1.009  -5.800   2.819  0.00  0.00    -0.278 N 
ATOM      8  H   UNL     1      -1.445  -6.348   2.147  0.00  0.00    +0.155 HD
BRANCH   7   9
ATOM      9  C   UNL     1      -0.569  -6.378   4.012  0.00  0.00    +0.036 A 
ATOM     10  C   UNL     1      -0.624  -5.655   5.198  0.00  0.00    +0.023 A 
ATOM     11  C   UNL     1      -0.189  -6.226   6.378  0.00  0.00    +0.004 A 
ATOM     12  C   UNL     1       0.303  -7.517   6.384  0.00  0.00    +0.023 A 
ATOM     13  C   UNL     1       0.362  -8.245   5.203  0.00  0.00    +0.038 A 
ATOM     14  C   UNL     1      -0.080  -7.678   4.016  0.00  0.00    +0.046 A 
BRANCH  13  15
ATOM     15  N   UNL     1       0.861  -9.553   5.210  0.00  0.00    -0.271 N 
ATOM     16  C   UNL     1       0.106 -10.568   5.933  0.00  0.00    +0.113 C 
ATOM     17  C   UNL     1       0.504 -11.967   5.462  0.00  0.00    +0.020 C 
ATOM     18  C   UNL     1       2.032 -12.084   5.505  0.00  0.00    +0.011 C 
ATOM     19  C   UNL     1       2.618 -11.154   4.440  0.00  0.00    +0.096 C 
ATOM     20  C   UNL     1       1.995  -9.792   4.550  0.00  0.00    +0.220 C 
ATOM     21  O   UNL     1       2.555  -8.860   4.014  0.00  0.00    -0.275 OA
ENDBRANCH  13  15
ENDBRANCH   7   9
ENDBRANCH   2   5
BRANCH   1  22
ATOM     22  C   UNL     1      -1.775  -1.897  -0.040  0.00  0.00    +0.094 C 
BRANCH  22  23
ATOM     23  C   UNL     1      -1.537  -0.387   0.017  0.00  0.00    -0.020 C 
BRANCH  23  24
ATOM     24  C   UNL     1      -0.058  -0.108  -0.058  0.00  0.00    -0.052 A 
ATOM     25  C   UNL     1       0.665   0.059   1.083  0.00  0.00    +0.003 A 
ATOM     26  C   UNL     1       2.033   0.318   1.034  0.00  0.00    +0.001 A 
ATOM     27  C   UNL     1       2.686   0.411  -0.157  0.00  0.00    +0.008 A 
ATOM     28  C   UNL     1       1.973   0.245  -1.356  0.00  0.00    -0.018 A 
ATOM     29  C   UNL     1       0.582  -0.024  -1.305  0.00  0.00    -0.016 A 
ATOM     30  C   UNL     1      -0.130  -0.196  -2.505  0.00  0.00    +0.009 A 
ATOM     31  C   UNL     1       0.524  -0.108  -3.695  0.00  0.00    +0.001 A 
ATOM     32  C   UNL     1       1.893   0.150  -3.744  0.00  0.00    +0.001 A 
ATOM     33  C   UNL     1       2.612   0.336  -2.604  0.00  0.00    +0.008 A 
ENDBRANCH  23  24
BRANCH  23  35
ATOM     34  C   UNL     1      -1.947   1.610   1.283  0.00  0.00    -0.096 C 
ATOM     35  N   UNL     1      -2.073   0.146   1.277  0.00  0.00    +0.382 N 
ATOM     36  C   UNL     1      -3.489  -0.224   1.402  0.00  0.00    -0.096 C 
ATOM     37  H   UNL     1      -1.555  -0.239   2.052  0.00  0.00    -0.082 HD
ENDBRANCH  23  35
ENDBRANCH  22  23
ENDBRANCH   1  22
TORSDOF 7
