REMARK  Name = ZINC13409756
REMARK  6 active torsions:
REMARK  status: ('A' for Active; 'I' for Inactive)
REMARK    1  A    between atoms: C_1  and  C_2
REMARK    2  A    between atoms: C_2  and  O_27
REMARK    3  A    between atoms: C_4  and  C_21
REMARK    4  A    between atoms: C_6  and  N_18
REMARK    5  A    between atoms: C_8  and  C_11
REMARK    6  A    between atoms: C_16  and  N_17
REMARK                            x       y       z     vdW  Elec       q    Type
REMARK                         _______ _______ _______ _____ _____    ______ ____
ROOT
ATOM      1  C   UNL     1      -0.753   1.048   2.578  0.00  0.00    +0.074 C 
ATOM      2  C   UNL     1      -1.210   1.593   1.223  0.00  0.00    +0.166 C 
ATOM      3  C   UNL     1      -0.263   1.095   0.128  0.00  0.00    +0.075 C 
ATOM      4  C   UNL     1      -0.759   1.595  -1.232  0.00  0.00    +0.056 C 
ATOM      5  C   UNL     1      -2.198   1.114  -1.447  0.00  0.00    +0.210 C 
ATOM      6  C   UNL     1      -3.071   1.611  -0.292  0.00  0.00    +0.183 C 
ATOM      7  O   UNL     1      -2.537   1.137   0.946  0.00  0.00    -0.339 OA
ENDROOT
BRANCH   6   8
ATOM      8  C   UNL     1      -4.476   1.094  -0.464  0.00  0.00    +0.004 A 
ATOM      9  C   UNL     1      -4.868  -0.067   0.174  0.00  0.00    +0.008 A 
ATOM     10  C   UNL     1      -6.157  -0.542   0.017  0.00  0.00    +0.000 A 
ATOM     11  C   UNL     1      -7.057   0.141  -0.780  0.00  0.00    +0.002 A 
ATOM     12  C   UNL     1      -6.671   1.302  -1.421  0.00  0.00    +0.023 A 
ATOM     13  C   UNL     1      -5.379   1.786  -1.261  0.00  0.00    +0.030 A 
BRANCH  13  14
ATOM     14  N   UNL     1      -4.987   2.962  -1.904  0.00  0.00    -0.358 N 
ATOM     15  H   UNL     1      -4.083   3.297  -1.794  0.00  0.00    +0.142 HD
ATOM     16  H   UNL     1      -5.618   3.444  -2.460  0.00  0.00    +0.142 HD
ENDBRANCH  13  14
ENDBRANCH   6   8
BRANCH   4  17
ATOM     17  C   UNL     1      -0.719   3.101  -1.262  0.00  0.00    -0.042 A 
ATOM     18  C   UNL     1      -1.698   3.805  -1.937  0.00  0.00    +0.004 A 
ATOM     19  C   UNL     1      -1.663   5.187  -1.960  0.00  0.00    +0.000 A 
ATOM     20  C   UNL     1      -0.644   5.864  -1.316  0.00  0.00    +0.000 A 
ATOM     21  C   UNL     1       0.337   5.159  -0.644  0.00  0.00    +0.000 A 
ATOM     22  C   UNL     1       0.300   3.777  -0.618  0.00  0.00    +0.004 A 
ENDBRANCH   4  17
BRANCH   5  23
ATOM     23  N   UNL     1      -2.225  -0.350  -1.486  0.00  0.00    +0.029 N 
ATOM     24  O   UNL     1      -1.841  -0.992  -0.524  0.00  0.00    -0.131 OA
ATOM     25  O   UNL     1      -2.631  -0.925  -2.479  0.00  0.00    -0.131 OA
ENDBRANCH   5  23
BRANCH   2  26
ATOM     26  O   UNL     1      -1.194   3.021   1.254  0.00  0.00    -0.365 OA
ATOM     27  H   UNL     1      -1.713   3.405   1.974  0.00  0.00    +0.213 HD
ENDBRANCH   2  26
TORSDOF 5
