REMARK  Name = ZINC09951561
REMARK  8 active torsions:
REMARK  status: ('A' for Active; 'I' for Inactive)
REMARK    1  A    between atoms: C_1  and  C_2
REMARK    2  A    between atoms: C_2  and  C_4
REMARK    3  A    between atoms: C_2  and  S_17
REMARK    4  A    between atoms: N_6  and  C_7
REMARK    5  A    between atoms: C_10  and  S_13
REMARK    6  A    between atoms: S_13  and  N_16
REMARK    7  A    between atoms: S_17  and  C_18
REMARK    8  A    between atoms: C_22  and  C_24
REMARK                            x       y       z     vdW  Elec       q    Type
REMARK                         _______ _______ _______ _____ _____    ______ ____
ROOT
ATOM      1  C   UNL     1      -0.032   1.519   0.015  0.00  0.00    +0.029 C 
ATOM      2  C   UNL     1      -0.000  -0.010   0.003  0.00  0.00    +0.137 C 
ENDROOT
BRANCH   2   3
ATOM      3  C   UNL     1       0.708  -0.488  -1.238  0.00  0.00    +0.230 C 
ATOM      4  O   UNL     1       1.867  -0.839  -1.178  0.00  0.00    -0.274 OA
ATOM      5  N   UNL     1       0.053  -0.526  -2.415  0.00  0.00    -0.285 N 
ATOM      6  H   UNL     1      -0.892  -0.310  -2.452  0.00  0.00    +0.155 HD
BRANCH   5   7
ATOM      7  C   UNL     1       0.736  -0.877  -3.585  0.00  0.00    +0.034 A 
ATOM      8  C   UNL     1       0.406  -0.273  -4.791  0.00  0.00    +0.025 A 
ATOM      9  C   UNL     1       1.082  -0.621  -5.944  0.00  0.00    +0.030 A 
ATOM     10  C   UNL     1       2.086  -1.571  -5.898  0.00  0.00    +0.105 A 
ATOM     11  C   UNL     1       2.416  -2.175  -4.699  0.00  0.00    +0.030 A 
ATOM     12  C   UNL     1       1.748  -1.827  -3.542  0.00  0.00    +0.025 A 
BRANCH  10  13
ATOM     13  S   UNL     1       2.946  -2.013  -7.371  0.00  0.00    +0.056 S 
ATOM     14  O   UNL     1       3.467  -3.318  -7.161  0.00  0.00    -0.153 OA
ATOM     15  O   UNL     1       2.080  -1.704  -8.455  0.00  0.00    -0.153 OA
BRANCH  13  16
ATOM     16  N   UNL     1       4.248  -0.999  -7.501  0.00  0.00    -0.204 NA
ATOM     17  H   UNL     1       4.405  -0.322  -6.825  0.00  0.00    +0.144 HD
ATOM     18  H   UNL     1       4.854  -1.081  -8.254  0.00  0.00    +0.144 HD
ENDBRANCH  13  16
ENDBRANCH  10  13
ENDBRANCH   5   7
ENDBRANCH   2   3
BRANCH   2  19
ATOM     19  S   UNL     1       0.882  -0.609   1.471  0.00  0.00    -0.074 S 
BRANCH  19  20
ATOM     20  C   UNL     1      -0.136  -0.101   2.817  0.00  0.00    +0.185 A 
ATOM     21  N   UNL     1       0.114  -0.318   4.127  0.00  0.00    -0.253 N 
ATOM     22  H   UNL     1       0.881  -0.778   4.503  0.00  0.00    +0.191 HD
ATOM     23  N   UNL     1      -0.954   0.254   4.837  0.00  0.00    -0.152 NA
ATOM     24  C   UNL     1      -1.770   0.772   3.947  0.00  0.00    +0.182 A 
ATOM     25  N   UNL     1      -1.268   0.560   2.722  0.00  0.00    -0.201 NA
BRANCH  24  26
ATOM     26  C   UNL     1      -3.038   1.481   4.250  0.00  0.00    +0.021 A 
ATOM     27  C   UNL     1      -3.823   1.982   3.213  0.00  0.00    +0.013 A 
ATOM     28  C   UNL     1      -5.002   2.640   3.499  0.00  0.00    +0.021 A 
ATOM     29  C   UNL     1      -5.405   2.803   4.814  0.00  0.00    +0.041 A 
ATOM     30  C   UNL     1      -4.628   2.307   5.847  0.00  0.00    +0.021 A 
ATOM     31  C   UNL     1      -3.451   1.643   5.571  0.00  0.00    +0.013 A 
ATOM     32 CL   UNL     1      -6.888   3.632   5.167  0.00  0.00    -0.084 Cl
ENDBRANCH  24  26
ENDBRANCH  19  20
ENDBRANCH   2  19
TORSDOF 7
