REMARK  Name = ZINC16971121
REMARK  0 active torsions:
REMARK  status: ('A' for Active; 'I' for Inactive)
REMARK                            x       y       z     vdW  Elec       q    Type
REMARK                         _______ _______ _______ _____ _____    ______ ____
ROOT
ATOM      1  C   UNL     1      -1.244   3.130   0.038  0.00  0.00    +0.000 A 
ATOM      2  C   UNL     1      -1.216   1.747   0.016  0.00  0.00    +0.002 A 
ATOM      3  C   UNL     1      -0.012   1.077   0.006  0.00  0.00    +0.024 A 
ATOM      4  C   UNL     1       1.190   1.788   0.004  0.00  0.00    +0.040 A 
ATOM      5  C   UNL     1       1.151   3.173   0.019  0.00  0.00    -0.024 A 
ATOM      6  C   UNL     1      -0.058   3.841   0.035  0.00  0.00    +0.005 A 
ATOM      7  C   UNL     1       2.571   3.694   0.013  0.00  0.00    +0.056 C 
ATOM      8  C   UNL     1       3.446   2.430  -0.006  0.00  0.00    +0.118 C 
ATOM      9  N   UNL     1       2.502   1.309  -0.010  0.00  0.00    -0.272 N 
ATOM     10  C   UNL     1       2.853  -0.008  -0.026  0.00  0.00    +0.183 A 
ATOM     11  N   UNL     1       1.891  -0.896   0.081  0.00  0.00    -0.296 N 
ATOM     12  C   UNL     1       2.122  -2.209   0.082  0.00  0.00    +0.256 A 
ATOM     13  O   UNL     1       1.210  -3.006   0.183  0.00  0.00    -0.268 OA
ATOM     14  C   UNL     1       3.559  -2.676  -0.045  0.00  0.00    +0.140 A 
ATOM     15  C   UNL     1       4.610  -1.587  -0.164  0.00  0.00    +0.256 A 
ATOM     16  O   UNL     1       5.788  -1.855  -0.271  0.00  0.00    -0.268 OA
ATOM     17  N   UNL     1       4.176  -0.307  -0.151  0.00  0.00    -0.296 N 
ATOM     18  H   UNL     1       0.862  -0.519   0.172  0.00  0.00    +0.172 HD
ATOM     19  H   UNL     1       4.897   0.518  -0.243  0.00  0.00    +0.172 HD
ENDROOT
TORSDOF 0
