REMARK  Name = ZINC33324924
REMARK  4 active torsions:
REMARK  status: ('A' for Active; 'I' for Inactive)
REMARK    1  A    between atoms: C_1  and  C_2
REMARK    2  A    between atoms: C_10  and  C_12
REMARK    3  A    between atoms: C_16  and  O_18
REMARK    4  A    between atoms: C_22  and  C_25
REMARK                            x       y       z     vdW  Elec       q    Type
REMARK                         _______ _______ _______ _____ _____    ______ ____
ROOT
ATOM      1  C   UNL     1      -1.922  13.226   1.014  0.00  0.00    +0.069 C 
ATOM      2  C   UNL     1      -1.694  11.996   1.854  0.00  0.00    +0.087 A 
ATOM      3  C   UNL     1      -1.300  10.738   1.406  0.00  0.00    +0.049 A 
ATOM      4  C   UNL     1      -1.236   9.974   2.543  0.00  0.00    +0.226 A 
ATOM      5  O   UNL     1      -1.574  10.773   3.549  0.00  0.00    -0.339 OA
ATOM      6  N   UNL     1      -1.828  11.894   3.153  0.00  0.00    -0.081 NA
ATOM      7  N   UNL     1      -0.880   8.642   2.488  0.00  0.00    -0.286 N 
ATOM      8  C   UNL     1      -0.874   8.013   1.265  0.00  0.00    +0.019 C 
ATOM      9  C   UNL     1      -0.919   8.693   0.099  0.00  0.00    +0.024 C 
ATOM     10  C   UNL     1      -0.985  10.206   0.045  0.00  0.00    +0.091 C 
ATOM     11  C   UNL     1      -0.908   8.015  -1.134  0.00  0.00    +0.162 C 
ATOM     12  O   UNL     1      -0.971   8.656  -2.164  0.00  0.00    -0.292 OA
ATOM     13  C   UNL     1      -0.820   6.516  -1.206  0.00  0.00    +0.088 C 
ATOM     14  C   UNL     1      -0.079   6.003   0.034  0.00  0.00    +0.032 C 
ATOM     15  C   UNL     1      -0.820   6.503   1.276  0.00  0.00    +0.059 C 
ATOM     16  H   UNL     1      -0.609   8.107   3.409  0.00  0.00    +0.155 HD
ENDROOT
BRANCH  14  17
ATOM     17  C   UNL     1      -0.059   4.497   0.026  0.00  0.00    -0.043 A 
ATOM     18  C   UNL     1       1.148   3.822   0.012  0.00  0.00    +0.005 A 
ATOM     19  C   UNL     1       1.167   2.440   0.004  0.00  0.00    +0.020 A 
ATOM     20  C   UNL     1      -0.021   1.732   0.012  0.00  0.00    +0.041 A 
ATOM     21  C   UNL     1      -1.229   2.407   0.021  0.00  0.00    +0.020 A 
ATOM     22  C   UNL     1      -1.247   3.789   0.034  0.00  0.00    +0.005 A 
ATOM     23 CL   UNL     1       0.002  -0.004   0.002  0.00  0.00    -0.084 Cl
ENDBRANCH  14  17
BRANCH  10  24
ATOM     24  C   UNL     1       0.344  10.750  -0.412  0.00  0.00    -0.032 A 
ATOM     25  C   UNL     1       1.486  10.496   0.325  0.00  0.00    +0.005 A 
ATOM     26  C   UNL     1       2.707  10.989  -0.096  0.00  0.00    +0.004 A 
ATOM     27  C   UNL     1       2.788  11.747  -1.248  0.00  0.00    +0.045 A 
ATOM     28  C   UNL     1       1.643  12.009  -1.986  0.00  0.00    +0.117 A 
ATOM     29  C   UNL     1       0.419  11.508  -1.565  0.00  0.00    +0.050 A 
BRANCH  28  30
ATOM     30  O   UNL     1       1.719  12.755  -3.119  0.00  0.00    -0.507 OA
ATOM     31  H   UNL     1       0.810  12.961  -3.704  0.00  0.00    +0.292 HD
ENDBRANCH  28  30
ENDBRANCH  10  24
TORSDOF 3
