REMARK  Name = ZINC59830529
REMARK  9 active torsions:
REMARK  status: ('A' for Active; 'I' for Inactive)
REMARK    1  A    between atoms: C_1  and  C_2
REMARK    2  A    between atoms: C_2  and  C_27
REMARK    3  A    between atoms: N_3  and  N_4
REMARK    4  A    between atoms: C_7  and  S_10
REMARK    5  A    between atoms: S_10  and  C_11
REMARK    6  A    between atoms: C_11  and  C_12
REMARK    7  A    between atoms: N_14  and  C_15
REMARK    8  A    between atoms: N_14  and  C_21
REMARK    9  A    between atoms: C_32  and  O_33
REMARK                            x       y       z     vdW  Elec       q    Type
REMARK                         _______ _______ _______ _____ _____    ______ ____
ROOT
ATOM      1  N   UNL     1       1.775  -0.502   2.130  0.00  0.00    -0.205 N 
ATOM      2  C   UNL     1       1.520  -1.108   3.346  0.00  0.00    +0.232 A 
ATOM      3  N   UNL     1       1.360  -2.399   3.549  0.00  0.00    -0.186 NA
ATOM      4  C   UNL     1       1.131  -2.626   4.847  0.00  0.00    +0.211 A 
ATOM      5  N   UNL     1       1.143  -1.481   5.488  0.00  0.00    -0.144 NA
ATOM      6  N   UNL     1       1.399  -0.481   4.535  0.00  0.00    -0.245 N 
ATOM      7  H   UNL     1       1.883   0.461   2.081  0.00  0.00    +0.177 HD
ATOM      8  H   UNL     1       1.472   0.472   4.700  0.00  0.00    +0.192 HD
ENDROOT
BRANCH   1  11
ATOM      9  C   UNL     1       2.284   0.786  -0.250  0.00  0.00    +0.068 C 
ATOM     10  C   UNL     1       2.116  -0.709  -0.174  0.00  0.00    +0.067 C 
ATOM     11  N   UNL     1       1.877  -1.278   0.968  0.00  0.00    -0.184 NA
BRANCH  10  12
ATOM     12  C   UNL     1       2.223  -1.526  -1.397  0.00  0.00    +0.039 A 
ATOM     13  C   UNL     1       2.486  -0.918  -2.626  0.00  0.00    +0.013 A 
ATOM     14  C   UNL     1       2.584  -1.688  -3.766  0.00  0.00    +0.001 A 
ATOM     15  C   UNL     1       2.424  -3.061  -3.697  0.00  0.00    +0.004 A 
ATOM     16  C   UNL     1       2.163  -3.674  -2.486  0.00  0.00    +0.046 A 
ATOM     17  C   UNL     1       2.067  -2.917  -1.330  0.00  0.00    +0.126 A 
BRANCH  17  18
ATOM     18  O   UNL     1       1.817  -3.519  -0.139  0.00  0.00    -0.506 OA
ATOM     19  H   UNL     1       0.877  -3.603   0.070  0.00  0.00    +0.292 HD
ENDBRANCH  17  18
ENDBRANCH  10  12
ENDBRANCH   1  11
BRANCH   4  20
ATOM     20  S   UNL     1       0.857  -4.205   5.578  0.00  0.00    -0.075 S 
BRANCH  20  21
ATOM     21  C   UNL     1       0.614  -3.838   7.338  0.00  0.00    +0.174 C 
BRANCH  21  22
ATOM     22  C   UNL     1       0.366  -5.121   8.089  0.00  0.00    +0.234 C 
ATOM     23  O   UNL     1       0.254  -6.166   7.484  0.00  0.00    -0.274 OA
ATOM     24  N   UNL     1       0.271  -5.107   9.433  0.00  0.00    -0.240 N 
BRANCH  24  25
ATOM     25  C   UNL     1       0.134  -6.309  10.138  0.00  0.00    +0.041 A 
ATOM     26  C   UNL     1       1.184  -7.217  10.176  0.00  0.00    +0.024 A 
ATOM     27  C   UNL     1       1.046  -8.402  10.872  0.00  0.00    +0.002 A 
ATOM     28  C   UNL     1      -0.137  -8.685  11.530  0.00  0.00    +0.000 A 
ATOM     29  C   UNL     1      -1.185  -7.783  11.494  0.00  0.00    +0.002 A 
ATOM     30  C   UNL     1      -1.050  -6.593  10.805  0.00  0.00    +0.024 A 
ENDBRANCH  24  25
BRANCH  24  31
ATOM     31  C   UNL     1       0.308  -3.890  10.125  0.00  0.00    +0.041 A 
ATOM     32  C   UNL     1      -0.738  -2.986  10.000  0.00  0.00    +0.024 A 
ATOM     33  C   UNL     1      -0.698  -1.786  10.684  0.00  0.00    +0.002 A 
ATOM     34  C   UNL     1       0.383  -1.486  11.492  0.00  0.00    +0.000 A 
ATOM     35  C   UNL     1       1.427  -2.384  11.619  0.00  0.00    +0.002 A 
ATOM     36  C   UNL     1       1.389  -3.588  10.943  0.00  0.00    +0.024 A 
ENDBRANCH  24  31
ENDBRANCH  21  22
ENDBRANCH  20  21
ENDBRANCH   4  20
TORSDOF 8
