REMARK  Name = ZINC42438260
REMARK  7 active torsions:
REMARK  status: ('A' for Active; 'I' for Inactive)
REMARK    1  A    between atoms: C_1  and  C_2
REMARK    2  A    between atoms: C_2  and  N_3
REMARK    3  A    between atoms: N_3  and  C_4
REMARK    4  A    between atoms: C_4  and  C_5
REMARK    5  A    between atoms: C_10  and  N_11
REMARK    6  A    between atoms: C_13  and  C_20
REMARK    7  A    between atoms: C_17  and  C_19
REMARK                            x       y       z     vdW  Elec       q    Type
REMARK                         _______ _______ _______ _____ _____    ______ ____
ROOT
ATOM      1  C   UNL     1      -5.013  -2.864  -1.072  0.00  0.00    -0.043 A 
ATOM      2  C   UNL     1      -5.656  -3.401   0.026  0.00  0.00    +0.004 A 
ATOM      3  C   UNL     1      -4.952  -3.647   1.190  0.00  0.00    +0.015 A 
ATOM      4  C   UNL     1      -3.601  -3.354   1.260  0.00  0.00    +0.020 A 
ATOM      5  C   UNL     1      -2.952  -2.816   0.165  0.00  0.00    +0.038 A 
ATOM      6  C   UNL     1      -3.656  -2.574  -1.008  0.00  0.00    +0.032 A 
ATOM      7 BR   UNL     1      -2.642  -3.692   2.855  0.00  0.00    -0.050 Br
ENDROOT
BRANCH   6   8
ATOM      8  N   UNL     1      -3.002  -2.036  -2.118  0.00  0.00    -0.326 N 
ATOM      9  C   UNL     1      -2.282  -2.906  -3.058  0.00  0.00    +0.118 C 
ATOM     10  C   UNL     1      -0.848  -2.388  -3.210  0.00  0.00    +0.092 C 
ATOM     11  C   UNL     1      -0.883  -0.914  -3.619  0.00  0.00    +0.016 C 
ATOM     12  C   UNL     1      -1.579  -0.096  -2.529  0.00  0.00    +0.023 C 
ATOM     13  C   UNL     1      -3.026  -0.589  -2.372  0.00  0.00    +0.070 C 
ATOM     14  C   UNL     1      -3.689   0.128  -1.194  0.00  0.00    +0.028 C 
BRANCH  10  15
ATOM     15  C   UNL     1      -0.134  -3.188  -4.269  0.00  0.00    +0.215 C 
ATOM     16  O   UNL     1      -0.713  -4.084  -4.845  0.00  0.00    -0.276 OA
ATOM     17  N   UNL     1       1.148  -2.908  -4.575  0.00  0.00    -0.329 N 
ATOM     18  H   UNL     1       1.611  -2.191  -4.114  0.00  0.00    +0.145 HD
ATOM     19  H   UNL     1       1.608  -3.423  -5.256  0.00  0.00    +0.145 HD
ENDBRANCH  10  15
ENDBRANCH   6   8
BRANCH   1  20
ATOM     20  C   UNL     1      -5.782  -2.597  -2.340  0.00  0.00    -0.045 C 
BRANCH  20  21
ATOM     21  N   UNL     1      -5.540  -3.685  -3.297  0.00  0.00    +0.382 N 
ATOM     22  H   UNL     1      -5.804  -4.565  -2.879  0.00  0.00    -0.085 HD
ATOM     23  H   UNL     1      -4.561  -3.708  -3.540  0.00  0.00    -0.085 HD
BRANCH  21  25
ATOM     24  C   UNL     1      -6.089  -4.592  -5.504  0.00  0.00    -0.017 C 
ATOM     25  C   UNL     1      -6.340  -3.459  -4.508  0.00  0.00    -0.086 C 
ENDBRANCH  21  25
ENDBRANCH  20  21
ENDBRANCH   1  20
TORSDOF 5
