REMARK  Name = ZINC39689089
REMARK  9 active torsions:
REMARK  status: ('A' for Active; 'I' for Inactive)
REMARK    1  A    between atoms: C_1  and  C_2
REMARK    2  A    between atoms: C_2  and  C_3
REMARK    3  A    between atoms: C_3  and  C_4
REMARK    4  A    between atoms: C_4  and  C_6
REMARK    5  A    between atoms: C_4  and  C_7
REMARK    6  A    between atoms: C_11  and  C_20
REMARK    7  A    between atoms: N_22  and  C_23
REMARK    8  A    between atoms: C_23  and  C_24
REMARK    9  A    between atoms: N_27  and  C_30
REMARK                            x       y       z     vdW  Elec       q    Type
REMARK                         _______ _______ _______ _____ _____    ______ ____
ROOT
ATOM      1  C   UNL     1       1.332  -2.575   2.212  0.00  0.00    +0.218 C 
ATOM      2  O   UNL     1       1.788  -1.712   2.932  0.00  0.00    -0.275 OA
ATOM      3  N   UNL     1       1.589  -3.873   2.470  0.00  0.00    -0.300 N 
ATOM      4  C   UNL     1       1.130  -5.058   1.708  0.00  0.00    +0.121 C 
ATOM      5  C   UNL     1       2.342  -6.016   1.709  0.00  0.00    +0.100 C 
ATOM      6  C   UNL     1       3.166  -5.605   2.941  0.00  0.00    -0.004 C 
ATOM      7  C   UNL     1       2.398  -4.437   3.576  0.00  0.00    +0.115 C 
ATOM      8  C   UNL     1       4.557  -5.145   2.516  0.00  0.00    -0.010 C 
ATOM      9  C   UNL     1       5.377  -4.796   3.761  0.00  0.00    -0.082 C 
ATOM     10  N   UNL     1       5.473  -5.974   4.632  0.00  0.00    +0.379 N 
ATOM     11  C   UNL     1       4.139  -6.354   5.111  0.00  0.00    -0.082 C 
ATOM     12  C   UNL     1       3.267  -6.769   3.922  0.00  0.00    -0.010 C 
ATOM     13  H   UNL     1       5.874  -6.741   4.114  0.00  0.00    -0.086 HD
ATOM     14  H   UNL     1       6.064  -5.760   5.421  0.00  0.00    -0.086 HD
ENDROOT
BRANCH   5  15
ATOM     15  C   UNL     1       3.151  -5.840   0.450  0.00  0.00    +0.218 C 
ATOM     16  O   UNL     1       3.189  -4.760  -0.100  0.00  0.00    -0.275 OA
ATOM     17  N   UNL     1       3.834  -6.882  -0.064  0.00  0.00    -0.315 N 
ATOM     18  H   UNL     1       3.804  -7.746   0.376  0.00  0.00    +0.149 HD
BRANCH  17  19
ATOM     19  C   UNL     1       4.621  -6.711  -1.288  0.00  0.00    +0.107 C 
BRANCH  19  20
ATOM     20  C   UNL     1       5.290  -8.037  -1.653  0.00  0.00    +0.003 C 
ATOM     21  C   UNL     1       6.312  -8.409  -0.575  0.00  0.00    -0.014 C 
ATOM     22  C   UNL     1       7.034  -9.694  -0.986  0.00  0.00    -0.078 C 
ATOM     23  N   UNL     1       7.724  -9.484  -2.264  0.00  0.00    +0.382 N 
ATOM     24  C   UNL     1       6.744  -9.197  -3.318  0.00  0.00    -0.078 C 
ATOM     25  C   UNL     1       6.011  -7.893  -2.997  0.00  0.00    -0.014 C 
ATOM     26  H   UNL     1       8.361  -8.706  -2.178  0.00  0.00    -0.081 HD
BRANCH  23  27
ATOM     27  C   UNL     1       8.479 -10.694  -2.616  0.00  0.00    -0.069 C 
ATOM     28  C   UNL     1       9.569 -10.964  -1.557  0.00  0.00    -0.015 C 
ATOM     29  C   UNL     1      10.769 -11.501  -2.375  0.00  0.00    -0.002 C 
ATOM     30  C   UNL     1      10.717 -10.642  -3.663  0.00  0.00    -0.002 C 
ATOM     31  C   UNL     1       9.210 -10.489  -3.955  0.00  0.00    -0.015 C 
ENDBRANCH  23  27
ENDBRANCH  19  20
ENDBRANCH  17  19
ENDBRANCH   5  15
BRANCH   1  32
ATOM     32  C   UNL     1       0.479  -2.196   1.029  0.00  0.00    +0.072 C 
ATOM     33  C   UNL     1      -0.908  -2.824   1.179  0.00  0.00    +0.017 C 
BRANCH  32  34
ATOM     34  C   UNL     1       0.345  -0.673   0.964  0.00  0.00    +0.012 C 
BRANCH  34  36
ATOM     35  C   UNL     1      -0.549   1.240  -0.370  0.00  0.00    +0.004 C 
ATOM     36  C   UNL     1      -0.415  -0.282  -0.305  0.00  0.00    -0.003 C 
ENDBRANCH  34  36
ENDBRANCH  32  34
ENDBRANCH   1  32
TORSDOF 7
