REMARK  Name = ZINC63666765
REMARK  9 active torsions:
REMARK  status: ('A' for Active; 'I' for Inactive)
REMARK    1  A    between atoms: C_1  and  C_2
REMARK    2  A    between atoms: C_8  and  C_11
REMARK    3  A    between atoms: C_11  and  C_12
REMARK    4  A    between atoms: C_12  and  N_13
REMARK    5  A    between atoms: C_14  and  C_16
REMARK    6  A    between atoms: C_16  and  C_17
REMARK    7  A    between atoms: C_17  and  C_18
REMARK    8  A    between atoms: C_28  and  C_38
REMARK    9  A    between atoms: N_31  and  C_32
REMARK                            x       y       z     vdW  Elec       q    Type
REMARK                         _______ _______ _______ _____ _____    ______ ____
ROOT
ATOM      1  C   UNL     1      -4.228  -2.818   8.441  0.00  0.00    +0.105 C 
ENDROOT
BRANCH   1   2
ATOM      2  C   UNL     1      -4.109  -2.377   9.877  0.00  0.00    +0.216 C 
ATOM      3  O   UNL     1      -3.047  -1.976  10.303  0.00  0.00    -0.276 OA
ATOM      4  N   UNL     1      -5.184  -2.430  10.689  0.00  0.00    -0.293 N 
ATOM      5  C   UNL     1      -6.489  -2.919  10.204  0.00  0.00    +0.119 C 
ATOM      6  C   UNL     1      -7.562  -1.831  10.253  0.00  0.00    +0.090 C 
ATOM      7  S   UNL     1      -7.623  -1.072  11.911  0.00  0.00    -0.134 S 
ATOM      8  C   UNL     1      -5.886  -0.664  12.183  0.00  0.00    +0.170 C 
ATOM      9  C   UNL     1      -5.103  -2.015  12.069  0.00  0.00    +0.126 C 
ATOM     10  C   UNL     1      -3.770  -1.555  12.652  0.00  0.00    +0.093 C 
ATOM     11  N   UNL     1      -4.219  -0.667  13.767  0.00  0.00    -0.234 NA
ATOM     12  N   UNL     1      -5.518  -0.202  13.509  0.00  0.00    -0.252 N 
ATOM     13  C   UNL     1      -2.966  -2.742  13.186  0.00  0.00    +0.027 C 
ATOM     14  H   UNL     1      -4.161  -1.144  14.654  0.00  0.00    +0.145 HD
BRANCH  12  15
ATOM     15  C   UNL     1      -6.322   0.545  14.373  0.00  0.00    +0.046 A 
ATOM     16  C   UNL     1      -7.015   1.651  13.897  0.00  0.00    +0.024 A 
ATOM     17  C   UNL     1      -7.809   2.388  14.753  0.00  0.00    +0.002 A 
ATOM     18  C   UNL     1      -7.915   2.026  16.084  0.00  0.00    +0.000 A 
ATOM     19  C   UNL     1      -7.227   0.925  16.561  0.00  0.00    +0.002 A 
ATOM     20  C   UNL     1      -6.435   0.181  15.709  0.00  0.00    +0.024 A 
ENDBRANCH  12  15
ENDBRANCH   1   2
BRANCH   1  21
ATOM     21  C   UNL     1      -2.874  -2.660   7.746  0.00  0.00    +0.105 C 
BRANCH  21  23
ATOM     22  N   UNL     1      -1.917  -3.048   5.498  0.00  0.00    -0.315 N 
ATOM     23  C   UNL     1      -2.992  -3.100   6.309  0.00  0.00    +0.213 C 
ATOM     24  O   UNL     1      -4.054  -3.502   5.884  0.00  0.00    -0.276 OA
ATOM     25  H   UNL     1      -1.068  -2.727   5.838  0.00  0.00    +0.149 HD
BRANCH  22  26
ATOM     26  C   UNL     1      -2.033  -3.477   4.102  0.00  0.00    +0.108 C 
BRANCH  26  27
ATOM     27  C   UNL     1      -0.679  -3.318   3.406  0.00  0.00    +0.052 C 
BRANCH  27  35
ATOM     28  C   UNL     1      -1.686   0.462  -0.642  0.00  0.00    +0.044 C 
ATOM     29  C   UNL     1      -1.468  -1.021  -0.487  0.00  0.00    -0.050 A 
ATOM     30  C   UNL     1      -1.500  -1.838  -1.625  0.00  0.00    +0.005 A 
ATOM     31  C   UNL     1      -1.314  -3.174  -1.569  0.00  0.00    +0.026 A 
ATOM     32  C   UNL     1      -1.074  -3.814  -0.322  0.00  0.00    +0.043 A 
ATOM     33  N   UNL     1      -0.868  -5.071  -0.012  0.00  0.00    -0.380 N 
ATOM     34  C   UNL     1      -0.675  -5.170   1.439  0.00  0.00    +0.144 C 
ATOM     35  C   UNL     1      -0.797  -3.759   1.970  0.00  0.00    -0.040 C 
ATOM     36  C   UNL     1      -1.035  -2.973   0.895  0.00  0.00    -0.001 A 
ATOM     37  C   UNL     1      -1.241  -1.528   0.747  0.00  0.00    +0.013 A 
ATOM     38  H   UNL     1      -0.847  -5.813  -0.638  0.00  0.00    +0.160 HD
ENDBRANCH  27  35
ENDBRANCH  26  27
ENDBRANCH  22  26
ENDBRANCH  21  23
ENDBRANCH   1  21
TORSDOF 7
