REMARK  Name = ZINC14044193
REMARK  10 active torsions:
REMARK  status: ('A' for Active; 'I' for Inactive)
REMARK    1  A    between atoms: C_6  and  O_11
REMARK    2  A    between atoms: O_11  and  C_12
REMARK    3  A    between atoms: C_12  and  C_13
REMARK    4  A    between atoms: C_13  and  C_15
REMARK    5  A    between atoms: C_13  and  O_35
REMARK    6  A    between atoms: C_15  and  S_16
REMARK    7  A    between atoms: S_16  and  C_17
REMARK    8  A    between atoms: C_20  and  C_29
REMARK    9  A    between atoms: N_21  and  C_22
REMARK   10  A    between atoms: C_29  and  N_64
REMARK                            x       y       z     vdW  Elec       q    Type
REMARK                         _______ _______ _______ _____ _____    ______ ____
ROOT
ATOM      1  C   UNL     1       4.847  12.535  -0.253  0.00  0.00    +0.196 A 
ATOM      2  N   UNL     1       5.916  11.778  -0.345  0.00  0.00    -0.122 NA
ATOM      3  N   UNL     1       6.965  12.512  -0.457  0.00  0.00    -0.135 NA
ATOM      4  C   UNL     1       6.634  13.773  -0.434  0.00  0.00    +0.122 A 
ATOM      5  N   UNL     1       5.272  13.834  -0.303  0.00  0.00    -0.276 N 
ENDROOT
BRANCH   5   6
ATOM      6  C   UNL     1       4.479  14.990  -0.234  0.00  0.00    +0.050 A 
ATOM      7  C   UNL     1       4.402  15.846  -1.323  0.00  0.00    +0.029 A 
ATOM      8  C   UNL     1       3.616  16.980  -1.255  0.00  0.00    +0.040 A 
ATOM      9  C   UNL     1       2.914  17.268  -0.097  0.00  0.00    +0.124 A 
ATOM     10  C   UNL     1       2.994  16.418   0.993  0.00  0.00    +0.040 A 
ATOM     11  C   UNL     1       3.775  15.280   0.927  0.00  0.00    +0.029 A 
ATOM     12  F   UNL     1       2.150  18.380  -0.031  0.00  0.00    -0.205 F 
ENDBRANCH   5   6
BRANCH   1  13
ATOM     13  S   UNL     1       3.182  11.983  -0.088  0.00  0.00    -0.083 S 
BRANCH  13  14
ATOM     14  C   UNL     1       3.442  10.192  -0.101  0.00  0.00    +0.112 C 
BRANCH  14  15
ATOM     15  C   UNL     1       2.095   9.480   0.034  0.00  0.00    +0.162 C 
BRANCH  15  16
ATOM     16  O   UNL     1       1.475   9.863   1.263  0.00  0.00    -0.388 OA
ATOM     17  H   UNL     1       1.993   9.644   2.050  0.00  0.00    +0.210 HD
ENDBRANCH  15  16
BRANCH  15  18
ATOM     18  C   UNL     1       2.315   7.966   0.023  0.00  0.00    +0.261 C 
BRANCH  18  19
ATOM     19  O   UNL     1       1.050   7.301   0.031  0.00  0.00    -0.489 OA
BRANCH  19  25
ATOM     20  C   UNL     1      -0.013   1.076   0.008  0.00  0.00    +0.001 A 
ATOM     21  C   UNL     1      -1.235   1.746   0.018  0.00  0.00    +0.001 A 
ATOM     22  C   UNL     1      -1.288   3.105   0.031  0.00  0.00    +0.008 A 
ATOM     23  C   UNL     1      -0.095   3.849   0.024  0.00  0.00    -0.014 A 
ATOM     24  C   UNL     1      -0.112   5.253   0.032  0.00  0.00    +0.054 A 
ATOM     25  C   UNL     1       1.067   5.942   0.023  0.00  0.00    +0.121 A 
ATOM     26  C   UNL     1       2.292   5.268   0.007  0.00  0.00    +0.046 A 
ATOM     27  C   UNL     1       2.342   3.909   0.000  0.00  0.00    +0.012 A 
ATOM     28  C   UNL     1       1.148   3.167   0.008  0.00  0.00    -0.018 A 
ATOM     29  C   UNL     1       1.163   1.762   0.000  0.00  0.00    +0.008 A 
ENDBRANCH  19  25
ENDBRANCH  18  19
ENDBRANCH  15  18
ENDBRANCH  14  15
ENDBRANCH  13  14
ENDBRANCH   1  13
BRANCH   4  30
ATOM     30  C   UNL     1       7.577  14.945  -0.532  0.00  0.00    -0.001 C 
BRANCH  30  36
ATOM     31  C   UNL     1       6.891  15.849   1.606  0.00  0.00    -0.078 C 
ATOM     32  C   UNL     1       7.353  16.107   3.042  0.00  0.00    -0.019 C 
ATOM     33  C   UNL     1       8.499  17.122   3.030  0.00  0.00    -0.004 C 
ATOM     34  C   UNL     1       9.638  16.584   2.159  0.00  0.00    -0.019 C 
ATOM     35  C   UNL     1       9.110  16.312   0.749  0.00  0.00    -0.078 C 
ATOM     36  N   UNL     1       8.026  15.309   0.828  0.00  0.00    +0.384 N 
ATOM     37  H   UNL     1       8.383  14.469   1.297  0.00  0.00    -0.081 HD
ENDBRANCH  30  36
ENDBRANCH   4  30
TORSDOF 10
