REMARK  Name = ZINC59915677
REMARK  14 active torsions:
REMARK  status: ('A' for Active; 'I' for Inactive)
REMARK    1  A    between atoms: C_1  and  C_2
REMARK    2  A    between atoms: C_2  and  C_3
REMARK    3  A    between atoms: C_2  and  C_4
REMARK    4  A    between atoms: C_4  and  C_5
REMARK    5  A    between atoms: C_5  and  C_29
REMARK    6  A    between atoms: N_6  and  N_7
REMARK    7  A    between atoms: C_8  and  C_10
REMARK    8  A    between atoms: C_10  and  S_11
REMARK    9  A    between atoms: S_11  and  C_12
REMARK   10  A    between atoms: C_15  and  C_20
REMARK   11  A    between atoms: N_16  and  C_17
REMARK   12  A    between atoms: C_17  and  C_18
REMARK   13  A    between atoms: C_20  and  N_21
REMARK   14  A    between atoms: N_21  and  C_22
REMARK                            x       y       z     vdW  Elec       q    Type
REMARK                         _______ _______ _______ _____ _____    ______ ____
ROOT
ATOM      1  C   UNL     1      -5.154  -2.877   7.594  0.00  0.00    +0.192 A 
ATOM      2  N   UNL     1      -5.420  -1.647   7.970  0.00  0.00    -0.122 NA
ATOM      3  N   UNL     1      -6.298  -1.658   8.909  0.00  0.00    -0.132 NA
ATOM      4  C   UNL     1      -6.641  -2.884   9.186  0.00  0.00    +0.152 A 
ATOM      5  N   UNL     1      -5.929  -3.704   8.354  0.00  0.00    -0.301 N 
ENDROOT
BRANCH   1   6
ATOM      6  S   UNL     1      -4.017  -3.366   6.340  0.00  0.00    -0.077 S 
BRANCH   6   7
ATOM      7  C   UNL     1      -3.331  -1.800   5.734  0.00  0.00    +0.174 C 
BRANCH   7   9
ATOM      8  N   UNL     1      -1.688  -1.058   4.040  0.00  0.00    -0.206 N 
ATOM      9  C   UNL     1      -2.330  -2.079   4.643  0.00  0.00    +0.242 C 
ATOM     10  O   UNL     1      -2.102  -3.222   4.306  0.00  0.00    -0.273 OA
ATOM     11  H   UNL     1      -1.871  -0.144   4.309  0.00  0.00    +0.177 HD
BRANCH   8  13
ATOM     12  C   UNL     1      -0.148  -0.348   2.453  0.00  0.00    +0.034 C 
ATOM     13  N   UNL     1      -0.758  -1.317   3.025  0.00  0.00    -0.189 NA
ATOM     14  C   UNL     1      -0.431   1.072   2.871  0.00  0.00    +0.062 C 
BRANCH  12  15
ATOM     15  C   UNL     1       0.853  -0.627   1.362  0.00  0.00    +0.055 C 
BRANCH  15  17
ATOM     16  C   UNL     1       1.176  -0.779  -1.111  0.00  0.00    +0.007 C 
ATOM     17  C   UNL     1       0.142  -0.632   0.007  0.00  0.00    -0.012 C 
ATOM     18  C   UNL     1      -0.840  -1.805  -0.049  0.00  0.00    +0.007 C 
ENDBRANCH  15  17
ENDBRANCH  12  15
ENDBRANCH   8  13
ENDBRANCH   7   9
ENDBRANCH   6   7
ENDBRANCH   1   6
BRANCH   5  19
ATOM     19  C   UNL     1      -5.985  -5.167   8.295  0.00  0.00    +0.152 C 
BRANCH  19  20
ATOM     20  C   UNL     1      -4.968  -5.747   9.244  0.00  0.00    -0.013 C 
ATOM     21  C   UNL     1      -5.344  -6.604  10.162  0.00  0.00    +0.005 C 
ENDBRANCH  19  20
ENDBRANCH   5  19
BRANCH   4  22
ATOM     22  C   UNL     1      -7.642  -3.318  10.226  0.00  0.00    +0.178 C 
BRANCH  22  23
ATOM     23  N   UNL     1      -8.974  -3.390   9.621  0.00  0.00    -0.337 N 
ATOM     24  H   UNL     1      -9.094  -3.172   8.684  0.00  0.00    +0.147 HD
BRANCH  23  25
ATOM     25  C   UNL     1     -10.073  -3.772  10.395  0.00  0.00    +0.028 A 
ATOM     26  C   UNL     1      -9.904  -4.080  11.739  0.00  0.00    +0.024 A 
ATOM     27  C   UNL     1     -10.992  -4.457  12.502  0.00  0.00    +0.016 A 
ATOM     28  C   UNL     1     -12.248  -4.531  11.928  0.00  0.00    +0.013 A 
ATOM     29  C   UNL     1     -12.420  -4.225  10.589  0.00  0.00    +0.016 A 
ATOM     30  C   UNL     1     -11.337  -3.841   9.823  0.00  0.00    +0.024 A 
ATOM     31  I   UNL     1     -13.895  -5.106  13.088  0.00  0.00    -0.044 I 
ENDBRANCH  23  25
ENDBRANCH  22  23
ENDBRANCH   4  22
TORSDOF 11
