REMARK  Name = ZINC67605896
REMARK  7 active torsions:
REMARK  status: ('A' for Active; 'I' for Inactive)
REMARK    1  A    between atoms: C_1  and  C_2
REMARK    2  A    between atoms: C_7  and  C_10
REMARK    3  A    between atoms: N_18  and  C_19
REMARK    4  A    between atoms: C_19  and  C_21
REMARK    5  A    between atoms: C_19  and  C_22
REMARK    6  A    between atoms: C_22  and  C_23
REMARK    7  A    between atoms: C_26  and  O_29
REMARK                            x       y       z     vdW  Elec       q    Type
REMARK                         _______ _______ _______ _____ _____    ______ ____
ROOT
ATOM      1  C   UNL     1      -0.020   1.529   0.007  0.00  0.00    +0.039 C 
ATOM      2  C   UNL     1       0.001  -0.001   0.001  0.00  0.00    +0.133 C 
ATOM      3  C   UNL     1       0.721  -0.498  -1.257  0.00  0.00    +0.140 C 
ATOM      4  N   UNL     1       2.143  -0.133  -1.153  0.00  0.00    -0.280 N 
ATOM      5  C   UNL     1       2.858  -0.484   0.084  0.00  0.00    +0.145 C 
ATOM      6  C   UNL     1       2.034   0.012   1.277  0.00  0.00    +0.166 C 
ATOM      7  O   UNL     1       0.694  -0.473   1.159  0.00  0.00    -0.366 OA
ATOM      8  C   UNL     1       2.771   0.504  -2.161  0.00  0.00    +0.303 C 
ATOM      9  O   UNL     1       2.190   0.705  -3.210  0.00  0.00    -0.253 OA
ATOM     10  N   UNL     1       4.044   0.918  -2.006  0.00  0.00    -0.296 N 
ATOM     11  H   UNL     1       4.533   0.694  -1.199  0.00  0.00    +0.151 HD
ENDROOT
BRANCH   6  12
ATOM     12  C   UNL     1       2.644  -0.498   2.557  0.00  0.00    -0.017 A 
ATOM     13  C   UNL     1       2.403  -1.795   2.969  0.00  0.00    +0.006 A 
ATOM     14  C   UNL     1       2.962  -2.263   4.143  0.00  0.00    +0.000 A 
ATOM     15  C   UNL     1       3.763  -1.433   4.906  0.00  0.00    +0.000 A 
ATOM     16  C   UNL     1       4.005  -0.136   4.494  0.00  0.00    +0.000 A 
ATOM     17  C   UNL     1       3.449   0.331   3.317  0.00  0.00    +0.006 A 
ENDBRANCH   6  12
BRANCH  10  18
ATOM     18  C   UNL     1       4.691   1.707  -3.058  0.00  0.00    +0.076 C 
ATOM     19  C   UNL     1       4.342   3.186  -2.873  0.00  0.00    +0.028 C 
BRANCH  18  20
ATOM     20  C   UNL     1       6.207   1.527  -2.972  0.00  0.00    +0.057 C 
BRANCH  20  21
ATOM     21  C   UNL     1       6.561   0.093  -3.275  0.00  0.00    -0.045 A 
ATOM     22  C   UNL     1       6.619  -0.835  -2.252  0.00  0.00    +0.007 A 
ATOM     23  C   UNL     1       6.943  -2.149  -2.527  0.00  0.00    +0.045 A 
ATOM     24  C   UNL     1       7.209  -2.538  -3.832  0.00  0.00    +0.117 A 
ATOM     25  C   UNL     1       7.150  -1.605  -4.857  0.00  0.00    +0.045 A 
ATOM     26  C   UNL     1       6.821  -0.293  -4.577  0.00  0.00    +0.007 A 
BRANCH  24  27
ATOM     27  O   UNL     1       7.529  -3.830  -4.105  0.00  0.00    -0.507 OA
ATOM     28  H   UNL     1       6.766  -4.390  -4.304  0.00  0.00    +0.292 HD
ENDBRANCH  24  27
ENDBRANCH  20  21
ENDBRANCH  18  20
ENDBRANCH  10  18
TORSDOF 5
