REMARK  Name = ZINC42915386
REMARK  8 active torsions:
REMARK  status: ('A' for Active; 'I' for Inactive)
REMARK    1  A    between atoms: C_1  and  C_2
REMARK    2  A    between atoms: C_2  and  C_4
REMARK    3  A    between atoms: C_2  and  N_22
REMARK    4  A    between atoms: C_4  and  C_6
REMARK    5  A    between atoms: C_4  and  N_13
REMARK    6  A    between atoms: N_13  and  C_14
REMARK    7  A    between atoms: N_13  and  C_15
REMARK    8  A    between atoms: C_15  and  C_16
REMARK                            x       y       z     vdW  Elec       q    Type
REMARK                         _______ _______ _______ _____ _____    ______ ____
ROOT
ATOM      1  C   UNL     1       0.692  -0.593   1.389  0.00  0.00    +0.072 C 
ENDROOT
BRANCH   1   2
ATOM      2  C   UNL     1      -0.262  -0.262   2.509  0.00  0.00    -0.032 A 
ATOM      3  C   UNL     1      -1.380  -1.048   2.718  0.00  0.00    +0.008 A 
ATOM      4  C   UNL     1      -2.255  -0.746   3.744  0.00  0.00    +0.038 A 
ATOM      5  C   UNL     1      -2.012   0.343   4.563  0.00  0.00    +0.123 A 
ATOM      6  C   UNL     1      -0.891   1.130   4.352  0.00  0.00    +0.038 A 
ATOM      7  C   UNL     1      -0.015   0.823   3.329  0.00  0.00    +0.008 A 
ATOM      8  F   UNL     1      -2.867   0.639   5.566  0.00  0.00    -0.205 F 
ENDBRANCH   1   2
BRANCH   1  10
ATOM      9  C   UNL     1       0.482   1.748   0.541  0.00  0.00    -0.012 C 
ATOM     10  C   UNL     1       0.363   0.269   0.168  0.00  0.00    -0.056 C 
BRANCH  10  11
ATOM     11  N   UNL     1       1.304  -0.040  -0.916  0.00  0.00    +0.381 N 
ATOM     12  H   UNL     1       2.247  -0.030  -0.556  0.00  0.00    -0.090 HD
ATOM     13  H   UNL     1       1.097  -0.953  -1.292  0.00  0.00    -0.090 HD
ATOM     14  H   UNL     1       1.215   0.652  -1.646  0.00  0.00    -0.090 HD
ENDBRANCH  10  11
ENDBRANCH   1  10
BRANCH   1  15
ATOM     15  N   UNL     1       0.559  -2.013   1.037  0.00  0.00    -0.295 NA
ATOM     16  C   UNL     1      -0.543  -2.219   0.088  0.00  0.00    +0.105 C 
BRANCH  15  17
ATOM     17  C   UNL     1       1.821  -2.541   0.501  0.00  0.00    +0.127 C 
BRANCH  17  18
ATOM     18  C   UNL     1       1.787  -4.048   0.531  0.00  0.00    +0.005 A 
ATOM     19  C   UNL     1       1.358  -4.912  -0.421  0.00  0.00    +0.027 A 
ATOM     20  C   UNL     1       1.422  -6.270  -0.171  0.00  0.00    +0.025 A 
ATOM     21  C   UNL     1       1.911  -6.697   1.018  0.00  0.00    +0.060 A 
ATOM     22  S   UNL     1       2.310  -5.157   1.829  0.00  0.00    -0.099 S 
ATOM     23 BR   UNL     1       0.834  -7.513  -1.470  0.00  0.00    -0.050 Br
ENDBRANCH  17  18
ENDBRANCH  15  17
ENDBRANCH   1  15
TORSDOF 6
