REMARK  Name = ZINC05854473
REMARK  9 active torsions:
REMARK  status: ('A' for Active; 'I' for Inactive)
REMARK    1  A    between atoms: C_1  and  C_2
REMARK    2  A    between atoms: C_2  and  C_27
REMARK    3  A    between atoms: C_3  and  C_4
REMARK    4  A    between atoms: C_4  and  C_5
REMARK    5  A    between atoms: C_6  and  O_26
REMARK    6  A    between atoms: C_8  and  O_25
REMARK    7  A    between atoms: C_12  and  C_17
REMARK    8  A    between atoms: C_20  and  O_24
REMARK    9  A    between atoms: C_21  and  O_23
REMARK                            x       y       z     vdW  Elec       q    Type
REMARK                         _______ _______ _______ _____ _____    ______ ____
ROOT
ATOM      1  C   UNL     1      -0.864  -0.562   3.381  0.00  0.00    +0.040 A 
ATOM      2  C   UNL     1      -2.184  -0.131   3.398  0.00  0.00    +0.127 A 
ATOM      3  C   UNL     1      -3.108  -0.709   4.260  0.00  0.00    +0.092 A 
ATOM      4  C   UNL     1      -2.718  -1.728   5.111  0.00  0.00    +0.134 A 
ATOM      5  C   UNL     1      -1.387  -2.171   5.095  0.00  0.00    +0.101 A 
ATOM      6  C   UNL     1      -0.454  -1.582   4.221  0.00  0.00    +0.142 A 
ATOM      7  O   UNL     1       0.836  -1.994   4.204  0.00  0.00    -0.483 OA
ATOM      8  C   UNL     1       1.142  -3.304   4.681  0.00  0.00    +0.211 C 
ATOM      9  C   UNL     1       0.546  -3.486   6.085  0.00  0.00    +0.129 C 
ATOM     10  C   UNL     1      -0.948  -3.257   5.978  0.00  0.00    +0.174 C 
ATOM     11  O   UNL     1      -1.743  -3.948   6.582  0.00  0.00    -0.292 OA
ENDROOT
BRANCH   8  12
ATOM     12  C   UNL     1       2.638  -3.480   4.742  0.00  0.00    -0.003 A 
ATOM     13  C   UNL     1       3.436  -2.442   5.187  0.00  0.00    +0.011 A 
ATOM     14  C   UNL     1       4.809  -2.599   5.245  0.00  0.00    +0.049 A 
ATOM     15  C   UNL     1       5.386  -3.797   4.857  0.00  0.00    +0.158 A 
ATOM     16  C   UNL     1       4.582  -4.841   4.410  0.00  0.00    +0.159 A 
ATOM     17  C   UNL     1       3.207  -4.679   4.359  0.00  0.00    +0.056 A 
BRANCH  16  18
ATOM     18  O   UNL     1       5.145  -6.019   4.029  0.00  0.00    -0.503 OA
ATOM     19  H   UNL     1       5.238  -6.661   4.746  0.00  0.00    +0.292 HD
ENDBRANCH  16  18
BRANCH  15  20
ATOM     20  O   UNL     1       6.736  -3.952   4.913  0.00  0.00    -0.503 OA
ATOM     21  H   UNL     1       7.058  -4.298   5.757  0.00  0.00    +0.292 HD
ENDBRANCH  15  20
ENDBRANCH   8  12
BRANCH   4  22
ATOM     22  O   UNL     1      -3.616  -2.293   5.955  0.00  0.00    -0.506 OA
ATOM     23  H   UNL     1      -4.082  -3.054   5.581  0.00  0.00    +0.292 HD
ENDBRANCH   4  22
BRANCH   2  24
ATOM     24  O   UNL     1      -2.576   0.866   2.565  0.00  0.00    -0.506 OA
ATOM     25  H   UNL     1      -2.893   0.558   1.705  0.00  0.00    +0.292 HD
ENDBRANCH   2  24
BRANCH   1  26
ATOM     26  C   UNL     1       0.123   0.078   2.439  0.00  0.00    +0.069 C 
BRANCH  26  29
ATOM     27  C   UNL     1      -0.166   1.491   0.016  0.00  0.00    +0.038 C 
ATOM     28  C   UNL     1      -0.072  -0.013   0.007  0.00  0.00    -0.079 C 
ATOM     29  C   UNL     1       0.121  -0.664   1.128  0.00  0.00    -0.023 C 
ATOM     30  C   UNL     1      -0.200  -0.768  -1.290  0.00  0.00    +0.038 C 
ENDBRANCH  26  29
ENDBRANCH   1  26
TORSDOF 7
