REMARK  Name = ZINC39325214
REMARK  9 active torsions:
REMARK  status: ('A' for Active; 'I' for Inactive)
REMARK    1  A    between atoms: C_1  and  C_2
REMARK    2  A    between atoms: C_7  and  S_8
REMARK    3  A    between atoms: S_8  and  N_11
REMARK    4  A    between atoms: N_11  and  C_12
REMARK    5  A    between atoms: N_11  and  C_19
REMARK    6  A    between atoms: C_12  and  C_13
REMARK    7  A    between atoms: C_19  and  C_20
REMARK    8  A    between atoms: C_25  and  C_33
REMARK    9  A    between atoms: C_26  and  C_32
REMARK                            x       y       z     vdW  Elec       q    Type
REMARK                         _______ _______ _______ _____ _____    ______ ____
ROOT
ATOM      1  N   UNL     1      -1.308  -0.115   3.159  0.00  0.00    -0.171 NA
ENDROOT
BRANCH   1   2
ATOM      2  S   UNL     1       0.233  -0.306   2.584  0.00  0.00    +0.064 S 
ATOM      3  O   UNL     1       0.962  -0.986   3.596  0.00  0.00    -0.153 OA
ATOM      4  O   UNL     1       0.635   0.958   2.074  0.00  0.00    -0.153 OA
BRANCH   2  11
ATOM      5  C   UNL     1      -0.081   0.590  -0.237  0.00  0.00    +0.046 C 
ATOM      6  C   UNL     1      -0.001  -0.902  -0.044  0.00  0.00    -0.022 A 
ATOM      7  C   UNL     1      -0.070  -1.738  -1.158  0.00  0.00    +0.007 A 
ATOM      8  C   UNL     1      -0.003  -3.085  -1.037  0.00  0.00    +0.031 A 
ATOM      9  C   UNL     1       0.143  -3.679   0.245  0.00  0.00    +0.102 A 
ATOM     10  C   UNL     1       0.216  -2.805   1.410  0.00  0.00    +0.126 A 
ATOM     11  C   UNL     1       0.143  -1.400   1.206  0.00  0.00    +0.136 A 
ATOM     12  N   UNL     1       0.351  -3.471   2.558  0.00  0.00    -0.189 NA
ATOM     13  S   UNL     1       0.379  -5.028   2.155  0.00  0.00    +0.117 S 
ATOM     14  N   UNL     1       0.227  -4.974   0.555  0.00  0.00    -0.191 NA
ENDBRANCH   2  11
ENDBRANCH   1   2
BRANCH   1  15
ATOM     15  C   UNL     1      -1.875  -1.105   4.079  0.00  0.00    +0.146 C 
BRANCH  15  16
ATOM     16  C   UNL     1      -1.673  -0.644   5.500  0.00  0.00    -0.014 A 
ATOM     17  C   UNL     1      -0.525  -0.993   6.195  0.00  0.00    +0.008 A 
ATOM     18  C   UNL     1      -0.382  -0.547   7.499  0.00  0.00    +0.020 A 
ATOM     19  C   UNL     1      -1.381   0.227   8.060  0.00  0.00    +0.111 A 
ATOM     20  N   UNL     1      -2.460   0.539   7.369  0.00  0.00    -0.263 NA
ATOM     21  C   UNL     1      -2.627   0.138   6.124  0.00  0.00    +0.115 A 
ENDBRANCH  15  16
ENDBRANCH   1  15
BRANCH   1  22
ATOM     22  C   UNL     1      -2.105   1.044   2.748  0.00  0.00    +0.126 C 
BRANCH  22  23
ATOM     23  C   UNL     1      -3.376   0.565   2.043  0.00  0.00    +0.114 C 
ATOM     24  C   UNL     1      -4.250   1.776   1.786  0.00  0.00    -0.003 C 
ATOM     25  C   UNL     1      -4.596   2.034   0.492  0.00  0.00    -0.007 A 
ATOM     26  C   UNL     1      -5.437   3.182   0.155  0.00  0.00    +0.013 A 
ATOM     27  C   UNL     1      -5.757   3.399  -1.147  0.00  0.00    -0.047 A 
ATOM     28  C   UNL     1      -5.301   2.553  -2.158  0.00  0.00    -0.046 A 
ATOM     29  C   UNL     1      -4.518   1.471  -1.911  0.00  0.00    +0.027 A 
ATOM     30  C   UNL     1      -4.129   1.157  -0.595  0.00  0.00    +0.041 A 
ATOM     31  N   UNL     1      -3.359   0.093  -0.364  0.00  0.00    -0.284 N 
ATOM     32  C   UNL     1      -2.959  -0.259   0.845  0.00  0.00    +0.225 C 
ATOM     33  O   UNL     1      -2.257  -1.241   0.994  0.00  0.00    -0.275 OA
ATOM     34  C   UNL     1      -5.694   2.850  -3.583  0.00  0.00    +0.044 C 
ATOM     35  C   UNL     1      -6.623   4.579  -1.508  0.00  0.00    +0.044 C 
ATOM     36  H   UNL     1      -3.081  -0.449  -1.119  0.00  0.00    +0.155 HD
ENDBRANCH  22  23
ENDBRANCH   1  22
TORSDOF 6
