REMARK  Name = ZINC02050543
REMARK  13 active torsions:
REMARK  status: ('A' for Active; 'I' for Inactive)
REMARK    1  A    between atoms: C_1  and  C_2
REMARK    2  A    between atoms: C_2  and  C_3
REMARK    3  A    between atoms: C_3  and  C_4
REMARK    4  A    between atoms: C_4  and  C_5
REMARK    5  A    between atoms: N_7  and  C_8
REMARK    6  A    between atoms: C_8  and  C_9
REMARK    7  A    between atoms: C_8  and  C_14
REMARK    8  A    between atoms: C_8  and  N_18
REMARK    9  A    between atoms: C_9  and  O_11
REMARK   10  A    between atoms: O_11  and  C_12
REMARK   11  A    between atoms: C_12  and  C_13
REMARK   12  A    between atoms: N_18  and  C_19
REMARK   13  A    between atoms: C_20  and  C_28
REMARK                            x       y       z     vdW  Elec       q    Type
REMARK                         _______ _______ _______ _____ _____    ______ ____
ROOT
ATOM      1  C   UNL     1       2.312  -4.205  -3.941  0.00  0.00    +0.295 C 
ENDROOT
BRANCH   1   4
ATOM      2  C   UNL     1       2.558  -4.091  -1.520  0.00  0.00    +0.215 C 
ATOM      3  O   UNL     1       3.566  -4.758  -1.618  0.00  0.00    -0.276 OA
ATOM      4  N   UNL     1       1.831  -3.804  -2.617  0.00  0.00    -0.278 N 
ATOM      5  H   UNL     1       0.988  -3.331  -2.531  0.00  0.00    +0.152 HD
BRANCH   2   6
ATOM      6  C   UNL     1       2.119  -3.583  -0.171  0.00  0.00    +0.096 C 
BRANCH   6   7
ATOM      7  C   UNL     1       3.113  -4.046   0.897  0.00  0.00    +0.009 C 
BRANCH   7   9
ATOM      8  C   UNL     1       3.661  -3.994   3.334  0.00  0.00    +0.004 C 
ATOM      9  C   UNL     1       2.667  -3.531   2.266  0.00  0.00    -0.003 C 
ENDBRANCH   7   9
ENDBRANCH   6   7
ENDBRANCH   2   6
ENDBRANCH   1   4
BRANCH   1  10
ATOM     10  C   UNL     1       1.415  -3.591  -5.018  0.00  0.00    +0.438 C 
ATOM     11  F   UNL     1       1.496  -2.196  -4.953  0.00  0.00    -0.166 F 
ATOM     12  F   UNL     1       1.837  -4.025  -6.280  0.00  0.00    -0.166 F 
ATOM     13  F   UNL     1       0.091  -3.992  -4.806  0.00  0.00    -0.166 F 
ENDBRANCH   1  10
BRANCH   1  14
ATOM     14  C   UNL     1       3.727  -3.720  -4.130  0.00  0.00    +0.359 C 
ATOM     15  O   UNL     1       4.561  -4.459  -4.597  0.00  0.00    -0.246 OA
BRANCH  14  16
ATOM     16  O   UNL     1       4.059  -2.468  -3.778  0.00  0.00    -0.462 OA
BRANCH  16  17
ATOM     17  C   UNL     1       5.418  -2.076  -3.985  0.00  0.00    +0.229 C 
ATOM     18  C   UNL     1       5.605  -0.628  -3.528  0.00  0.00    +0.048 C 
ENDBRANCH  16  17
ENDBRANCH  14  16
ENDBRANCH   1  14
BRANCH   1  19
ATOM     19  N   UNL     1       2.278  -5.665  -4.051  0.00  0.00    -0.301 N 
ATOM     20  H   UNL     1       1.909  -6.198  -3.329  0.00  0.00    +0.149 HD
BRANCH  19  21
ATOM     21  C   UNL     1       2.770  -6.285  -5.185  0.00  0.00    +0.080 A 
ATOM     22  C   UNL     1       2.735  -7.635  -5.503  0.00  0.00    +0.068 A 
ATOM     23  C   UNL     1       3.327  -8.034  -6.769  0.00  0.00    -0.023 A 
ATOM     24  C   UNL     1       3.845  -7.013  -7.482  0.00  0.00    -0.005 A 
ATOM     25  S   UNL     1       3.542  -5.575  -6.496  0.00  0.00    -0.078 S 
ATOM     26  C   UNL     1       4.521  -7.098  -8.816  0.00  0.00    +0.043 C 
ATOM     27  C   UNL     1       4.875  -8.569  -9.084  0.00  0.00    +0.005 C 
ATOM     28  C   UNL     1       3.647  -9.435  -8.789  0.00  0.00    +0.005 C 
ATOM     29  C   UNL     1       3.380  -9.465  -7.283  0.00  0.00    +0.037 C 
BRANCH  22  30
ATOM     30  C   UNL     1       2.127  -8.616  -4.601  0.00  0.00    +0.244 C 
ATOM     31  O   UNL     1       0.945  -8.887  -4.705  0.00  0.00    -0.270 OA
ATOM     32  N   UNL     1       2.876  -9.219  -3.657  0.00  0.00    -0.325 N 
ATOM     33  H   UNL     1       3.818  -9.003  -3.574  0.00  0.00    +0.145 HD
ATOM     34  H   UNL     1       2.474  -9.868  -3.060  0.00  0.00    +0.145 HD
ENDBRANCH  22  30
ENDBRANCH  19  21
ENDBRANCH   1  19
TORSDOF 11
