REMARK  Name = ZINC64053240
REMARK  6 active torsions:
REMARK  status: ('A' for Active; 'I' for Inactive)
REMARK    1  A    between atoms: C_1  and  C_2
REMARK    2  A    between atoms: C_6  and  C_8
REMARK    3  A    between atoms: C_23  and  C_25
REMARK    4  A    between atoms: C_27  and  C_32
REMARK    5  A    between atoms: C_32  and  C_33
REMARK    6  A    between atoms: C_32  and  C_34
REMARK                            x       y       z     vdW  Elec       q    Type
REMARK                         _______ _______ _______ _____ _____    ______ ____
ROOT
ATOM      1  C   UNL     1      -0.098  -2.892   2.442  0.00  0.00    +0.151 C 
ATOM      2  C   UNL     1       1.061  -2.850   3.444  0.00  0.00    +0.133 C 
ATOM      3  C   UNL     1       0.609  -3.642   4.665  0.00  0.00    -0.035 C 
ATOM      4  C   UNL     1       1.521  -4.587   4.857  0.00  0.00    -0.001 A 
ATOM      5  C   UNL     1       1.667  -5.606   5.909  0.00  0.00    +0.010 A 
ATOM      6  C   UNL     1       2.736  -6.439   5.791  0.00  0.00    +0.001 A 
ATOM      7  C   UNL     1       3.661  -6.360   4.746  0.00  0.00    +0.002 A 
ATOM      8  C   UNL     1       3.606  -5.452   3.740  0.00  0.00    +0.026 A 
ATOM      9  C   UNL     1       2.529  -4.518   3.756  0.00  0.00    +0.043 A 
ATOM     10  N   UNL     1       2.252  -3.527   2.928  0.00  0.00    -0.375 N 
ATOM     11  C   UNL     1      -0.690  -3.357   5.380  0.00  0.00    +0.052 C 
ATOM     12  C   UNL     1      -1.790  -3.325   4.303  0.00  0.00    +0.113 C 
ATOM     13  N   UNL     1      -1.330  -2.530   3.159  0.00  0.00    -0.285 N 
ATOM     14  C   UNL     1      -2.042  -1.457   2.764  0.00  0.00    +0.266 C 
ATOM     15  O   UNL     1      -1.747  -0.876   1.738  0.00  0.00    -0.268 OA
ATOM     16  H   UNL     1       2.736  -3.287   2.123  0.00  0.00    +0.160 HD
ENDROOT
BRANCH  14  17
ATOM     17  C   UNL     1      -3.188  -0.984   3.580  0.00  0.00    +0.131 A 
ATOM     18  C   UNL     1      -4.187  -0.194   3.010  0.00  0.00    +0.056 A 
ATOM     19  C   UNL     1      -5.238   0.224   3.813  0.00  0.00    +0.050 A 
ATOM     20  N   UNL     1      -5.262  -0.136   5.084  0.00  0.00    -0.219 NA
ATOM     21  C   UNL     1      -4.299  -0.887   5.598  0.00  0.00    +0.213 A 
ATOM     22  N   UNL     1      -3.282  -1.311   4.867  0.00  0.00    -0.210 NA
ATOM     23  N   UNL     1      -4.362  -1.243   6.935  0.00  0.00    -0.327 N 
ATOM     24  H   UNL     1      -5.104  -0.942   7.482  0.00  0.00    +0.145 HD
ATOM     25  H   UNL     1      -3.664  -1.792   7.324  0.00  0.00    +0.145 HD
BRANCH  19  26
ATOM     26  C   UNL     1      -6.340   1.079   3.242  0.00  0.00    +0.032 C 
ATOM     27  C   UNL     1      -5.920   2.550   3.287  0.00  0.00    +0.014 C 
ATOM     28  C   UNL     1      -6.606   0.668   1.793  0.00  0.00    +0.014 C 
ENDBRANCH  19  26
ENDBRANCH  14  17
BRANCH   1  34
ATOM     29  C   UNL     1       1.185   1.613   1.072  0.00  0.00    +0.065 C 
ATOM     30  C   UNL     1       0.759   0.221   0.684  0.00  0.00    +0.039 A 
ATOM     31  C   UNL     1       0.614  -0.102  -0.652  0.00  0.00    +0.023 A 
ATOM     32  C   UNL     1       0.222  -1.385  -0.999  0.00  0.00    +0.004 A 
ATOM     33  C   UNL     1      -0.012  -2.301   0.017  0.00  0.00    +0.025 A 
ATOM     34  C   UNL     1       0.153  -1.906   1.330  0.00  0.00    +0.064 A 
ATOM     35  N   UNL     1       0.533  -0.677   1.623  0.00  0.00    -0.255 NA
ENDBRANCH   1  34
TORSDOF 3
