REMARK  Name = ZINC08414555
REMARK  9 active torsions:
REMARK  status: ('A' for Active; 'I' for Inactive)
REMARK    1  A    between atoms: C_1  and  C_2
REMARK    2  A    between atoms: C_9  and  C_11
REMARK    3  A    between atoms: C_14  and  N_17
REMARK    4  A    between atoms: C_21  and  N_58
REMARK    5  A    between atoms: C_25  and  C_26
REMARK    6  A    between atoms: C_25  and  N_58
REMARK    7  A    between atoms: C_26  and  C_27
REMARK    8  A    between atoms: C_32  and  O_33
REMARK    9  A    between atoms: O_33  and  C_34
REMARK                            x       y       z     vdW  Elec       q    Type
REMARK                         _______ _______ _______ _____ _____    ______ ____
ROOT
ATOM      1  N   UNL     1       5.125   7.135  -3.738  0.00  0.00    -0.212 N 
ATOM      2  C   UNL     1       6.348   6.659  -3.469  0.00  0.00    +0.225 C 
ATOM      3  O   UNL     1       7.390   7.234  -3.695  0.00  0.00    -0.275 OA
ATOM      4  C   UNL     1       6.221   5.285  -2.839  0.00  0.00    +0.090 C 
ATOM      5  C   UNL     1       4.697   5.053  -2.790  0.00  0.00    +0.026 C 
ATOM      6  C   UNL     1       4.124   6.315  -3.397  0.00  0.00    +0.213 C 
ATOM      7  O   UNL     1       2.944   6.546  -3.552  0.00  0.00    -0.277 OA
ENDROOT
BRANCH   1  11
ATOM      8  C   UNL     1       4.493  10.866  -5.492  0.00  0.00    +0.007 A 
ATOM      9  C   UNL     1       5.019  10.780  -4.202  0.00  0.00    +0.012 A 
ATOM     10  C   UNL     1       5.227   9.546  -3.625  0.00  0.00    +0.024 A 
ATOM     11  C   UNL     1       4.913   8.387  -4.326  0.00  0.00    +0.044 A 
ATOM     12  C   UNL     1       4.393   8.470  -5.613  0.00  0.00    +0.024 A 
ATOM     13  C   UNL     1       4.178   9.700  -6.193  0.00  0.00    +0.012 A 
BRANCH   8  22
ATOM     14  C   UNL     1       3.279  17.860  -8.862  0.00  0.00    +0.044 C 
ATOM     15  C   UNL     1       3.613  16.686  -7.977  0.00  0.00    -0.049 A 
ATOM     16  C   UNL     1       4.139  16.891  -6.709  0.00  0.00    +0.005 A 
ATOM     17  C   UNL     1       4.451  15.853  -5.889  0.00  0.00    +0.029 A 
ATOM     18  C   UNL     1       4.248  14.515  -6.303  0.00  0.00    +0.079 A 
ATOM     19  C   UNL     1       3.711  14.338  -7.601  0.00  0.00    +0.040 A 
ATOM     20  C   UNL     1       3.400  15.394  -8.421  0.00  0.00    +0.020 A 
ATOM     21  S   UNL     1       3.622  12.569  -7.736  0.00  0.00    -0.067 S 
ATOM     22  C   UNL     1       4.269  12.188  -6.114  0.00  0.00    +0.109 A 
ATOM     23  N   UNL     1       4.502  13.383  -5.617  0.00  0.00    -0.239 NA
ENDBRANCH   8  22
ENDBRANCH   1  11
BRANCH   5  24
ATOM     24  N   UNL     1       4.248   4.898  -1.394  0.00  0.00    +0.387 N 
ATOM     25  H   UNL     1       4.119   5.827  -0.974  0.00  0.00    -0.085 HD
ATOM     26  H   UNL     1       4.960   4.380  -0.865  0.00  0.00    -0.085 HD
BRANCH  24  27
ATOM     27  C   UNL     1       2.972   4.161  -1.345  0.00  0.00    -0.077 C 
BRANCH  27  28
ATOM     28  C   UNL     1       2.532   4.016   0.113  0.00  0.00    +0.020 C 
BRANCH  28  29
ATOM     29  C   UNL     1       1.228   3.263   0.172  0.00  0.00    -0.007 A 
ATOM     30  C   UNL     1       0.033   3.953   0.225  0.00  0.00    +0.007 A 
ATOM     31  C   UNL     1      -1.164   3.263   0.280  0.00  0.00    +0.000 A 
ATOM     32  C   UNL     1      -1.168   1.880   0.275  0.00  0.00    +0.004 A 
ATOM     33  C   UNL     1       0.024   1.185   0.227  0.00  0.00    +0.046 A 
ATOM     34  C   UNL     1       1.227   1.876   0.173  0.00  0.00    +0.123 A 
BRANCH  34  35
ATOM     35  O   UNL     1       2.401   1.194   0.120  0.00  0.00    -0.495 OA
ATOM     36  C   UNL     1       2.324  -0.233   0.124  0.00  0.00    +0.277 C 
ENDBRANCH  34  35
ENDBRANCH  28  29
ENDBRANCH  27  28
ENDBRANCH  24  27
ENDBRANCH   5  24
TORSDOF 7
