REMARK  Name = ZINC41595849
REMARK  6 active torsions:
REMARK  status: ('A' for Active; 'I' for Inactive)
REMARK    1  A    between atoms: C_1  and  C_2
REMARK    2  A    between atoms: C_2  and  O_3
REMARK    3  A    between atoms: O_3  and  C_4
REMARK    4  A    between atoms: C_9  and  N_10
REMARK    5  A    between atoms: N_21  and  C_23
REMARK    6  A    between atoms: C_23  and  C_24
REMARK                            x       y       z     vdW  Elec       q    Type
REMARK                         _______ _______ _______ _____ _____    ______ ____
ROOT
ATOM      1  N   UNL     1      -3.902  -1.566   0.031  0.00  0.00    -0.282 N 
ATOM      2  C   UNL     1      -5.158  -2.107  -0.063  0.00  0.00    +0.200 A 
ATOM      3  N   UNL     1      -6.237  -1.282  -0.156  0.00  0.00    -0.295 N 
ATOM      4  H   UNL     1      -6.116  -0.319  -0.158  0.00  0.00    +0.172 HD
ATOM      5  C   UNL     1      -7.474  -1.811  -0.247  0.00  0.00    +0.254 A 
ATOM      6  O   UNL     1      -8.453  -1.088  -0.331  0.00  0.00    -0.268 OA
ATOM      7  C   UNL     1      -7.618  -3.213  -0.243  0.00  0.00    +0.022 A 
ATOM      8  C   UNL     1      -6.504  -3.988  -0.153  0.00  0.00    +0.050 A 
ATOM      9  N   UNL     1      -5.301  -3.415  -0.068  0.00  0.00    -0.220 NA
ATOM     10  C   UNL     1      -6.590  -5.493  -0.156  0.00  0.00    +0.037 C 
ATOM     11  C   UNL     1      -8.025  -5.931   0.144  0.00  0.00    -0.072 C 
ATOM     12  N   UNL     1      -8.935  -5.205  -0.756  0.00  0.00    +0.385 N 
ATOM     13  C   UNL     1      -8.999  -3.802  -0.337  0.00  0.00    -0.035 C 
ATOM     14  H   UNL     1      -3.793  -0.607   0.124  0.00  0.00    +0.155 HD
ATOM     15  H   UNL     1      -8.588  -5.260  -1.702  0.00  0.00    -0.081 HD
ENDROOT
BRANCH   1  21
ATOM     16  C   UNL     1      -1.582  -1.985   0.579  0.00  0.00    +0.142 A 
ATOM     17  C   UNL     1      -0.474  -2.816   0.544  0.00  0.00    +0.047 A 
ATOM     18  C   UNL     1      -0.553  -4.049  -0.076  0.00  0.00    +0.004 A 
ATOM     19  C   UNL     1      -1.736  -4.457  -0.663  0.00  0.00    +0.002 A 
ATOM     20  C   UNL     1      -2.846  -3.635  -0.632  0.00  0.00    +0.027 A 
ATOM     21  C   UNL     1      -2.777  -2.399  -0.006  0.00  0.00    +0.076 A 
BRANCH  16  22
ATOM     22  O   UNL     1      -1.506  -0.772   1.188  0.00  0.00    -0.490 OA
BRANCH  22  24
ATOM     23  C   UNL     1      -0.356   0.974   2.401  0.00  0.00    +0.048 C 
ATOM     24  C   UNL     1      -0.249  -0.415   1.767  0.00  0.00    +0.226 C 
ENDBRANCH  22  24
ENDBRANCH  16  22
ENDBRANCH   1  21
BRANCH  12  25
ATOM     25  C   UNL     1     -10.275  -5.802  -0.685  0.00  0.00    -0.043 C 
BRANCH  25  26
ATOM     26  C   UNL     1     -11.174  -5.138  -1.696  0.00  0.00    -0.064 A 
ATOM     27  C   UNL     1     -11.901  -4.016  -1.344  0.00  0.00    +0.002 A 
ATOM     28  C   UNL     1     -12.726  -3.407  -2.272  0.00  0.00    +0.000 A 
ATOM     29  C   UNL     1     -12.823  -3.920  -3.552  0.00  0.00    +0.000 A 
ATOM     30  C   UNL     1     -12.095  -5.041  -3.904  0.00  0.00    +0.000 A 
ATOM     31  C   UNL     1     -11.267  -5.647  -2.978  0.00  0.00    +0.002 A 
ENDBRANCH  25  26
ENDBRANCH  12  25
TORSDOF 5
