REMARK  Name = ZINC30979482
REMARK  11 active torsions:
REMARK  status: ('A' for Active; 'I' for Inactive)
REMARK    1  A    between atoms: C_1  and  C_2
REMARK    2  A    between atoms: C_2  and  C_4
REMARK    3  A    between atoms: C_2  and  N_14
REMARK    4  A    between atoms: C_7  and  C_10
REMARK    5  A    between atoms: C_10  and  C_11
REMARK    6  A    between atoms: C_10  and  C_12
REMARK    7  A    between atoms: C_10  and  C_13
REMARK    8  A    between atoms: C_15  and  C_17
REMARK    9  A    between atoms: N_20  and  C_23
REMARK   10  A    between atoms: C_23  and  C_24
REMARK   11  A    between atoms: C_26  and  C_29
REMARK                            x       y       z     vdW  Elec       q    Type
REMARK                         _______ _______ _______ _____ _____    ______ ____
ROOT
ATOM      1  C   UNL     1       0.712  -1.094  -3.598  0.00  0.00    +0.071 C 
ATOM      2  C   UNL     1       1.845  -0.128  -3.954  0.00  0.00    -0.006 C 
ATOM      3  C   UNL     1       2.519  -0.594  -5.247  0.00  0.00    -0.077 C 
ATOM      4  N   UNL     1       1.527  -0.633  -6.330  0.00  0.00    +0.386 N 
ATOM      5  C   UNL     1       0.453  -1.589  -6.032  0.00  0.00    -0.077 C 
ATOM      6  C   UNL     1      -0.282  -1.153  -4.762  0.00  0.00    -0.006 C 
ATOM      7  H   UNL     1       1.075   0.367  -6.406  0.00  0.00    -0.081 HD
ENDROOT
BRANCH   1   9
ATOM      8  N   UNL     1       0.688  -0.476  -1.203  0.00  0.00    -0.309 N 
ATOM      9  C   UNL     1       0.006  -0.608  -2.358  0.00  0.00    +0.216 C 
ATOM     10  O   UNL     1      -1.175  -0.336  -2.400  0.00  0.00    -0.276 OA
ATOM     11  H   UNL     1       1.759  -0.724  -1.165  0.00  0.00    +0.149 HD
BRANCH   8  13
ATOM     12  C   UNL     1      -0.019   1.526   0.010  0.00  0.00    +0.033 C 
ATOM     13  C   UNL     1       0.002  -0.004   0.002  0.00  0.00    +0.100 C 
BRANCH  13  14
ATOM     14  C   UNL     1       0.731  -0.503   1.223  0.00  0.00    -0.027 A 
ATOM     15  C   UNL     1       2.113  -0.524   1.242  0.00  0.00    +0.006 A 
ATOM     16  C   UNL     1       2.782  -0.978   2.364  0.00  0.00    +0.004 A 
ATOM     17  C   UNL     1       2.068  -1.419   3.463  0.00  0.00    -0.042 A 
ATOM     18  C   UNL     1       0.686  -1.404   3.441  0.00  0.00    +0.004 A 
ATOM     19  C   UNL     1       0.017  -0.945   2.321  0.00  0.00    +0.006 A 
BRANCH  17  20
ATOM     20  C   UNL     1       2.797  -1.919   4.684  0.00  0.00    -0.013 C 
ATOM     21  C   UNL     1       2.406  -3.374   4.951  0.00  0.00    +0.015 C 
ATOM     22  C   UNL     1       4.306  -1.831   4.448  0.00  0.00    +0.015 C 
ATOM     23  C   UNL     1       2.418  -1.058   5.891  0.00  0.00    +0.015 C 
ENDBRANCH  17  20
ENDBRANCH  13  14
ENDBRANCH   8  13
ENDBRANCH   1   9
BRANCH   4  24
ATOM     24  C   UNL     1       2.165  -0.941  -7.617  0.00  0.00    +0.022 C 
BRANCH  24  25
ATOM     25  C   UNL     1       3.084   0.188  -8.005  0.00  0.00    +0.211 A 
ATOM     26  N   UNL     1       4.353   0.298  -7.699  0.00  0.00    -0.193 NA
ATOM     27  C   UNL     1       4.761   1.461  -8.257  0.00  0.00    +0.202 A 
ATOM     28  N   UNL     1       3.726   1.982  -8.863  0.00  0.00    -0.056 NA
ATOM     29  O   UNL     1       2.760   1.261  -8.732  0.00  0.00    -0.340 OA
BRANCH  27  30
ATOM     30  C   UNL     1       6.127   2.037  -8.193  0.00  0.00    +0.023 A 
ATOM     31  C   UNL     1       7.136   1.369  -7.502  0.00  0.00    +0.013 A 
ATOM     32  C   UNL     1       8.406   1.906  -7.449  0.00  0.00    +0.016 A 
ATOM     33  C   UNL     1       8.676   3.112  -8.073  0.00  0.00    +0.018 A 
ATOM     34  C   UNL     1       7.676   3.782  -8.757  0.00  0.00    +0.016 A 
ATOM     35  C   UNL     1       6.404   3.250  -8.819  0.00  0.00    +0.013 A 
ATOM     36 BR   UNL     1      10.417   3.846  -7.992  0.00  0.00    -0.050 Br
ENDBRANCH  27  30
ENDBRANCH  24  25
ENDBRANCH   4  24
TORSDOF 7
