REMARK  Name = ZINC39664038
REMARK  10 active torsions:
REMARK  status: ('A' for Active; 'I' for Inactive)
REMARK    1  A    between atoms: C_1  and  C_2
REMARK    2  A    between atoms: C_2  and  C_3
REMARK    3  A    between atoms: C_6  and  C_9
REMARK    4  A    between atoms: C_13  and  C_22
REMARK    5  A    between atoms: N_24  and  C_25
REMARK    6  A    between atoms: C_25  and  C_26
REMARK    7  A    between atoms: C_26  and  C_28
REMARK    8  A    between atoms: C_26  and  N_36
REMARK    9  A    between atoms: C_31  and  O_34
REMARK   10  A    between atoms: O_34  and  C_35
REMARK                            x       y       z     vdW  Elec       q    Type
REMARK                         _______ _______ _______ _____ _____    ______ ____
ROOT
ATOM      1  C   UNL     1      -5.433  -2.011   0.054  0.00  0.00    +0.247 C 
ATOM      2  O   UNL     1      -5.968  -2.321   1.101  0.00  0.00    -0.270 OA
ATOM      3  N   UNL     1      -6.103  -2.140  -1.109  0.00  0.00    -0.296 N 
ATOM      4  C   UNL     1      -5.584  -1.944  -2.483  0.00  0.00    +0.121 C 
ATOM      5  C   UNL     1      -6.245  -3.065  -3.314  0.00  0.00    +0.100 C 
ATOM      6  C   UNL     1      -7.520  -3.432  -2.535  0.00  0.00    -0.004 C 
ATOM      7  C   UNL     1      -7.524  -2.517  -1.302  0.00  0.00    +0.115 C 
ATOM      8  C   UNL     1      -8.755  -3.172  -3.392  0.00  0.00    -0.010 C 
ATOM      9  C   UNL     1     -10.006  -3.598  -2.617  0.00  0.00    -0.082 C 
ATOM     10  N   UNL     1      -9.912  -5.023  -2.278  0.00  0.00    +0.379 N 
ATOM     11  C   UNL     1      -8.774  -5.249  -1.379  0.00  0.00    -0.082 C 
ATOM     12  C   UNL     1      -7.472  -4.893  -2.101  0.00  0.00    -0.010 C 
ATOM     13  H   UNL     1     -10.763  -5.315  -1.822  0.00  0.00    -0.086 HD
ATOM     14  H   UNL     1      -9.784  -5.560  -3.122  0.00  0.00    -0.086 HD
ENDROOT
BRANCH   1  18
ATOM     15  C   UNL     1      -1.454  -0.526   0.058  0.00  0.00    -0.048 A 
ATOM     16  C   UNL     1      -1.890  -1.330   1.096  0.00  0.00    +0.004 A 
ATOM     17  C   UNL     1      -3.181  -1.816   1.101  0.00  0.00    +0.013 A 
ATOM     18  C   UNL     1      -4.048  -1.494   0.055  0.00  0.00    +0.037 A 
ATOM     19  C   UNL     1      -3.602  -0.682  -0.988  0.00  0.00    +0.013 A 
ATOM     20  C   UNL     1      -2.310  -0.199  -0.978  0.00  0.00    +0.004 A 
BRANCH  15  22
ATOM     21  C   UNL     1       0.000   1.345   0.789  0.00  0.00    +0.009 C 
ATOM     22  C   UNL     1      -0.042   0.001   0.060  0.00  0.00    +0.032 C 
ENDBRANCH  15  22
ENDBRANCH   1  18
BRANCH   5  23
ATOM     23  C   UNL     1      -6.595  -2.561  -4.691  0.00  0.00    +0.218 C 
ATOM     24  O   UNL     1      -6.784  -1.377  -4.873  0.00  0.00    -0.275 OA
ATOM     25  N   UNL     1      -6.699  -3.426  -5.719  0.00  0.00    -0.316 N 
ATOM     26  H   UNL     1      -6.548  -4.373  -5.573  0.00  0.00    +0.149 HD
BRANCH  25  27
ATOM     27  C   UNL     1      -7.039  -2.936  -7.057  0.00  0.00    +0.093 C 
BRANCH  27  28
ATOM     28  C   UNL     1      -6.969  -4.093  -8.057  0.00  0.00    -0.020 C 
BRANCH  28  29
ATOM     29  C   UNL     1      -5.569  -4.650  -8.083  0.00  0.00    -0.059 A 
ATOM     30  C   UNL     1      -4.582  -4.005  -8.805  0.00  0.00    +0.005 A 
ATOM     31  C   UNL     1      -3.299  -4.514  -8.830  0.00  0.00    +0.046 A 
ATOM     32  C   UNL     1      -3.000  -5.674  -8.131  0.00  0.00    +0.120 A 
ATOM     33  C   UNL     1      -3.992  -6.320  -7.407  0.00  0.00    +0.046 A 
ATOM     34  C   UNL     1      -5.273  -5.804  -7.380  0.00  0.00    +0.005 A 
BRANCH  32  35
ATOM     35  O   UNL     1      -1.738  -6.178  -8.155  0.00  0.00    -0.495 OA
ATOM     36  C   UNL     1      -1.502  -7.375  -7.412  0.00  0.00    +0.277 C 
ENDBRANCH  32  35
ENDBRANCH  28  29
BRANCH  28  37
ATOM     37  N   UNL     1      -7.327  -3.605  -9.395  0.00  0.00    +0.385 N 
ATOM     38  C   UNL     1      -7.461  -4.746 -10.337  0.00  0.00    -0.078 C 
ATOM     39  C   UNL     1      -8.352  -4.170 -11.467  0.00  0.00    -0.020 C 
ATOM     40  C   UNL     1      -9.349  -3.273 -10.697  0.00  0.00    -0.020 C 
ATOM     41  C   UNL     1      -8.653  -2.951  -9.362  0.00  0.00    -0.078 C 
ATOM     42  H   UNL     1      -6.628  -2.958  -9.729  0.00  0.00    -0.081 HD
ENDBRANCH  28  37
ENDBRANCH  27  28
ENDBRANCH  25  27
ENDBRANCH   5  23
TORSDOF 8
