REMARK  Name = ZINC01869201
REMARK  9 active torsions:
REMARK  status: ('A' for Active; 'I' for Inactive)
REMARK    1  A    between atoms: C_1  and  C_2
REMARK    2  A    between atoms: C_2  and  O_3
REMARK    3  A    between atoms: O_3  and  C_4
REMARK    4  A    between atoms: C_6  and  C_18
REMARK    5  A    between atoms: C_9  and  O_10
REMARK    6  A    between atoms: O_10  and  C_11
REMARK    7  A    between atoms: C_11  and  C_12
REMARK    8  A    between atoms: N_26  and  C_29
REMARK    9  A    between atoms: N_38  and  C_39
REMARK                            x       y       z     vdW  Elec       q    Type
REMARK                         _______ _______ _______ _____ _____    ______ ____
ROOT
ATOM      1  C   UNL     1       0.744  -4.712  -0.298  0.00  0.00    +0.157 C 
ATOM      2  C   UNL     1       0.875  -5.541  -1.597  0.00  0.00    +0.145 C 
ATOM      3  C   UNL     1       0.247  -6.909  -1.216  0.00  0.00    +0.249 C 
ATOM      4  C   UNL     1       1.424  -7.857  -1.251  0.00  0.00    +0.259 C 
ATOM      5  O   UNL     1       1.377  -9.043  -1.004  0.00  0.00    -0.272 OA
ATOM      6  N   UNL     1       2.527  -7.183  -1.598  0.00  0.00    -0.208 N 
ATOM      7  C   UNL     1       2.336  -5.860  -1.830  0.00  0.00    +0.235 C 
ATOM      8  O   UNL     1       3.183  -5.060  -2.164  0.00  0.00    -0.274 OA
ATOM      9  O   UNL     1      -0.222  -6.758   0.136  0.00  0.00    -0.257 OA
ATOM     10  N   UNL     1       0.607  -5.753   0.749  0.00  0.00    -0.244 N 
ENDROOT
BRANCH   6  11
ATOM     11  C   UNL     1       3.783  -7.795  -1.721  0.00  0.00    +0.045 A 
ATOM     12  C   UNL     1       4.799  -7.482  -0.828  0.00  0.00    +0.025 A 
ATOM     13  C   UNL     1       6.035  -8.086  -0.949  0.00  0.00    +0.023 A 
ATOM     14  C   UNL     1       6.262  -9.002  -1.961  0.00  0.00    +0.059 A 
ATOM     15  C   UNL     1       5.251  -9.316  -2.853  0.00  0.00    +0.061 A 
ATOM     16  C   UNL     1       4.010  -8.718  -2.732  0.00  0.00    +0.045 A 
ATOM     17 CL   UNL     1       5.539 -10.466  -4.121  0.00  0.00    -0.082 Cl
ATOM     18 CL   UNL     1       7.817  -9.759  -2.112  0.00  0.00    -0.082 Cl
ENDBRANCH   6  11
BRANCH   1  21
ATOM     19  C   UNL     1      -1.481  -1.680  -0.657  0.00  0.00    +0.162 A 
ATOM     20  C   UNL     1      -0.355  -2.487  -0.614  0.00  0.00    +0.055 A 
ATOM     21  C   UNL     1      -0.481  -3.837  -0.345  0.00  0.00    -0.018 A 
ATOM     22  C   UNL     1      -1.730  -4.386  -0.119  0.00  0.00    +0.009 A 
ATOM     23  C   UNL     1      -2.857  -3.587  -0.161  0.00  0.00    +0.050 A 
ATOM     24  C   UNL     1      -2.737  -2.232  -0.424  0.00  0.00    +0.162 A 
BRANCH  19  25
ATOM     25  O   UNL     1      -1.358  -0.352  -0.921  0.00  0.00    -0.489 OA
BRANCH  25  27
ATOM     26  C   UNL     1      -0.100   1.648  -1.429  0.00  0.00    +0.048 C 
ATOM     27  C   UNL     1      -0.038   0.145  -1.151  0.00  0.00    +0.226 C 
ENDBRANCH  25  27
ENDBRANCH  19  25
BRANCH  24  28
ATOM     28  O   UNL     1      -3.845  -1.443  -0.460  0.00  0.00    -0.484 OA
BRANCH  28  29
ATOM     29  C   UNL     1      -5.101  -2.078  -0.211  0.00  0.00    +0.264 C 
BRANCH  29  30
ATOM     30  C   UNL     1      -6.205  -1.055  -0.291  0.00  0.00    -0.010 A 
ATOM     31  C   UNL     1      -6.587  -0.360   0.841  0.00  0.00    +0.007 A 
ATOM     32  C   UNL     1      -7.600   0.578   0.767  0.00  0.00    +0.000 A 
ATOM     33  C   UNL     1      -8.230   0.822  -0.440  0.00  0.00    +0.000 A 
ATOM     34  C   UNL     1      -7.846   0.127  -1.572  0.00  0.00    +0.000 A 
ATOM     35  C   UNL     1      -6.831  -0.808  -1.499  0.00  0.00    +0.007 A 
ENDBRANCH  29  30
ENDBRANCH  28  29
ENDBRANCH  24  28
ENDBRANCH   1  21
BRANCH  10  36
ATOM     36  C   UNL     1       1.153  -5.750   2.035  0.00  0.00    +0.065 A 
ATOM     37  C   UNL     1       1.924  -4.676   2.461  0.00  0.00    +0.028 A 
ATOM     38  C   UNL     1       2.462  -4.676   3.733  0.00  0.00    +0.002 A 
ATOM     39  C   UNL     1       2.233  -5.743   4.582  0.00  0.00    +0.000 A 
ATOM     40  C   UNL     1       1.465  -6.814   4.161  0.00  0.00    +0.002 A 
ATOM     41  C   UNL     1       0.920  -6.818   2.892  0.00  0.00    +0.028 A 
ENDBRANCH  10  36
TORSDOF 8
