REMARK  Name = ZINC12317378
REMARK  8 active torsions:
REMARK  status: ('A' for Active; 'I' for Inactive)
REMARK    1  A    between atoms: C_1  and  C_2
REMARK    2  A    between atoms: C_5  and  C_8
REMARK    3  A    between atoms: C_8  and  C_13
REMARK    4  A    between atoms: C_15  and  C_18
REMARK    5  A    between atoms: C_18  and  N_57
REMARK    6  A    between atoms: C_19  and  N_57
REMARK    7  A    between atoms: C_20  and  C_21
REMARK    8  A    between atoms: C_20  and  N_57
REMARK                            x       y       z     vdW  Elec       q    Type
REMARK                         _______ _______ _______ _____ _____    ______ ____
ROOT
ATOM      1  C   UNL     1      -2.361   5.254   4.538  0.00  0.00    +0.182 A 
ATOM      2  N   UNL     1      -1.706   5.230   3.364  0.00  0.00    -0.197 NA
ATOM      3  C   UNL     1      -2.181   4.193   2.716  0.00  0.00    +0.211 A 
ATOM      4  O   UNL     1      -3.093   3.623   3.510  0.00  0.00    -0.340 OA
ATOM      5  N   UNL     1      -3.181   4.245   4.547  0.00  0.00    -0.060 NA
ENDROOT
BRANCH   1   6
ATOM      6  C   UNL     1      -2.175   6.262   5.643  0.00  0.00    +0.059 C 
ATOM      7  C   UNL     1      -0.735   6.187   6.190  0.00  0.00    +0.019 C 
ATOM      8  C   UNL     1      -0.894   6.425   7.712  0.00  0.00    +0.001 C 
ATOM      9  C   UNL     1      -2.205   5.669   8.041  0.00  0.00    +0.001 C 
ATOM     10  C   UNL     1      -3.110   5.933   6.820  0.00  0.00    +0.019 C 
BRANCH   6  15
ATOM     11  C   UNL     1      -3.275  11.581   3.671  0.00  0.00    +0.044 C 
ATOM     12  C   UNL     1      -2.988  10.194   4.185  0.00  0.00    -0.050 A 
ATOM     13  C   UNL     1      -2.507  10.019   5.469  0.00  0.00    +0.003 A 
ATOM     14  C   UNL     1      -2.244   8.746   5.941  0.00  0.00    +0.005 A 
ATOM     15  C   UNL     1      -2.462   7.649   5.128  0.00  0.00    -0.034 A 
ATOM     16  C   UNL     1      -2.938   7.825   3.842  0.00  0.00    +0.005 A 
ATOM     17  C   UNL     1      -3.205   9.097   3.372  0.00  0.00    +0.003 A 
ENDBRANCH   6  15
ENDBRANCH   1   6
BRANCH   3  18
ATOM     18  C   UNL     1      -1.772   3.730   1.342  0.00  0.00    +0.022 C 
BRANCH  18  20
ATOM     19  C   UNL     1      -1.077   1.549   2.130  0.00  0.00    -0.095 C 
ATOM     20  N   UNL     1      -0.634   2.796   1.472  0.00  0.00    +0.388 N 
ATOM     21  H   UNL     1       0.094   3.236   2.047  0.00  0.00    -0.081 HD
BRANCH  20  22
ATOM     22  C   UNL     1      -0.074   2.492   0.139  0.00  0.00    -0.003 C 
BRANCH  22  23
ATOM     23  C   UNL     1       1.210   1.722   0.314  0.00  0.00    +0.091 A 
ATOM     24  N   UNL     1       1.318   0.367   0.270  0.00  0.00    -0.343 N 
ATOM     25  H   UNL     1       0.572  -0.282   0.121  0.00  0.00    +0.167 HD
ATOM     26  C   UNL     1       2.648   0.055   0.468  0.00  0.00    +0.066 A 
ATOM     27  C   UNL     1       3.364  -1.134   0.528  0.00  0.00    +0.028 A 
ATOM     28  C   UNL     1       4.724  -1.101   0.746  0.00  0.00    +0.002 A 
ATOM     29  C   UNL     1       5.382   0.111   0.906  0.00  0.00    +0.002 A 
ATOM     30  C   UNL     1       4.694   1.290   0.849  0.00  0.00    +0.030 A 
ATOM     31  C   UNL     1       3.314   1.281   0.629  0.00  0.00    +0.089 A 
ATOM     32  N   UNL     1       2.377   2.257   0.524  0.00  0.00    -0.234 NA
ENDBRANCH  22  23
ENDBRANCH  20  22
ENDBRANCH  18  20
ENDBRANCH   3  18
TORSDOF 6
