REMARK  Name = ZINC06516671
REMARK  5 active torsions:
REMARK  status: ('A' for Active; 'I' for Inactive)
REMARK    1  A    between atoms: C_1  and  C_2
REMARK    2  A    between atoms: C_2  and  C_4
REMARK    3  A    between atoms: C_2  and  S_13
REMARK    4  A    between atoms: N_6  and  C_7
REMARK    5  A    between atoms: S_13  and  C_14
REMARK                            x       y       z     vdW  Elec       q    Type
REMARK                         _______ _______ _______ _____ _____    ______ ____
ROOT
ATOM      1  S   UNL     1      -1.698  -0.627   0.019  0.00  0.00    -0.075 S 
ENDROOT
BRANCH   1   2
ATOM      2  C   UNL     1      -2.332  -0.095   1.575  0.00  0.00    +0.170 A 
ATOM      3  N   UNL     1      -3.617  -0.423   1.901  0.00  0.00    -0.301 N 
ATOM      4  H   UNL     1      -4.155  -0.938   1.279  0.00  0.00    +0.171 HD
ATOM      5  C   UNL     1      -4.145  -0.035   3.085  0.00  0.00    +0.260 A 
ATOM      6  O   UNL     1      -5.288  -0.320   3.390  0.00  0.00    -0.267 OA
ATOM      7  C   UNL     1      -3.286   0.742   3.988  0.00  0.00    +0.065 A 
ATOM      8  C   UNL     1      -3.735   1.188   5.231  0.00  0.00    +0.015 A 
ATOM      9  C   UNL     1      -2.894   1.907   6.033  0.00  0.00    +0.001 A 
ATOM     10  C   UNL     1      -1.599   2.199   5.623  0.00  0.00    +0.002 A 
ATOM     11  C   UNL     1      -1.133   1.774   4.411  0.00  0.00    +0.028 A 
ATOM     12  C   UNL     1      -1.968   1.036   3.568  0.00  0.00    +0.079 A 
ATOM     13  N   UNL     1      -1.547   0.593   2.367  0.00  0.00    -0.223 NA
ENDBRANCH   1   2
BRANCH   1  15
ATOM     14  C   UNL     1      -0.020   1.532  -0.003  0.00  0.00    +0.029 C 
ATOM     15  C   UNL     1       0.003   0.002   0.000  0.00  0.00    +0.137 C 
BRANCH  15  16
ATOM     16  C   UNL     1       0.707  -0.492  -1.237  0.00  0.00    +0.230 C 
ATOM     17  O   UNL     1       0.066  -0.791  -2.222  0.00  0.00    -0.274 OA
ATOM     18  N   UNL     1       2.051  -0.601  -1.250  0.00  0.00    -0.285 N 
ATOM     19  H   UNL     1       2.569  -0.298  -0.487  0.00  0.00    +0.155 HD
BRANCH  18  20
ATOM     20  C   UNL     1       2.698  -1.150  -2.362  0.00  0.00    +0.033 A 
ATOM     21  C   UNL     1       3.837  -1.925  -2.191  0.00  0.00    +0.023 A 
ATOM     22  C   UNL     1       4.474  -2.466  -3.291  0.00  0.00    +0.002 A 
ATOM     23  C   UNL     1       3.978  -2.236  -4.561  0.00  0.00    +0.000 A 
ATOM     24  C   UNL     1       2.844  -1.464  -4.735  0.00  0.00    +0.002 A 
ATOM     25  C   UNL     1       2.199  -0.925  -3.638  0.00  0.00    +0.023 A 
ENDBRANCH  18  20
ENDBRANCH  15  16
ENDBRANCH   1  15
TORSDOF 4
