REMARK  Name = ZINC65305803
REMARK  16 active torsions:
REMARK  status: ('A' for Active; 'I' for Inactive)
REMARK    1  A    between atoms: C_1  and  C_2
REMARK    2  A    between atoms: C_2  and  O_3
REMARK    3  A    between atoms: O_3  and  C_4
REMARK    4  A    between atoms: C_6  and  C_16
REMARK    5  A    between atoms: C_8  and  O_13
REMARK    6  A    between atoms: C_9  and  O_10
REMARK    7  A    between atoms: O_10  and  C_11
REMARK    8  A    between atoms: C_11  and  C_12
REMARK    9  A    between atoms: O_13  and  C_14
REMARK   10  A    between atoms: C_14  and  C_15
REMARK   11  A    between atoms: N_18  and  C_19
REMARK   12  A    between atoms: C_19  and  C_21
REMARK   13  A    between atoms: C_19  and  C_24
REMARK   14  A    between atoms: C_21  and  C_22
REMARK   15  A    between atoms: C_21  and  C_23
REMARK   16  A    between atoms: N_26  and  C_27
REMARK                            x       y       z     vdW  Elec       q    Type
REMARK                         _______ _______ _______ _____ _____    ______ ____
ROOT
ATOM      1  C   UNL     1      -0.215  -4.962   0.454  0.00  0.00    +0.245 C 
ATOM      2  O   UNL     1      -0.778  -4.512   1.433  0.00  0.00    -0.270 OA
ATOM      3  N   UNL     1      -0.109  -6.296   0.291  0.00  0.00    -0.300 N 
ATOM      4  H   UNL     1       0.340  -6.655  -0.491  0.00  0.00    +0.150 HD
ENDROOT
BRANCH   1   7
ATOM      5  C   UNL     1       0.777  -1.811  -1.336  0.00  0.00    +0.166 A 
ATOM      6  C   UNL     1       0.244  -2.665  -0.389  0.00  0.00    +0.062 A 
ATOM      7  C   UNL     1       0.353  -4.048  -0.557  0.00  0.00    +0.044 A 
ATOM      8  C   UNL     1       1.000  -4.564  -1.682  0.00  0.00    +0.062 A 
ATOM      9  C   UNL     1       1.531  -3.705  -2.627  0.00  0.00    +0.166 A 
ATOM     10  C   UNL     1       1.417  -2.328  -2.460  0.00  0.00    +0.204 A 
BRANCH   5  11
ATOM     11  O   UNL     1       0.671  -0.465  -1.174  0.00  0.00    -0.488 OA
BRANCH  11  13
ATOM     12  C   UNL     1      -0.019   1.526   0.010  0.00  0.00    +0.048 C 
ATOM     13  C   UNL     1       0.002  -0.004   0.002  0.00  0.00    +0.226 C 
ENDBRANCH  11  13
ENDBRANCH   5  11
BRANCH  10  14
ATOM     14  O   UNL     1       1.935  -1.486  -3.392  0.00  0.00    -0.485 OA
BRANCH  14  15
ATOM     15  C   UNL     1       3.291  -1.073  -3.211  0.00  0.00    +0.226 C 
ATOM     16  C   UNL     1       3.695  -0.136  -4.351  0.00  0.00    +0.048 C 
ENDBRANCH  14  15
ENDBRANCH  10  14
BRANCH   9  17
ATOM     17  O   UNL     1       2.162  -4.207  -3.722  0.00  0.00    -0.488 OA
BRANCH  17  18
ATOM     18  C   UNL     1       2.238  -5.630  -3.832  0.00  0.00    +0.226 C 
ATOM     19  C   UNL     1       2.977  -6.003  -5.119  0.00  0.00    +0.048 C 
ENDBRANCH  17  18
ENDBRANCH   9  17
ENDBRANCH   1   7
BRANCH   3  20
ATOM     20  C   UNL     1      -0.673  -7.203   1.293  0.00  0.00    +0.162 C 
BRANCH  20  21
ATOM     21  C   UNL     1       0.058  -8.520   1.246  0.00  0.00    +0.236 C 
ATOM     22  O   UNL     1       0.961  -8.685   0.453  0.00  0.00    -0.274 OA
ATOM     23  N   UNL     1      -0.291  -9.515   2.085  0.00  0.00    -0.277 N 
ATOM     24  H   UNL     1      -1.013  -9.384   2.720  0.00  0.00    +0.152 HD
BRANCH  23  25
ATOM     25  C   UNL     1       0.419 -10.796   2.039  0.00  0.00    +0.269 C 
ATOM     26  N   UNL     1      -0.055 -11.595   0.902  0.00  0.00    -0.348 N 
ATOM     27  C   UNL     1      -0.558 -12.696   1.381  0.00  0.00    +0.061 A 
ATOM     28  C   UNL     1      -1.178 -13.868   0.749  0.00  0.00    +0.027 A 
ATOM     29  C   UNL     1      -1.617 -14.884   1.518  0.00  0.00    +0.002 A 
ATOM     30  C   UNL     1      -1.510 -14.874   2.921  0.00  0.00    +0.002 A 
ATOM     31  C   UNL     1      -0.959 -13.849   3.600  0.00  0.00    +0.027 A 
ATOM     32  C   UNL     1      -0.444 -12.685   2.865  0.00  0.00    +0.061 A 
ATOM     33  N   UNL     1       0.126 -11.579   3.246  0.00  0.00    -0.348 N 
ATOM     34  H   UNL     1      -0.004 -11.347  -0.035  0.00  0.00    +0.163 HD
ATOM     35  H   UNL     1       0.320 -11.319   4.160  0.00  0.00    +0.163 HD
ENDBRANCH  23  25
ENDBRANCH  20  21
BRANCH  20  36
ATOM     36  C   UNL     1      -2.156  -7.432   0.998  0.00  0.00    +0.012 C 
ATOM     37  C   UNL     1      -2.898  -6.095   1.046  0.00  0.00    +0.009 C 
ATOM     38  C   UNL     1      -2.310  -8.050  -0.393  0.00  0.00    +0.009 C 
ENDBRANCH  20  36
ENDBRANCH   3  20
TORSDOF 11
