REMARK  Name = ZINC39708118
REMARK  6 active torsions:
REMARK  status: ('A' for Active; 'I' for Inactive)
REMARK    1  A    between atoms: C_1  and  C_2
REMARK    2  A    between atoms: C_5  and  N_28
REMARK    3  A    between atoms: C_7  and  N_8
REMARK    4  A    between atoms: C_9  and  C_11
REMARK    5  A    between atoms: C_11  and  S_12
REMARK    6  A    between atoms: S_12  and  C_13
REMARK                            x       y       z     vdW  Elec       q    Type
REMARK                         _______ _______ _______ _____ _____    ______ ____
ROOT
ATOM      1  C   UNL     1      -0.169   0.052   4.882  0.00  0.00    +0.173 C 
ENDROOT
BRANCH   1   3
ATOM      2  N   UNL     1       0.025  -0.015   2.417  0.00  0.00    -0.285 N 
ATOM      3  C   UNL     1      -0.057  -0.694   3.578  0.00  0.00    +0.227 C 
ATOM      4  O   UNL     1      -0.040  -1.907   3.573  0.00  0.00    -0.275 OA
ATOM      5  H   UNL     1       0.077   0.954   2.425  0.00  0.00    +0.155 HD
BRANCH   2  12
ATOM      6  C   UNL     1      -1.265   1.183   0.181  0.00  0.00    +0.045 C 
ATOM      7  C   UNL     1      -0.584  -0.158   0.084  0.00  0.00    -0.029 A 
ATOM      8  C   UNL     1      -0.569  -0.841  -1.117  0.00  0.00    +0.007 A 
ATOM      9  C   UNL     1       0.056  -2.071  -1.206  0.00  0.00    +0.033 A 
ATOM     10  C   UNL     1       0.667  -2.622  -0.095  0.00  0.00    +0.128 A 
ATOM     11  C   UNL     1       0.656  -1.944   1.109  0.00  0.00    +0.056 A 
ATOM     12  C   UNL     1       0.034  -0.706   1.201  0.00  0.00    +0.038 A 
BRANCH  10  13
ATOM     13  N   UNL     1       1.334  -3.940  -0.195  0.00  0.00    +0.056 N 
ATOM     14  O   UNL     1       1.344  -4.534  -1.248  0.00  0.00    -0.126 OA
ATOM     15  O   UNL     1       1.868  -4.422   0.776  0.00  0.00    -0.126 OA
ENDBRANCH  10  13
ENDBRANCH   2  12
ENDBRANCH   1   3
BRANCH   1  16
ATOM     16  S   UNL     1      -0.260  -1.133   6.252  0.00  0.00    -0.079 S 
BRANCH  16  17
ATOM     17  C   UNL     1      -0.385  -0.118   7.687  0.00  0.00    +0.182 C 
ATOM     18  N   UNL     1      -0.396   1.194   7.530  0.00  0.00    -0.151 NA
ATOM     19  C   UNL     1      -0.482   2.041   8.555  0.00  0.00    +0.272 C 
ATOM     20  O   UNL     1      -0.493   3.247   8.375  0.00  0.00    -0.268 OA
ATOM     21  C   UNL     1      -0.567   1.467   9.938  0.00  0.00    +0.071 C 
ATOM     22  C   UNL     1      -0.597   2.132  11.104  0.00  0.00    -0.042 C 
ATOM     23  C   UNL     1      -0.377   3.637  11.232  0.00  0.00    +0.033 C 
ATOM     24  C   UNL     1       0.768   3.833  12.233  0.00  0.00    +0.004 C 
ATOM     25  C   UNL     1       0.470   3.086  13.531  0.00  0.00    +0.002 C 
ATOM     26  C   UNL     1       0.391   1.576  13.284  0.00  0.00    +0.019 C 
ATOM     27  C   UNL     1      -0.798   1.294  12.362  0.00  0.00    +0.079 C 
ATOM     28  S   UNL     1      -0.689  -0.413  11.705  0.00  0.00    -0.097 S 
ATOM     29  C   UNL     1      -0.557  -0.011   9.980  0.00  0.00    +0.112 C 
ATOM     30  N   UNL     1      -0.470  -0.711   8.878  0.00  0.00    -0.217 NA
ENDBRANCH  16  17
ENDBRANCH   1  16
TORSDOF 5
