REMARK  Name = ZINC57160127
REMARK  9 active torsions:
REMARK  status: ('A' for Active; 'I' for Inactive)
REMARK    1  A    between atoms: C_1  and  C_2
REMARK    2  A    between atoms: C_2  and  C_29
REMARK    3  A    between atoms: C_3  and  C_4
REMARK    4  A    between atoms: C_6  and  C_11
REMARK    5  A    between atoms: C_8  and  C_9
REMARK    6  A    between atoms: C_8  and  C_10
REMARK    7  A    between atoms: N_13  and  N_14
REMARK    8  A    between atoms: C_15  and  C_17
REMARK    9  A    between atoms: N_26  and  C_28
REMARK                            x       y       z     vdW  Elec       q    Type
REMARK                         _______ _______ _______ _____ _____    ______ ____
ROOT
ATOM      1  N   UNL     1       2.483  -4.181   0.617  0.00  0.00    -0.229 N 
ATOM      2  C   UNL     1       2.749  -5.061   1.603  0.00  0.00    +0.281 C 
ATOM      3  O   UNL     1       3.407  -4.715   2.565  0.00  0.00    -0.267 OA
ATOM      4  H   UNL     1       1.958  -4.456  -0.151  0.00  0.00    +0.173 HD
ENDROOT
BRANCH   2   5
ATOM      5  C   UNL     1       2.241  -6.444   1.513  0.00  0.00    +0.155 A 
ATOM      6  C   UNL     1       2.521  -7.411   2.587  0.00  0.00    +0.020 A 
ATOM      7  C   UNL     1       3.261  -7.086   3.719  0.00  0.00    +0.011 A 
ATOM      8  C   UNL     1       3.482  -8.047   4.683  0.00  0.00    +0.001 A 
ATOM      9  C   UNL     1       2.975  -9.332   4.534  0.00  0.00    +0.001 A 
ATOM     10  C   UNL     1       2.239  -9.675   3.420  0.00  0.00    +0.014 A 
ATOM     11  C   UNL     1       2.005  -8.719   2.437  0.00  0.00    +0.050 A 
ATOM     12  C   UNL     1       1.232  -8.999   1.219  0.00  0.00    +0.275 A 
ATOM     13  O   UNL     1       0.757 -10.102   1.023  0.00  0.00    -0.266 OA
ATOM     14  N   UNL     1       1.061  -8.004   0.324  0.00  0.00    -0.231 N 
ATOM     15  N   UNL     1       1.531  -6.825   0.479  0.00  0.00    -0.163 NA
ATOM     16  C   UNL     1       0.290  -8.289  -0.889  0.00  0.00    +0.176 C 
ENDBRANCH   2   5
BRANCH   1  19
ATOM     17  C   UNL     1       2.699  -1.988  -0.284  0.00  0.00    +0.233 C 
ATOM     18  O   UNL     1       2.042  -2.332  -1.244  0.00  0.00    -0.274 OA
ATOM     19  N   UNL     1       2.964  -2.868   0.702  0.00  0.00    -0.234 N 
ATOM     20  H   UNL     1       3.489  -2.592   1.469  0.00  0.00    +0.173 HD
BRANCH  17  22
ATOM     21  C   UNL     1       2.701   0.294   0.956  0.00  0.00    +0.030 C 
ATOM     22  C   UNL     1       3.216  -0.575  -0.193  0.00  0.00    +0.090 C 
ATOM     23  C   UNL     1       2.229   0.560  -0.475  0.00  0.00    -0.016 C 
ATOM     24  C   UNL     1       2.769   1.808  -1.176  0.00  0.00    +0.012 C 
ATOM     25  C   UNL     1       0.791   0.175  -0.828  0.00  0.00    +0.012 C 
BRANCH  21  28
ATOM     26  C   UNL     1       1.658   1.805   3.096  0.00  0.00    +0.038 C 
ATOM     27  C   UNL     1       1.277   0.356   2.938  0.00  0.00    -0.079 C 
ATOM     28  C   UNL     1       1.714  -0.328   1.910  0.00  0.00    -0.023 C 
ATOM     29  C   UNL     1       0.394  -0.307   3.964  0.00  0.00    +0.038 C 
ENDBRANCH  21  28
ENDBRANCH  17  22
ENDBRANCH   1  19
TORSDOF 4
