REMARK  Name = ZINC39327028
REMARK  11 active torsions:
REMARK  status: ('A' for Active; 'I' for Inactive)
REMARK    1  A    between atoms: C_1  and  C_2
REMARK    2  A    between atoms: C_3  and  C_35
REMARK    3  A    between atoms: C_4  and  C_25
REMARK    4  A    between atoms: C_7  and  N_24
REMARK    5  A    between atoms: C_8  and  C_12
REMARK    6  A    between atoms: C_12  and  C_14
REMARK    7  A    between atoms: C_28  and  C_31
REMARK    8  A    between atoms: C_31  and  O_33
REMARK    9  A    between atoms: O_33  and  C_34
REMARK   10  A    between atoms: C_35  and  O_37
REMARK   11  A    between atoms: O_37  and  C_38
REMARK                            x       y       z     vdW  Elec       q    Type
REMARK                         _______ _______ _______ _____ _____    ______ ____
ROOT
ATOM      1  C   UNL     1      -0.018   1.503   0.010  0.00  0.00    +0.061 C 
ATOM      2  C   UNL     1       0.002  -0.004   0.002  0.00  0.00    +0.016 C 
ATOM      3  C   UNL     1      -1.160  -0.670   0.004  0.00  0.00    +0.065 C 
ATOM      4  C   UNL     1      -1.290  -2.164   0.015  0.00  0.00    +0.091 C 
ATOM      5  C   UNL     1       0.060  -2.798  -0.297  0.00  0.00    +0.014 A 
ATOM      6  C   UNL     1       0.247  -4.131  -0.602  0.00  0.00    +0.048 A 
ATOM      7  C   UNL     1       1.543  -4.594  -0.868  0.00  0.00    +0.078 A 
ATOM      8  S   UNL     1       2.516  -3.107  -0.681  0.00  0.00    -0.068 S 
ATOM      9  C   UNL     1       1.198  -1.999  -0.280  0.00  0.00    +0.076 A 
ATOM     10  N   UNL     1       1.213  -0.655  -0.013  0.00  0.00    -0.312 N 
ATOM     11  H   UNL     1       2.043  -0.184   0.161  0.00  0.00    +0.152 HD
ENDROOT
BRANCH   4  12
ATOM     12  C   UNL     1      -1.753  -2.617   1.376  0.00  0.00    -0.035 A 
ATOM     13  C   UNL     1      -0.989  -2.333   2.494  0.00  0.00    +0.005 A 
ATOM     14  C   UNL     1      -1.407  -2.744   3.742  0.00  0.00    +0.015 A 
ATOM     15  C   UNL     1      -2.604  -3.450   3.877  0.00  0.00    +0.059 A 
ATOM     16  C   UNL     1      -3.371  -3.733   2.744  0.00  0.00    +0.015 A 
ATOM     17  C   UNL     1      -2.944  -3.311   1.503  0.00  0.00    +0.005 A 
BRANCH  15  18
ATOM     18  C   UNL     1      -3.058  -3.894   5.210  0.00  0.00    +0.339 C 
ATOM     19  O   UNL     1      -2.389  -3.646   6.193  0.00  0.00    -0.245 OA
BRANCH  18  20
ATOM     20  O   UNL     1      -4.214  -4.574   5.337  0.00  0.00    -0.464 OA
ATOM     21  C   UNL     1      -4.591  -4.973   6.656  0.00  0.00    +0.280 C 
ENDBRANCH  18  20
ENDBRANCH  15  18
ENDBRANCH   4  12
BRANCH   6  22
ATOM     22  N   UNL     1      -0.835  -5.002  -0.644  0.00  0.00    -0.357 N 
ATOM     23  H   UNL     1      -1.728  -4.675  -0.459  0.00  0.00    +0.142 HD
ATOM     24  H   UNL     1      -0.696  -5.938  -0.859  0.00  0.00    +0.142 HD
ENDBRANCH   6  22
BRANCH   7  25
ATOM     25  C   UNL     1       1.964  -5.885  -1.194  0.00  0.00    +0.178 C 
ATOM     26  O   UNL     1       1.153  -6.788  -1.278  0.00  0.00    -0.291 OA
BRANCH  25  27
ATOM     27  C   UNL     1       3.425  -6.160  -1.442  0.00  0.00    +0.035 C 
ATOM     28  C   UNL     1       3.914  -5.305  -2.613  0.00  0.00    +0.018 C 
ATOM     29  C   UNL     1       5.397  -5.585  -2.865  0.00  0.00    -0.010 C 
ATOM     30  C   UNL     1       5.587  -7.065  -3.200  0.00  0.00    +0.007 C 
ATOM     31  C   UNL     1       5.098  -7.920  -2.030  0.00  0.00    -0.010 C 
ATOM     32  C   UNL     1       3.615  -7.641  -1.778  0.00  0.00    +0.018 C 
ATOM     33  C   UNL     1       5.903  -7.575  -0.775  0.00  0.00    +0.007 C 
ATOM     34  C   UNL     1       5.713  -6.094  -0.439  0.00  0.00    -0.010 C 
ATOM     35  C   UNL     1       6.201  -5.239  -1.610  0.00  0.00    +0.007 C 
ATOM     36  C   UNL     1       4.230  -5.815  -0.187  0.00  0.00    +0.018 C 
ENDBRANCH  25  27
ENDBRANCH   7  25
BRANCH   3  37
ATOM     37  C   UNL     1      -2.350   0.091  -0.005  0.00  0.00    +0.337 C 
ATOM     38  O   UNL     1      -2.296   1.306  -0.014  0.00  0.00    -0.245 OA
BRANCH  37  39
ATOM     39  O   UNL     1      -3.549  -0.531  -0.003  0.00  0.00    -0.465 OA
ATOM     40  C   UNL     1      -4.711   0.301  -0.013  0.00  0.00    +0.280 C 
ENDBRANCH  37  39
ENDBRANCH   3  37
TORSDOF 8
