REMARK  Name = ZINC01502420
REMARK  5 active torsions:
REMARK  status: ('A' for Active; 'I' for Inactive)
REMARK    1  A    between atoms: C_1  and  C_2
REMARK    2  A    between atoms: C_5  and  S_8
REMARK    3  A    between atoms: S_8  and  N_11
REMARK    4  A    between atoms: N_11  and  C_12
REMARK    5  A    between atoms: C_19  and  C_22
REMARK                            x       y       z     vdW  Elec       q    Type
REMARK                         _______ _______ _______ _____ _____    ______ ____
ROOT
ATOM      1  N   UNL     1       3.590   2.144  -0.020  0.00  0.00    -0.216 N 
ATOM      2  H   UNL     1       3.713   2.898   0.577  0.00  0.00    +0.174 HD
ENDROOT
BRANCH   1   3
ATOM      3  C   UNL     1       2.384   1.434  -0.012  0.00  0.00    +0.049 A 
ATOM      4  C   UNL     1       2.399   0.040  -0.020  0.00  0.00    +0.026 A 
ATOM      5  C   UNL     1       1.221  -0.674  -0.013  0.00  0.00    +0.028 A 
ATOM      6  C   UNL     1       0.002  -0.004   0.002  0.00  0.00    +0.047 A 
ATOM      7  C   UNL     1      -0.017   1.402   0.010  0.00  0.00    +0.002 A 
ATOM      8  C   UNL     1       1.183   2.117   0.002  0.00  0.00    +0.034 A 
ATOM      9  C   UNL     1      -1.430   1.788   0.031  0.00  0.00    +0.030 A 
ATOM     10  C   UNL     1      -2.148   0.654   0.026  0.00  0.00    +0.014 A 
ATOM     11  N   UNL     1      -1.311  -0.428   0.012  0.00  0.00    -0.358 N 
ATOM     12  H   UNL     1      -1.597  -1.355   0.010  0.00  0.00    +0.166 HD
ATOM     13  C   UNL     1      -3.653   0.583   0.040  0.00  0.00    +0.063 C 
ENDBRANCH   1   3
BRANCH   1  14
ATOM     14  S   UNL     1       4.809   1.695  -1.048  0.00  0.00    +0.072 S 
ATOM     15  O   UNL     1       5.874   2.612  -0.840  0.00  0.00    -0.150 OA
ATOM     16  O   UNL     1       4.971   0.292  -0.897  0.00  0.00    -0.150 OA
BRANCH  14  21
ATOM     17  C   UNL     1       2.823   2.607  -6.672  0.00  0.00    +0.044 C 
ATOM     18  C   UNL     1       3.319   2.379  -5.268  0.00  0.00    -0.050 A 
ATOM     19  C   UNL     1       3.980   3.391  -4.596  0.00  0.00    +0.005 A 
ATOM     20  C   UNL     1       4.435   3.182  -3.307  0.00  0.00    +0.029 A 
ATOM     21  C   UNL     1       4.229   1.962  -2.691  0.00  0.00    +0.109 A 
ATOM     22  C   UNL     1       3.572   0.949  -3.365  0.00  0.00    +0.029 A 
ATOM     23  C   UNL     1       3.113   1.159  -4.651  0.00  0.00    +0.005 A 
ENDBRANCH  14  21
ENDBRANCH   1  14
TORSDOF 3
