REMARK  Name = ZINC40144960
REMARK  8 active torsions:
REMARK  status: ('A' for Active; 'I' for Inactive)
REMARK    1  A    between atoms: C_4  and  C_7
REMARK    2  A    between atoms: C_8  and  C_18
REMARK    3  A    between atoms: N_10  and  C_12
REMARK    4  A    between atoms: C_18  and  C_20
REMARK    5  A    between atoms: C_18  and  N_33
REMARK    6  A    between atoms: C_20  and  C_22
REMARK    7  A    between atoms: C_20  and  C_24
REMARK    8  A    between atoms: C_34  and  N_35
REMARK                            x       y       z     vdW  Elec       q    Type
REMARK                         _______ _______ _______ _____ _____    ______ ____
ROOT
ATOM      1  C   UNL     1       3.175  -2.846   1.491  0.00  0.00    +0.164 C 
ENDROOT
BRANCH   1   2
ATOM      2  N   UNL     1       3.910  -3.519   2.565  0.00  0.00    -0.261 N 
ATOM      3  C   UNL     1       3.700  -3.357   3.910  0.00  0.00    +0.117 A 
ATOM      4  C   UNL     1       4.585  -4.156   4.575  0.00  0.00    +0.114 A 
ATOM      5  C   UNL     1       5.363  -4.830   3.622  0.00  0.00    +0.266 A 
ATOM      6  O   UNL     1       6.255  -5.626   3.858  0.00  0.00    -0.266 OA
ATOM      7  N   UNL     1       4.947  -4.446   2.398  0.00  0.00    -0.261 N 
ATOM      8  H   UNL     1       5.305  -4.755   1.552  0.00  0.00    +0.190 HD
BRANCH   3   9
ATOM      9  N   UNL     1       2.764  -2.537   4.487  0.00  0.00    -0.343 N 
ATOM     10  H   UNL     1       2.176  -2.005   3.928  0.00  0.00    +0.144 HD
ATOM     11  H   UNL     1       2.690  -2.489   5.452  0.00  0.00    +0.144 HD
ENDBRANCH   3   9
ENDBRANCH   1   2
BRANCH   1  13
ATOM     12  C   UNL     1       4.719  -0.812   1.010  0.00  0.00    +0.098 A 
ATOM     13  C   UNL     1       4.135  -2.043   0.652  0.00  0.00    +0.024 A 
ATOM     14  C   UNL     1       4.588  -2.375  -0.576  0.00  0.00    +0.121 A 
ATOM     15  N   UNL     1       5.432  -1.393  -0.989  0.00  0.00    -0.239 N 
ATOM     16  N   UNL     1       5.493  -0.423   0.019  0.00  0.00    -0.166 NA
BRANCH  12  20
ATOM     17  C   UNL     1       4.080   1.290   4.651  0.00  0.00    +0.000 A 
ATOM     18  C   UNL     1       5.359   1.173   4.139  0.00  0.00    +0.001 A 
ATOM     19  C   UNL     1       5.573   0.492   2.958  0.00  0.00    +0.010 A 
ATOM     20  C   UNL     1       4.496  -0.079   2.281  0.00  0.00    +0.002 A 
ATOM     21  C   UNL     1       3.209   0.043   2.802  0.00  0.00    +0.010 A 
ATOM     22  C   UNL     1       3.008   0.726   3.984  0.00  0.00    +0.001 A 
ENDBRANCH  12  20
BRANCH  15  23
ATOM     23  C   UNL     1       6.116  -1.356  -2.211  0.00  0.00    +0.065 A 
ATOM     24  C   UNL     1       5.955  -2.384  -3.131  0.00  0.00    +0.028 A 
ATOM     25  C   UNL     1       6.631  -2.344  -4.335  0.00  0.00    +0.002 A 
ATOM     26  C   UNL     1       7.467  -1.281  -4.625  0.00  0.00    +0.000 A 
ATOM     27  C   UNL     1       7.629  -0.256  -3.711  0.00  0.00    +0.002 A 
ATOM     28  C   UNL     1       6.951  -0.287  -2.508  0.00  0.00    +0.028 A 
ENDBRANCH  15  23
ENDBRANCH   1  13
BRANCH   1  29
ATOM     29  C   UNL     1       2.483  -3.892   0.614  0.00  0.00    +0.176 C 
BRANCH  29  30
ATOM     30  C   UNL     1       1.430  -4.606   1.420  0.00  0.00    +0.099 A 
ATOM     31  N   UNL     1       1.593  -5.300   2.508  0.00  0.00    -0.243 NA
ATOM     32  C   UNL     1       0.561  -5.896   3.142  0.00  0.00    +0.079 A 
ATOM     33  C   UNL     1       0.550  -6.677   4.317  0.00  0.00    +0.029 A 
ATOM     34  C   UNL     1      -0.616  -7.193   4.794  0.00  0.00    +0.002 A 
ATOM     35  C   UNL     1      -1.826  -6.972   4.151  0.00  0.00    +0.001 A 
ATOM     36  C   UNL     1      -1.855  -6.211   2.997  0.00  0.00    +0.017 A 
ATOM     37  C   UNL     1      -0.684  -5.686   2.507  0.00  0.00    +0.039 A 
ATOM     38  S   UNL     1      -0.225  -4.681   1.120  0.00  0.00    -0.071 S 
ENDBRANCH  29  30
BRANCH  29  39
ATOM     39  C   UNL     1       3.478  -4.865   0.134  0.00  0.00    +0.075 C 
ATOM     40  N   UNL     1       4.245  -5.616  -0.237  0.00  0.00    -0.196 NA
ENDBRANCH  29  39
ENDBRANCH   1  29
TORSDOF 8
