REMARK  Name = ZINC59294007
REMARK  7 active torsions:
REMARK  status: ('A' for Active; 'I' for Inactive)
REMARK    1  A    between atoms: C_1  and  C_2
REMARK    2  A    between atoms: C_2  and  C_34
REMARK    3  A    between atoms: C_6  and  C_22
REMARK    4  A    between atoms: C_8  and  C_20
REMARK    5  A    between atoms: C_9  and  N_19
REMARK    6  A    between atoms: N_10  and  C_11
REMARK    7  A    between atoms: C_25  and  N_28
REMARK                            x       y       z     vdW  Elec       q    Type
REMARK                         _______ _______ _______ _____ _____    ______ ____
ROOT
ATOM      1  C   UNL     1      -0.019   1.526   0.010  0.00  0.00    +0.011 C 
ATOM      2  C   UNL     1       0.002  -0.004   0.002  0.00  0.00    -0.023 C 
ATOM      3  C   UNL     1       0.740  -0.501  -1.243  0.00  0.00    +0.058 C 
ATOM      4  C   UNL     1       2.167  -0.012  -1.216  0.00  0.00    +0.025 C 
ATOM      5  C   UNL     1       2.814   0.180  -0.046  0.00  0.00    +0.025 C 
ATOM      6  C   UNL     1       4.244   0.656  -0.021  0.00  0.00    +0.097 C 
ATOM      7  C   UNL     1       4.633   1.271  -1.333  0.00  0.00    +0.077 C 
ATOM      8  C   UNL     1       3.909   1.041  -2.458  0.00  0.00    +0.107 C 
ATOM      9  N   UNL     1       2.792   0.238  -2.408  0.00  0.00    -0.256 N 
ATOM     10  C   UNL     1       2.173  -0.055   1.183  0.00  0.00    +0.162 C 
ATOM     11  O   UNL     1       2.787   0.117   2.218  0.00  0.00    -0.292 OA
ATOM     12  C   UNL     1       0.743  -0.516   1.242  0.00  0.00    +0.086 C 
ATOM     13  C   UNL     1      -1.432  -0.538   0.003  0.00  0.00    +0.011 C 
ENDROOT
BRANCH   9  14
ATOM     14  C   UNL     1       2.292  -0.330  -3.587  0.00  0.00    +0.093 A 
ATOM     15  C   UNL     1       2.739  -1.578  -4.005  0.00  0.00    +0.146 A 
ATOM     16  C   UNL     1       2.242  -2.135  -5.169  0.00  0.00    +0.040 A 
ATOM     17  C   UNL     1       1.301  -1.451  -5.918  0.00  0.00    +0.004 A 
ATOM     18  C   UNL     1       0.855  -0.209  -5.505  0.00  0.00    +0.022 A 
ATOM     19  C   UNL     1       1.342   0.351  -4.339  0.00  0.00    +0.065 A 
ATOM     20 CL   UNL     1       0.775   1.907  -3.819  0.00  0.00    -0.082 Cl
ATOM     21  F   UNL     1       3.659  -2.246  -3.275  0.00  0.00    -0.203 F 
ENDBRANCH   9  14
BRANCH   6  22
ATOM     22  C   UNL     1       5.150  -0.514   0.264  0.00  0.00    -0.035 A 
ATOM     23  C   UNL     1       5.173  -1.595  -0.598  0.00  0.00    +0.007 A 
ATOM     24  C   UNL     1       6.003  -2.669  -0.337  0.00  0.00    +0.033 A 
ATOM     25  C   UNL     1       6.811  -2.661   0.784  0.00  0.00    +0.126 A 
ATOM     26  C   UNL     1       6.789  -1.580   1.645  0.00  0.00    +0.033 A 
ATOM     27  C   UNL     1       5.962  -0.504   1.382  0.00  0.00    +0.007 A 
BRANCH  25  28
ATOM     28  N   UNL     1       7.700  -3.811   1.064  0.00  0.00    +0.056 N 
ATOM     29  O   UNL     1       7.720  -4.757   0.311  0.00  0.00    -0.126 OA
ATOM     30  O   UNL     1       8.407  -3.805   2.045  0.00  0.00    -0.126 OA
ENDBRANCH  25  28
ENDBRANCH   6  22
BRANCH   8  31
ATOM     31  N   UNL     1       4.292   1.610  -3.649  0.00  0.00    -0.345 N 
ATOM     32  H   UNL     1       5.079   2.176  -3.685  0.00  0.00    +0.144 HD
ATOM     33  H   UNL     1       3.775   1.446  -4.453  0.00  0.00    +0.144 HD
ENDBRANCH   8  31
BRANCH   7  34
ATOM     34  C   UNL     1       5.788   2.116  -1.399  0.00  0.00    +0.099 C 
ATOM     35  N   UNL     1       6.704   2.785  -1.452  0.00  0.00    -0.191 NA
ENDBRANCH   7  34
TORSDOF 5
