REMARK  Name = ZINC12412363
REMARK  8 active torsions:
REMARK  status: ('A' for Active; 'I' for Inactive)
REMARK    1  A    between atoms: C_1  and  C_2
REMARK    2  A    between atoms: C_2  and  O_3
REMARK    3  A    between atoms: O_3  and  C_4
REMARK    4  A    between atoms: C_8  and  N_10
REMARK    5  A    between atoms: C_11  and  C_13
REMARK    6  A    between atoms: N_18  and  N_22
REMARK    7  A    between atoms: C_23  and  C_24
REMARK    8  A    between atoms: C_23  and  C_25
REMARK                            x       y       z     vdW  Elec       q    Type
REMARK                         _______ _______ _______ _____ _____    ______ ____
ROOT
ATOM      1  C   UNL     1      -5.788  -6.210  -0.249  0.00  0.00    +0.149 C 
ATOM      2  C   UNL     1      -5.836  -7.537   0.509  0.00  0.00    +0.122 C 
ATOM      3  C   UNL     1      -7.099  -8.289   0.264  0.00  0.00    +0.243 C 
ATOM      4  O   UNL     1      -7.455  -9.024   1.160  0.00  0.00    -0.273 OA
ATOM      5  N   UNL     1      -7.884  -8.260  -0.802  0.00  0.00    -0.137 N 
ATOM      6  C   UNL     1      -7.724  -7.382  -1.864  0.00  0.00    +0.177 C 
ATOM      7  N   UNL     1      -8.680  -7.179  -2.726  0.00  0.00    -0.278 NA
ATOM      8  S   UNL     1      -6.167  -6.548  -2.000  0.00  0.00    -0.076 S 
ATOM      9  H   UNL     1      -8.574  -6.508  -3.418  0.00  0.00    +0.189 HD
ENDROOT
BRANCH   1  11
ATOM     10  N   UNL     1      -4.268  -4.266  -0.071  0.00  0.00    -0.284 N 
ATOM     11  C   UNL     1      -4.413  -5.605  -0.133  0.00  0.00    +0.231 C 
ATOM     12  O   UNL     1      -3.436  -6.323  -0.095  0.00  0.00    -0.274 OA
ATOM     13  H   UNL     1      -5.051  -3.696  -0.025  0.00  0.00    +0.155 HD
BRANCH  10  18
ATOM     14  C   UNL     1      -1.478  -1.971   0.627  0.00  0.00    +0.122 A 
ATOM     15  C   UNL     1      -0.453  -2.585  -0.079  0.00  0.00    +0.046 A 
ATOM     16  C   UNL     1      -0.695  -3.751  -0.778  0.00  0.00    +0.005 A 
ATOM     17  C   UNL     1      -1.959  -4.310  -0.777  0.00  0.00    +0.023 A 
ATOM     18  C   UNL     1      -2.988  -3.700  -0.072  0.00  0.00    +0.037 A 
ATOM     19  C   UNL     1      -2.745  -2.531   0.635  0.00  0.00    +0.069 A 
BRANCH  14  20
ATOM     20  O   UNL     1      -1.237  -0.823   1.314  0.00  0.00    -0.492 OA
BRANCH  20  22
ATOM     21  C   UNL     1       0.169   0.983   2.089  0.00  0.00    +0.048 C 
ATOM     22  C   UNL     1       0.092  -0.302   1.262  0.00  0.00    +0.225 C 
ENDBRANCH  20  22
ENDBRANCH  14  20
ENDBRANCH  10  18
ENDBRANCH   1  11
BRANCH   5  23
ATOM     23  N   UNL     1      -8.944  -9.174  -0.860  0.00  0.00    -0.175 NA
ATOM     24  C   UNL     1      -8.936 -10.124  -1.750  0.00  0.00    +0.071 C 
ATOM     25  C   UNL     1      -7.728 -10.322  -2.629  0.00  0.00    +0.068 C 
BRANCH  24  26
ATOM     26  C   UNL     1     -10.101 -11.001  -1.897  0.00  0.00    +0.036 A 
ATOM     27  C   UNL     1     -11.299 -10.985  -1.202  0.00  0.00    +0.018 A 
ATOM     28  C   UNL     1     -12.253 -11.920  -1.523  0.00  0.00    +0.023 A 
ATOM     29  C   UNL     1     -11.994 -12.825  -2.505  0.00  0.00    +0.055 A 
ATOM     30  S   UNL     1     -10.350 -12.363  -3.024  0.00  0.00    -0.080 S 
ATOM     31 BR   UNL     1     -13.098 -14.213  -3.160  0.00  0.00    -0.043 Br
ENDBRANCH  24  26
ENDBRANCH   5  23
TORSDOF 6
