REMARK  Name = ZINC21367025
REMARK  7 active torsions:
REMARK  status: ('A' for Active; 'I' for Inactive)
REMARK    1  A    between atoms: C_1  and  C_2
REMARK    2  A    between atoms: C_2  and  C_4
REMARK    3  A    between atoms: C_2  and  N_10
REMARK    4  A    between atoms: N_10  and  C_11
REMARK    5  A    between atoms: C_11  and  C_13
REMARK    6  A    between atoms: C_11  and  C_20
REMARK    7  A    between atoms: C_23  and  C_25
REMARK                            x       y       z     vdW  Elec       q    Type
REMARK                         _______ _______ _______ _____ _____    ______ ____
ROOT
ATOM      1  C   UNL     1       2.490   1.047  -0.016  0.00  0.00    +0.049 C 
ENDROOT
BRANCH   1   2
ATOM      2  C   UNL     1       1.175   1.783   0.000  0.00  0.00    -0.052 A 
ATOM      3  C   UNL     1      -0.013   1.076   0.008  0.00  0.00    +0.003 A 
ATOM      4  C   UNL     1      -1.219   1.750   0.017  0.00  0.00    +0.015 A 
ATOM      5  C   UNL     1      -1.238   3.134   0.029  0.00  0.00    +0.018 A 
ATOM      6  C   UNL     1      -0.049   3.841   0.021  0.00  0.00    +0.015 A 
ATOM      7  C   UNL     1       1.157   3.165   0.007  0.00  0.00    +0.003 A 
ATOM      8 BR   UNL     1      -2.888   4.057   0.049  0.00  0.00    -0.050 Br
ENDBRANCH   1   2
BRANCH   1   9
ATOM      9  C   UNL     1       3.036   1.024  -1.420  0.00  0.00    +0.208 A 
ATOM     10  N   UNL     1       3.588   2.025  -2.048  0.00  0.00    -0.113 NA
ATOM     11  N   UNL     1       3.939   1.651  -3.228  0.00  0.00    -0.107 NA
ATOM     12  C   UNL     1       3.619   0.389  -3.395  0.00  0.00    +0.248 A 
ATOM     13  O   UNL     1       3.046  -0.033  -2.250  0.00  0.00    -0.422 OA
BRANCH  12  14
ATOM     14  C   UNL     1       3.850  -0.420  -4.611  0.00  0.00    +0.038 A 
ATOM     15  C   UNL     1       3.461  -1.760  -4.644  0.00  0.00    +0.013 A 
ATOM     16  C   UNL     1       3.675  -2.509  -5.784  0.00  0.00    +0.001 A 
ATOM     17  C   UNL     1       4.283  -1.937  -6.887  0.00  0.00    +0.000 A 
ATOM     18  C   UNL     1       4.676  -0.611  -6.858  0.00  0.00    +0.001 A 
ATOM     19  C   UNL     1       4.463   0.150  -5.727  0.00  0.00    +0.013 A 
ENDBRANCH  12  14
ENDBRANCH   1   9
BRANCH   1  20
ATOM     20  N   UNL     1       3.444   1.729   0.869  0.00  0.00    +0.394 N 
ATOM     21  H   UNL     1       3.268   2.813   0.809  0.00  0.00    -0.083 HD
ATOM     22  H   UNL     1       4.465   1.504   0.528  0.00  0.00    -0.083 HD
BRANCH  20  24
ATOM     23  C   UNL     1       4.093   0.004   2.482  0.00  0.00    -0.009 C 
ATOM     24  C   UNL     1       3.283   1.284   2.260  0.00  0.00    -0.043 C 
BRANCH  24  25
ATOM     25  C   UNL     1       3.778   2.359   3.192  0.00  0.00    -0.062 A 
ATOM     26  C   UNL     1       4.925   3.067   2.885  0.00  0.00    +0.002 A 
ATOM     27  C   UNL     1       5.376   4.056   3.738  0.00  0.00    +0.000 A 
ATOM     28  C   UNL     1       4.685   4.333   4.903  0.00  0.00    +0.000 A 
ATOM     29  C   UNL     1       3.541   3.622   5.213  0.00  0.00    +0.000 A 
ATOM     30  C   UNL     1       3.087   2.635   4.358  0.00  0.00    +0.002 A 
ENDBRANCH  24  25
ENDBRANCH  20  24
ENDBRANCH   1  20
TORSDOF 6
