REMARK  Name = ZINC08813545
REMARK  14 active torsions:
REMARK  status: ('A' for Active; 'I' for Inactive)
REMARK    1  A    between atoms: C_1  and  C_2
REMARK    2  A    between atoms: C_2  and  C_3
REMARK    3  A    between atoms: C_2  and  N_4
REMARK    4  A    between atoms: N_4  and  C_5
REMARK    5  A    between atoms: N_4  and  C_28
REMARK    6  A    between atoms: C_5  and  C_6
REMARK    7  A    between atoms: C_6  and  C_7
REMARK    8  A    between atoms: C_7  and  N_8
REMARK    9  A    between atoms: C_9  and  C_11
REMARK   10  A    between atoms: C_14  and  C_17
REMARK   11  A    between atoms: C_17  and  N_18
REMARK   12  A    between atoms: N_18  and  S_19
REMARK   13  A    between atoms: S_19  and  C_22
REMARK   14  A    between atoms: C_28  and  C_29
REMARK                            x       y       z     vdW  Elec       q    Type
REMARK                         _______ _______ _______ _____ _____    ______ ____
ROOT
ATOM      1  N   UNL     1      -0.863  -4.813   3.536  0.00  0.00    -0.315 N 
ATOM      2  C   UNL     1      -0.800  -6.153   3.666  0.00  0.00    +0.216 C 
ATOM      3  O   UNL     1      -1.151  -6.868   2.751  0.00  0.00    -0.276 OA
ATOM      4  H   UNL     1      -0.582  -4.241   4.268  0.00  0.00    +0.149 HD
ENDROOT
BRANCH   2   5
ATOM      5  C   UNL     1      -0.295  -6.763   4.947  0.00  0.00    +0.075 C 
ATOM      6  C   UNL     1       1.141  -6.300   5.201  0.00  0.00    +0.013 C 
ATOM      7  C   UNL     1       2.033  -6.742   4.040  0.00  0.00    +0.005 C 
ATOM      8  C   UNL     1       2.002  -8.268   3.925  0.00  0.00    +0.005 C 
ATOM      9  C   UNL     1       0.566  -8.731   3.671  0.00  0.00    +0.005 C 
ATOM     10  C   UNL     1      -0.326  -8.289   4.833  0.00  0.00    +0.013 C 
BRANCH   8  11
ATOM     11  C   UNL     1       2.894  -8.710   2.764  0.00  0.00    +0.109 C 
BRANCH  11  12
ATOM     12  N   UNL     1       2.959 -10.174   2.728  0.00  0.00    -0.190 NA
ATOM     13  H   UNL     1       2.665 -10.691   3.494  0.00  0.00    +0.148 HD
BRANCH  12  14
ATOM     14  S   UNL     1       3.535 -10.944   1.380  0.00  0.00    +0.058 S 
ATOM     15  O   UNL     1       3.498 -12.337   1.662  0.00  0.00    -0.153 OA
ATOM     16  O   UNL     1       2.860 -10.374   0.267  0.00  0.00    -0.153 OA
BRANCH  14  17
ATOM     17  C   UNL     1       5.234 -10.508   1.217  0.00  0.00    +0.105 A 
ATOM     18  C   UNL     1       5.594  -9.391   0.487  0.00  0.00    +0.028 A 
ATOM     19  C   UNL     1       6.927  -9.049   0.358  0.00  0.00    +0.002 A 
ATOM     20  C   UNL     1       7.901  -9.824   0.960  0.00  0.00    +0.000 A 
ATOM     21  C   UNL     1       7.541 -10.941   1.691  0.00  0.00    +0.002 A 
ATOM     22  C   UNL     1       6.207 -11.281   1.823  0.00  0.00    +0.028 A 
ENDBRANCH  14  17
ENDBRANCH  12  14
ENDBRANCH  11  12
ENDBRANCH   8  11
ENDBRANCH   2   5
BRANCH   1  23
ATOM     23  C   UNL     1      -1.354  -4.220   2.290  0.00  0.00    +0.102 C 
BRANCH  23  24
ATOM     24  C   UNL     1      -1.323  -2.695   2.404  0.00  0.00    +0.000 C 
BRANCH  24  25
ATOM     25  C   UNL     1      -1.836  -2.075   1.102  0.00  0.00    -0.076 C 
BRANCH  25  26
ATOM     26  N   UNL     1      -1.832  -0.611   1.222  0.00  0.00    +0.384 N 
ATOM     27  H   UNL     1      -2.365  -0.339   2.034  0.00  0.00    -0.081 HD
BRANCH  26  29
ATOM     28  C   UNL     1       0.296  -0.343   0.041  0.00  0.00    -0.014 C 
ATOM     29  C   UNL     1      -0.450  -0.135   1.361  0.00  0.00    -0.074 C 
ATOM     30  C   UNL     1      -0.456   1.354   1.714  0.00  0.00    -0.014 C 
ENDBRANCH  26  29
BRANCH  26  31
ATOM     31  C   UNL     1      -2.435  -0.020   0.020  0.00  0.00    -0.043 C 
BRANCH  31  32
ATOM     32  C   UNL     1      -2.627   1.460   0.230  0.00  0.00    -0.064 A 
ATOM     33  C   UNL     1      -3.320   1.918   1.334  0.00  0.00    +0.002 A 
ATOM     34  C   UNL     1      -3.496   3.275   1.527  0.00  0.00    +0.000 A 
ATOM     35  C   UNL     1      -2.977   4.175   0.615  0.00  0.00    +0.000 A 
ATOM     36  C   UNL     1      -2.282   3.718  -0.489  0.00  0.00    +0.000 A 
ATOM     37  C   UNL     1      -2.103   2.360  -0.679  0.00  0.00    +0.002 A 
ENDBRANCH  31  32
ENDBRANCH  26  31
ENDBRANCH  25  26
ENDBRANCH  24  25
ENDBRANCH  23  24
ENDBRANCH   1  23
TORSDOF 12
