REMARK  Name = ZINC03628233
REMARK  11 active torsions:
REMARK  status: ('A' for Active; 'I' for Inactive)
REMARK    1  A    between atoms: N_7  and  C_15
REMARK    2  A    between atoms: C_15  and  C_16
REMARK    3  A    between atoms: C_16  and  C_18
REMARK    4  A    between atoms: C_16  and  O_26
REMARK    5  A    between atoms: C_18  and  N_19
REMARK    6  A    between atoms: N_19  and  C_20
REMARK    7  A    between atoms: N_19  and  C_23
REMARK    8  A    between atoms: C_20  and  C_21
REMARK    9  A    between atoms: C_21  and  O_22
REMARK   10  A    between atoms: C_23  and  C_24
REMARK   11  A    between atoms: C_24  and  O_25
REMARK                            x       y       z     vdW  Elec       q    Type
REMARK                         _______ _______ _______ _____ _____    ______ ____
ROOT
ATOM      1  C   UNL     1       0.184  -3.011  -0.727  0.00  0.00    +0.140 C 
ENDROOT
BRANCH   1   8
ATOM      2  C   UNL     1      -0.196   1.104   0.347  0.00  0.00    +0.002 A 
ATOM      3  C   UNL     1       0.968   1.843   0.444  0.00  0.00    +0.001 A 
ATOM      4  C   UNL     1       2.198   1.206   0.437  0.00  0.00    +0.017 A 
ATOM      5  C   UNL     1       2.255  -0.171   0.335  0.00  0.00    +0.034 A 
ATOM      6  C   UNL     1       1.082  -0.923   0.238  0.00  0.00    +0.048 A 
ATOM      7  C   UNL     1      -0.144  -0.275   0.245  0.00  0.00    +0.024 A 
ATOM      8  N   UNL     1       1.142  -2.318   0.138  0.00  0.00    -0.296 N 
ATOM      9  C   UNL     1       2.090  -3.069   0.842  0.00  0.00    +0.048 A 
ATOM     10  C   UNL     1       1.748  -4.301   1.377  0.00  0.00    +0.024 A 
ATOM     11  C   UNL     1       2.690  -5.038   2.072  0.00  0.00    +0.002 A 
ATOM     12  C   UNL     1       3.974  -4.554   2.239  0.00  0.00    +0.001 A 
ATOM     13  C   UNL     1       4.326  -3.324   1.708  0.00  0.00    +0.017 A 
ATOM     14  C   UNL     1       3.389  -2.584   1.013  0.00  0.00    +0.034 A 
ATOM     15  S   UNL     1       3.807  -1.013   0.325  0.00  0.00    -0.086 S 
ENDBRANCH   1   8
BRANCH   1  16
ATOM     16  C   UNL     1       0.767  -3.133  -2.137  0.00  0.00    +0.116 C 
BRANCH  16  17
ATOM     17  O   UNL     1       1.923  -3.973  -2.103  0.00  0.00    -0.392 OA
ATOM     18  H   UNL     1       1.748  -4.870  -1.788  0.00  0.00    +0.210 HD
ENDBRANCH  16  17
BRANCH  16  19
ATOM     19  C   UNL     1      -0.281  -3.744  -3.070  0.00  0.00    -0.045 C 
BRANCH  19  20
ATOM     20  N   UNL     1       0.205  -3.686  -4.455  0.00  0.00    +0.384 N 
ATOM     21  H   UNL     1       0.481  -2.741  -4.675  0.00  0.00    -0.082 HD
BRANCH  20  22
ATOM     22  C   UNL     1       1.359  -4.582  -4.608  0.00  0.00    -0.050 C 
BRANCH  22  23
ATOM     23  C   UNL     1       1.908  -4.467  -6.032  0.00  0.00    +0.137 C 
BRANCH  23  24
ATOM     24  O   UNL     1       2.422  -3.150  -6.239  0.00  0.00    -0.397 OA
ATOM     25  H   UNL     1       2.788  -3.005  -7.122  0.00  0.00    +0.209 HD
ENDBRANCH  23  24
ENDBRANCH  22  23
ENDBRANCH  20  22
BRANCH  20  26
ATOM     26  C   UNL     1      -0.867  -4.107  -5.367  0.00  0.00    -0.050 C 
BRANCH  26  27
ATOM     27  C   UNL     1      -2.011  -3.093  -5.313  0.00  0.00    +0.137 C 
BRANCH  27  28
ATOM     28  O   UNL     1      -1.557  -1.835  -5.817  0.00  0.00    -0.397 OA
ATOM     29  H   UNL     1      -2.232  -1.142  -5.812  0.00  0.00    +0.209 HD
ENDBRANCH  27  28
ENDBRANCH  26  27
ENDBRANCH  20  26
ENDBRANCH  19  20
ENDBRANCH  16  19
ENDBRANCH   1  16
TORSDOF 11
