REMARK  Name = ZINC67340741
REMARK  8 active torsions:
REMARK  status: ('A' for Active; 'I' for Inactive)
REMARK    1  A    between atoms: C_1  and  C_2
REMARK    2  A    between atoms: C_2  and  C_3
REMARK    3  A    between atoms: C_2  and  N_4
REMARK    4  A    between atoms: N_7  and  C_8
REMARK    5  A    between atoms: C_12  and  C_14
REMARK    6  A    between atoms: C_18  and  N_27
REMARK    7  A    between atoms: N_27  and  C_28
REMARK    8  A    between atoms: N_27  and  C_29
REMARK                            x       y       z     vdW  Elec       q    Type
REMARK                         _______ _______ _______ _____ _____    ______ ____
ROOT
ATOM      1  C   UNL     1       6.897  -2.063  -4.916  0.00  0.00    +0.251 C 
ATOM      2  O   UNL     1       6.361  -1.788  -3.860  0.00  0.00    -0.270 OA
ATOM      3  N   UNL     1       8.239  -2.007  -5.025  0.00  0.00    -0.269 N 
ATOM      4  C   UNL     1       8.902  -2.374  -6.283  0.00  0.00    +0.099 C 
ATOM      5  C   UNL     1       9.973  -1.314  -6.575  0.00  0.00    -0.047 C 
ATOM      6  C   UNL     1      11.022  -1.352  -5.464  0.00  0.00    +0.023 C 
ATOM      7  C   UNL     1      10.362  -1.274  -4.113  0.00  0.00    -0.027 A 
ATOM      8  C   UNL     1       9.025  -1.593  -3.941  0.00  0.00    +0.040 A 
ATOM      9  C   UNL     1       8.447  -1.508  -2.680  0.00  0.00    +0.024 A 
ATOM     10  C   UNL     1       9.204  -1.098  -1.600  0.00  0.00    +0.002 A 
ATOM     11  C   UNL     1      10.536  -0.772  -1.775  0.00  0.00    +0.000 A 
ATOM     12  C   UNL     1      11.113  -0.868  -3.023  0.00  0.00    +0.005 A 
ENDROOT
BRANCH   1  17
ATOM     13  C   UNL     1       4.025  -2.327  -7.328  0.00  0.00    +0.035 A 
ATOM     14  C   UNL     1       4.545  -3.209  -8.268  0.00  0.00    +0.023 A 
ATOM     15  C   UNL     1       5.823  -3.713  -8.116  0.00  0.00    +0.003 A 
ATOM     16  C   UNL     1       6.590  -3.345  -7.030  0.00  0.00    +0.013 A 
ATOM     17  C   UNL     1       6.077  -2.460  -6.080  0.00  0.00    +0.039 A 
ATOM     18  C   UNL     1       4.790  -1.946  -6.237  0.00  0.00    +0.036 A 
BRANCH  13  22
ATOM     19  N   UNL     1       1.232  -0.034  -7.351  0.00  0.00    -0.297 N 
ATOM     20  C   UNL     1       2.452  -0.554  -7.112  0.00  0.00    +0.304 C 
ATOM     21  O   UNL     1       3.301   0.117  -6.559  0.00  0.00    -0.253 OA
ATOM     22  N   UNL     1       2.730  -1.819  -7.487  0.00  0.00    -0.269 N 
ATOM     23  H   UNL     1       0.554  -0.569  -7.792  0.00  0.00    +0.151 HD
ATOM     24  H   UNL     1       2.033  -2.376  -7.867  0.00  0.00    +0.156 HD
BRANCH  19  26
ATOM     25  C   UNL     1       1.394   2.309  -8.032  0.00  0.00    +0.027 C 
ATOM     26  C   UNL     1       0.929   1.341  -6.943  0.00  0.00    +0.068 C 
ATOM     27  C   UNL     1      -0.580   1.491  -6.737  0.00  0.00    +0.027 C 
ENDBRANCH  19  26
ENDBRANCH  13  22
ENDBRANCH   1  17
BRANCH   5  28
ATOM     28  N   UNL     1      10.610  -1.601  -7.867  0.00  0.00    +0.379 N 
ATOM     29  C   UNL     1       9.596  -1.576  -8.930  0.00  0.00    -0.096 C 
ATOM     30  C   UNL     1      11.634  -0.585  -8.144  0.00  0.00    -0.096 C 
ATOM     31  H   UNL     1      11.041  -2.512  -7.835  0.00  0.00    -0.082 HD
ENDBRANCH   5  28
TORSDOF 4
