REMARK  Name = ZINC19168059
REMARK  10 active torsions:
REMARK  status: ('A' for Active; 'I' for Inactive)
REMARK    1  A    between atoms: C_1  and  C_2
REMARK    2  A    between atoms: C_2  and  C_3
REMARK    3  A    between atoms: C_3  and  C_4
REMARK    4  A    between atoms: C_4  and  N_5
REMARK    5  A    between atoms: N_5  and  C_6
REMARK    6  A    between atoms: C_7  and  N_22
REMARK    7  A    between atoms: N_8  and  C_15
REMARK    8  A    between atoms: C_15  and  C_16
REMARK    9  A    between atoms: C_23  and  C_25
REMARK   10  A    between atoms: C_28  and  C_30
REMARK                            x       y       z     vdW  Elec       q    Type
REMARK                         _______ _______ _______ _____ _____    ______ ____
ROOT
ATOM      1  N   UNL     1       0.964   1.658   0.039  0.00  0.00    -0.258 N 
ATOM      2  C   UNL     1      -0.107   0.873   0.270  0.00  0.00    +0.286 C 
ATOM      3  O   UNL     1       0.003  -0.339   0.218  0.00  0.00    -0.266 OA
ENDROOT
BRANCH   1   4
ATOM      4  C   UNL     1       2.235   1.078  -0.151  0.00  0.00    +0.140 A 
ATOM      5  C   UNL     1       2.874   0.431   0.886  0.00  0.00    +0.128 A 
ATOM      6  N   UNL     1       4.112  -0.128   0.668  0.00  0.00    -0.276 N 
ATOM      7  C   UNL     1       4.697  -0.037  -0.539  0.00  0.00    +0.331 A 
ATOM      8  O   UNL     1       5.793  -0.534  -0.711  0.00  0.00    -0.246 OA
ATOM      9  N   UNL     1       4.092   0.595  -1.561  0.00  0.00    -0.273 N 
ATOM     10  H   UNL     1       4.548   0.649  -2.449  0.00  0.00    +0.173 HD
ATOM     11  C   UNL     1       2.877   1.155  -1.402  0.00  0.00    +0.277 A 
ATOM     12  O   UNL     1       2.337   1.725  -2.335  0.00  0.00    -0.266 OA
BRANCH   5  13
ATOM     13  N   UNL     1       2.279   0.342   2.122  0.00  0.00    -0.343 N 
ATOM     14  H   UNL     1       1.388   0.702   2.259  0.00  0.00    +0.144 HD
ATOM     15  H   UNL     1       2.748  -0.082   2.857  0.00  0.00    +0.144 HD
ENDBRANCH   5  13
BRANCH   6  16
ATOM     16  C   UNL     1       4.800  -0.823   1.760  0.00  0.00    +0.163 C 
BRANCH  16  17
ATOM     17  C   UNL     1       5.649   0.160   2.524  0.00  0.00    -0.028 A 
ATOM     18  C   UNL     1       6.963   0.375   2.150  0.00  0.00    +0.005 A 
ATOM     19  C   UNL     1       7.740   1.280   2.848  0.00  0.00    +0.000 A 
ATOM     20  C   UNL     1       7.208   1.962   3.926  0.00  0.00    +0.000 A 
ATOM     21  C   UNL     1       5.897   1.743   4.303  0.00  0.00    +0.000 A 
ATOM     22  C   UNL     1       5.117   0.842   3.602  0.00  0.00    +0.005 A 
ENDBRANCH  16  17
ENDBRANCH   6  16
ENDBRANCH   1   4
BRANCH   2  23
ATOM     23  C   UNL     1      -1.406   1.477   0.579  0.00  0.00    +0.190 A 
ATOM     24  C   UNL     1      -2.581   0.795   0.809  0.00  0.00    +0.055 A 
ATOM     25  C   UNL     1      -3.562   1.758   1.066  0.00  0.00    +0.051 A 
ATOM     26  C   UNL     1      -2.959   2.980   0.975  0.00  0.00    +0.139 A 
ATOM     27  O   UNL     1      -1.661   2.798   0.681  0.00  0.00    -0.450 OA
BRANCH  26  28
ATOM     28  C   UNL     1      -3.624   4.284   1.167  0.00  0.00    +0.052 A 
ATOM     29  C   UNL     1      -3.067   5.236   2.025  0.00  0.00    +0.014 A 
ATOM     30  C   UNL     1      -3.693   6.452   2.200  0.00  0.00    +0.001 A 
ATOM     31  C   UNL     1      -4.870   6.733   1.528  0.00  0.00    +0.003 A 
ATOM     32  C   UNL     1      -5.429   5.797   0.677  0.00  0.00    +0.039 A 
ATOM     33  C   UNL     1      -4.811   4.575   0.487  0.00  0.00    +0.134 A 
ATOM     34  F   UNL     1      -5.354   3.663  -0.349  0.00  0.00    -0.205 F 
ENDBRANCH  26  28
ENDBRANCH   2  23
BRANCH   1  35
ATOM     35  C   UNL     1       0.807   3.114  -0.014  0.00  0.00    +0.114 C 
BRANCH  35  36
ATOM     36  C   UNL     1       0.898   3.688   1.401  0.00  0.00    +0.019 C 
BRANCH  36  38
ATOM     37  C   UNL     1       0.826   5.784   2.760  0.00  0.00    +0.004 C 
ATOM     38  C   UNL     1       0.735   5.209   1.345  0.00  0.00    -0.002 C 
ENDBRANCH  36  38
ENDBRANCH  35  36
ENDBRANCH   1  35
TORSDOF 9
