REMARK  Name = ZINC14649576
REMARK  11 active torsions:
REMARK  status: ('A' for Active; 'I' for Inactive)
REMARK    1  A    between atoms: C_1  and  C_2
REMARK    2  A    between atoms: N_7  and  S_8
REMARK    3  A    between atoms: S_8  and  C_11
REMARK    4  A    between atoms: C_14  and  N_17
REMARK    5  A    between atoms: C_18  and  C_20
REMARK    6  A    between atoms: C_20  and  O_21
REMARK    7  A    between atoms: O_21  and  C_22
REMARK    8  A    between atoms: C_25  and  C_29
REMARK    9  A    between atoms: C_29  and  C_30
REMARK   10  A    between atoms: C_29  and  C_31
REMARK   11  A    between atoms: C_29  and  C_32
REMARK                            x       y       z     vdW  Elec       q    Type
REMARK                         _______ _______ _______ _____ _____    ______ ____
ROOT
ATOM      1  C   UNL     1       7.767  -3.726  -0.410  0.00  0.00    +0.109 A 
ATOM      2  C   UNL     1       7.553  -2.555   0.293  0.00  0.00    +0.030 A 
ATOM      3  C   UNL     1       6.276  -2.043   0.414  0.00  0.00    +0.025 A 
ATOM      4  C   UNL     1       5.205  -2.707  -0.170  0.00  0.00    +0.034 A 
ATOM      5  C   UNL     1       5.422  -3.887  -0.871  0.00  0.00    +0.025 A 
ATOM      6  C   UNL     1       6.703  -4.390  -0.993  0.00  0.00    +0.030 A 
ENDROOT
BRANCH   4   7
ATOM      7  N   UNL     1       3.910  -2.192  -0.049  0.00  0.00    -0.283 N 
ATOM      8  C   UNL     1       3.713  -0.859  -0.041  0.00  0.00    +0.255 C 
ATOM      9  O   UNL     1       4.664  -0.105  -0.055  0.00  0.00    -0.272 OA
ATOM     10  H   UNL     1       3.154  -2.794   0.029  0.00  0.00    +0.155 HD
BRANCH   8  11
ATOM     11  C   UNL     1       2.312  -0.304  -0.016  0.00  0.00    +0.324 C 
BRANCH  11  12
ATOM     12  O   UNL     1       2.366   1.124  -0.012  0.00  0.00    -0.482 OA
BRANCH  12  13
ATOM     13  C   UNL     1       1.179   1.786   0.010  0.00  0.00    +0.135 A 
ATOM     14  C   UNL     1      -0.013   1.075   0.028  0.00  0.00    +0.047 A 
ATOM     15  C   UNL     1      -1.218   1.750   0.044  0.00  0.00    +0.008 A 
ATOM     16  C   UNL     1      -1.238   3.133   0.054  0.00  0.00    -0.041 A 
ATOM     17  C   UNL     1      -0.053   3.844   0.037  0.00  0.00    +0.023 A 
ATOM     18  C   UNL     1       1.156   3.174   0.015  0.00  0.00    +0.060 A 
ATOM     19 BR   UNL     1       2.777   4.146  -0.010  0.00  0.00    -0.047 Br
BRANCH  16  20
ATOM     20  C   UNL     1      -2.555   3.866   0.078  0.00  0.00    -0.013 C 
ATOM     21  C   UNL     1      -2.670   4.748  -1.167  0.00  0.00    +0.015 C 
ATOM     22  C   UNL     1      -3.702   2.853   0.093  0.00  0.00    +0.015 C 
ATOM     23  C   UNL     1      -2.629   4.740   1.331  0.00  0.00    +0.015 C 
ENDBRANCH  16  20
ENDBRANCH  12  13
ENDBRANCH  11  12
ENDBRANCH   8  11
ENDBRANCH   4   7
BRANCH   1  24
ATOM     24  S   UNL     1       9.398  -4.375  -0.563  0.00  0.00    +0.074 S 
ATOM     25  O   UNL     1       9.404  -5.188  -1.729  0.00  0.00    -0.150 OA
ATOM     26  O   UNL     1      10.288  -3.281  -0.392  0.00  0.00    -0.150 OA
BRANCH  24  33
ATOM     27  C   UNL     1       7.709  -9.700   2.304  0.00  0.00    +0.089 C 
ATOM     28  C   UNL     1       8.046  -8.443   1.545  0.00  0.00    +0.136 A 
ATOM     29  C   UNL     1       8.976  -7.521   1.881  0.00  0.00    +0.092 A 
ATOM     30  C   UNL     1       8.889  -6.553   0.845  0.00  0.00    +0.181 A 
ATOM     31  N   UNL     1       7.953  -6.970   0.033  0.00  0.00    -0.062 NA
ATOM     32  O   UNL     1       7.480  -8.019   0.405  0.00  0.00    -0.358 OA
ATOM     33  N   UNL     1       9.643  -5.390   0.723  0.00  0.00    -0.197 N 
ATOM     34  H   UNL     1      10.313  -5.174   1.390  0.00  0.00    +0.175 HD
ENDBRANCH  24  33
ENDBRANCH   1  24
TORSDOF 7
