REMARK  Name = ZINC64626182
REMARK  9 active torsions:
REMARK  status: ('A' for Active; 'I' for Inactive)
REMARK    1  A    between atoms: C_1  and  C_2
REMARK    2  A    between atoms: C_2  and  O_3
REMARK    3  A    between atoms: O_3  and  C_4
REMARK    4  A    between atoms: C_12  and  C_14
REMARK    5  A    between atoms: N_20  and  C_23
REMARK    6  A    between atoms: C_23  and  C_25
REMARK    7  A    between atoms: C_23  and  C_26
REMARK    8  A    between atoms: C_26  and  C_27
REMARK    9  A    between atoms: C_27  and  C_28
REMARK                            x       y       z     vdW  Elec       q    Type
REMARK                         _______ _______ _______ _____ _____    ______ ____
ROOT
ATOM      1  C   UNL     1       1.790  -5.630   6.162  0.00  0.00    +0.082 C 
ATOM      2  C   UNL     1       3.233  -5.988   5.799  0.00  0.00    +0.020 C 
ATOM      3  C   UNL     1       2.817  -5.875   7.266  0.00  0.00    -0.021 C 
ATOM      4  C   UNL     1       2.699  -7.169   8.078  0.00  0.00    -0.011 C 
ATOM      5  C   UNL     1       1.897  -6.875   9.351  0.00  0.00    -0.078 C 
ATOM      6  N   UNL     1       2.545  -5.790  10.097  0.00  0.00    +0.381 N 
ATOM      7  C   UNL     1       2.473  -4.537   9.335  0.00  0.00    -0.078 C 
ATOM      8  C   UNL     1       3.316  -4.665   8.061  0.00  0.00    -0.011 C 
ATOM      9  H   UNL     1       3.511  -6.027  10.261  0.00  0.00    -0.081 HD
ENDROOT
BRANCH   1  18
ATOM     10  C   UNL     1      -3.609  -2.822   7.159  0.00  0.00    +0.403 C 
ATOM     11  O   UNL     1      -4.270  -3.556   7.866  0.00  0.00    -0.226 OA
ATOM     12  N   UNL     1      -2.477  -3.277   6.587  0.00  0.00    -0.264 N 
ATOM     13  C   UNL     1      -1.664  -2.398   5.734  0.00  0.00    +0.130 C 
ATOM     14  C   UNL     1      -0.232  -2.371   6.281  0.00  0.00    +0.127 C 
ATOM     15  N   UNL     1       0.213  -3.754   6.500  0.00  0.00    -0.298 N 
ATOM     16  C   UNL     1      -0.599  -4.633   7.353  0.00  0.00    +0.127 C 
ATOM     17  C   UNL     1      -2.029  -4.658   6.811  0.00  0.00    +0.130 C 
ATOM     18  C   UNL     1       1.346  -4.209   5.929  0.00  0.00    +0.219 C 
ATOM     19  O   UNL     1       2.008  -3.474   5.226  0.00  0.00    -0.275 OA
BRANCH  10  20
ATOM     20  O   UNL     1      -4.009  -1.554   6.946  0.00  0.00    -0.451 OA
BRANCH  20  22
ATOM     21  C   UNL     1      -5.508   0.320   7.227  0.00  0.00    +0.048 C 
ATOM     22  C   UNL     1      -5.219  -1.139   7.583  0.00  0.00    +0.230 C 
ENDBRANCH  20  22
ENDBRANCH  10  20
ENDBRANCH   1  18
BRANCH   6  23
ATOM     23  C   UNL     1       1.865  -5.614  11.388  0.00  0.00    -0.071 C 
ATOM     24  C   UNL     1       0.434  -5.128  11.148  0.00  0.00    -0.013 C 
BRANCH  23  25
ATOM     25  C   UNL     1       2.620  -4.580  12.226  0.00  0.00    -0.011 C 
BRANCH  25  26
ATOM     26  C   UNL     1       4.007  -5.125  12.577  0.00  0.00    +0.031 C 
BRANCH  26  27
ATOM     27  C   UNL     1       4.782  -4.074  13.330  0.00  0.00    -0.042 C 
ATOM     28  C   UNL     1       4.893  -3.952  14.672  0.00  0.00    -0.001 A 
ATOM     29  C   UNL     1       4.345  -4.728  15.790  0.00  0.00    +0.010 A 
ATOM     30  C   UNL     1       4.637  -4.353  17.056  0.00  0.00    +0.001 A 
ATOM     31  C   UNL     1       5.449  -3.242  17.326  0.00  0.00    +0.002 A 
ATOM     32  C   UNL     1       5.990  -2.480  16.352  0.00  0.00    +0.026 A 
ATOM     33  C   UNL     1       5.748  -2.784  14.984  0.00  0.00    +0.043 A 
ATOM     34  N   UNL     1       6.150  -2.207  13.877  0.00  0.00    -0.380 N 
ATOM     35  C   UNL     1       5.600  -2.949  12.737  0.00  0.00    +0.144 C 
ATOM     36  H   UNL     1       6.719  -1.424  13.822  0.00  0.00    +0.160 HD
ENDBRANCH  26  27
ENDBRANCH  25  26
ENDBRANCH  23  25
ENDBRANCH   6  23
TORSDOF 7
