REMARK  Name = ZINC44714112
REMARK  10 active torsions:
REMARK  status: ('A' for Active; 'I' for Inactive)
REMARK    1  A    between atoms: C_1  and  C_2
REMARK    2  A    between atoms: C_2  and  N_3
REMARK    3  A    between atoms: C_4  and  C_10
REMARK    4  A    between atoms: C_6  and  C_8
REMARK    5  A    between atoms: C_14  and  C_23
REMARK    6  A    between atoms: N_25  and  C_26
REMARK    7  A    between atoms: C_26  and  C_28
REMARK    8  A    between atoms: C_26  and  C_29
REMARK    9  A    between atoms: C_30  and  C_36
REMARK   10  A    between atoms: C_34  and  C_35
REMARK                            x       y       z     vdW  Elec       q    Type
REMARK                         _______ _______ _______ _____ _____    ______ ____
ROOT
ATOM      1  C   UNL     1      -1.892  -0.470  -2.800  0.00  0.00    +0.266 C 
ATOM      2  O   UNL     1      -2.326  -0.773  -3.895  0.00  0.00    -0.268 OA
ATOM      3  N   UNL     1      -2.693   0.136  -1.901  0.00  0.00    -0.295 N 
ATOM      4  C   UNL     1      -2.378   0.493  -0.498  0.00  0.00    +0.121 C 
ATOM      5  C   UNL     1      -3.039   1.874  -0.289  0.00  0.00    +0.100 C 
ATOM      6  C   UNL     1      -4.162   1.934  -1.338  0.00  0.00    -0.004 C 
ATOM      7  C   UNL     1      -4.087   0.601  -2.096  0.00  0.00    +0.115 C 
ATOM      8  C   UNL     1      -3.925   3.095  -2.300  0.00  0.00    -0.010 C 
ATOM      9  C   UNL     1      -5.085   3.169  -3.297  0.00  0.00    -0.082 C 
ATOM     10  N   UNL     1      -6.346   3.358  -2.571  0.00  0.00    +0.379 N 
ATOM     11  C   UNL     1      -6.612   2.194  -1.717  0.00  0.00    -0.082 C 
ATOM     12  C   UNL     1      -5.518   2.079  -0.653  0.00  0.00    -0.010 C 
ATOM     13  H   UNL     1      -6.282   4.186  -1.998  0.00  0.00    -0.086 HD
ATOM     14  H   UNL     1      -7.100   3.468  -3.233  0.00  0.00    -0.086 HD
ENDROOT
BRANCH   1  16
ATOM     15  N   UNL     1       0.603  -0.001  -2.746  0.00  0.00    -0.258 N 
ATOM     16  C   UNL     1      -0.493  -0.765  -2.455  0.00  0.00    +0.138 A 
ATOM     17  C   UNL     1      -0.020  -1.873  -1.771  0.00  0.00    +0.071 A 
ATOM     18  C   UNL     1       1.364  -1.697  -1.694  0.00  0.00    +0.075 A 
ATOM     19  N   UNL     1       1.660  -0.573  -2.295  0.00  0.00    -0.175 NA
ATOM     20  C   UNL     1       2.343  -2.638  -1.039  0.00  0.00    +0.069 C 
ATOM     21 BR   UNL     1      -1.033  -3.316  -1.087  0.00  0.00    -0.046 Br
BRANCH  15  23
ATOM     22  C   UNL     1       0.703   1.012  -4.970  0.00  0.00    +0.029 C 
ATOM     23  C   UNL     1       0.575   1.274  -3.468  0.00  0.00    +0.141 C 
ENDBRANCH  15  23
ENDBRANCH   1  16
BRANCH   5  24
ATOM     24  C   UNL     1      -2.038   2.976  -0.525  0.00  0.00    +0.219 C 
ATOM     25  O   UNL     1      -1.182   2.846  -1.375  0.00  0.00    -0.275 OA
ATOM     26  N   UNL     1      -2.094   4.106   0.208  0.00  0.00    -0.308 N 
ATOM     27  H   UNL     1      -2.732   4.181   0.935  0.00  0.00    +0.149 HD
BRANCH  26  28
ATOM     28  C   UNL     1      -1.192   5.220  -0.094  0.00  0.00    +0.104 C 
ATOM     29  C   UNL     1      -0.917   6.014   1.185  0.00  0.00    +0.033 C 
BRANCH  28  30
ATOM     30  C   UNL     1      -1.832   6.121  -1.118  0.00  0.00    +0.015 A 
ATOM     31  C   UNL     1      -1.233   6.620  -2.225  0.00  0.00    +0.038 A 
ATOM     32  N   UNL     1      -2.140   7.378  -2.876  0.00  0.00    -0.281 N 
ATOM     33  H   UNL     1      -1.991   7.860  -3.704  0.00  0.00    +0.189 HD
ATOM     34  N   UNL     1      -3.335   7.344  -2.146  0.00  0.00    -0.179 NA
ATOM     35  C   UNL     1      -3.151   6.586  -1.095  0.00  0.00    +0.065 A 
ATOM     36  C   UNL     1      -4.181   6.271  -0.041  0.00  0.00    +0.068 C 
ATOM     37  C   UNL     1       0.190   6.372  -2.653  0.00  0.00    +0.065 C 
ENDBRANCH  28  30
ENDBRANCH  26  28
ENDBRANCH   5  24
TORSDOF 5
