REMARK  Name = ZINC19703172
REMARK  7 active torsions:
REMARK  status: ('A' for Active; 'I' for Inactive)
REMARK    1  A    between atoms: C_1  and  C_2
REMARK    2  A    between atoms: C_17  and  C_37
REMARK    3  A    between atoms: C_22  and  C_23
REMARK    4  A    between atoms: C_22  and  O_36
REMARK    5  A    between atoms: C_23  and  N_24
REMARK    6  A    between atoms: C_25  and  C_26
REMARK    7  A    between atoms: C_28  and  N_33
REMARK                            x       y       z     vdW  Elec       q    Type
REMARK                         _______ _______ _______ _____ _____    ______ ____
ROOT
ATOM      1  C   UNL     1       2.545   0.707   0.475  0.00  0.00    +0.012 C 
ATOM      2  C   UNL     1       3.772  -0.195   0.398  0.00  0.00    -0.026 C 
ATOM      3  C   UNL     1       3.405  -1.576   0.965  0.00  0.00    +0.007 C 
ATOM      4  C   UNL     1       2.957  -1.459   2.420  0.00  0.00    +0.001 C 
ATOM      5  C   UNL     1       4.061  -0.834   3.271  0.00  0.00    +0.000 C 
ATOM      6  C   UNL     1       4.445   0.536   2.708  0.00  0.00    +0.004 C 
ATOM      7  C   UNL     1       4.901   0.380   1.261  0.00  0.00    -0.005 C 
ATOM      8  C   UNL     1       5.363   1.718   0.693  0.00  0.00    +0.004 C 
ATOM      9  C   UNL     1       5.941   1.498  -0.705  0.00  0.00    +0.004 C 
ATOM     10  C   UNL     1       4.898   0.878  -1.633  0.00  0.00    -0.004 C 
ATOM     11  C   UNL     1       4.275  -0.362  -1.026  0.00  0.00    -0.001 C 
ATOM     12  C   UNL     1       3.254  -0.980  -1.968  0.00  0.00    +0.005 C 
ATOM     13  C   UNL     1       2.238   0.010  -2.500  0.00  0.00    +0.010 C 
ATOM     14  C   UNL     1       2.810   1.314  -2.994  0.00  0.00    +0.001 C 
ATOM     15  C   UNL     1       3.886   1.922  -2.084  0.00  0.00    +0.001 C 
ATOM     16  C   UNL     1       4.634   2.897  -3.041  0.00  0.00    +0.007 C 
ATOM     17  C   UNL     1       4.624   2.186  -4.408  0.00  0.00    +0.037 C 
ATOM     18  C   UNL     1       3.431   1.211  -4.392  0.00  0.00    +0.089 C 
ATOM     19  C   UNL     1       1.646   2.322  -3.079  0.00  0.00    +0.014 C 
ENDROOT
BRANCH  18  20
ATOM     20  O   UNL     1       3.878  -0.118  -4.658  0.00  0.00    -0.386 OA
ATOM     21  H   UNL     1       4.278  -0.231  -5.531  0.00  0.00    +0.210 HD
ENDBRANCH  18  20
BRANCH  18  22
ATOM     22  C   UNL     1       2.404   1.635  -5.449  0.00  0.00    +0.147 C 
BRANCH  22  23
ATOM     23  N   UNL     1       3.005   1.533  -6.782  0.00  0.00    -0.387 N 
ATOM     24  C   UNL     1       2.237   1.251  -7.844  0.00  0.00    +0.090 C 
ATOM     25  H   UNL     1       3.959   1.671  -6.895  0.00  0.00    +0.159 HD
BRANCH  24  26
ATOM     26  C   UNL     1       0.962   1.812  -7.953  0.00  0.00    +0.039 A 
ATOM     27  C   UNL     1       0.330   2.391  -6.831  0.00  0.00    +0.045 A 
ATOM     28  C   UNL     1      -0.911   2.931  -6.958  0.00  0.00    +0.127 A 
ATOM     29  C   UNL     1      -1.584   2.929  -8.176  0.00  0.00    +0.036 A 
ATOM     30  C   UNL     1      -1.031   2.387  -9.295  0.00  0.00    +0.054 A 
ATOM     31  C   UNL     1       0.252   1.817  -9.239  0.00  0.00    +0.188 A 
ATOM     32  O   UNL     1       0.764   1.330 -10.237  0.00  0.00    -0.287 OA
BRANCH  28  33
ATOM     33  N   UNL     1      -1.561   3.535  -5.773  0.00  0.00    +0.056 N 
ATOM     34  O   UNL     1      -0.988   3.544  -4.708  0.00  0.00    -0.126 OA
ATOM     35  O   UNL     1      -2.664   4.020  -5.870  0.00  0.00    -0.126 OA
ENDBRANCH  28  33
ENDBRANCH  24  26
ENDBRANCH  22  23
ENDBRANCH  18  22
TORSDOF 5
