REMARK  Name = ZINC58966450
REMARK  9 active torsions:
REMARK  status: ('A' for Active; 'I' for Inactive)
REMARK    1  A    between atoms: C_1  and  C_2
REMARK    2  A    between atoms: C_9  and  N_14
REMARK    3  A    between atoms: C_10  and  C_11
REMARK    4  A    between atoms: C_15  and  C_17
REMARK    5  A    between atoms: C_17  and  C_19
REMARK    6  A    between atoms: C_17  and  S_20
REMARK    7  A    between atoms: S_20  and  C_21
REMARK    8  A    between atoms: C_23  and  C_31
REMARK    9  A    between atoms: C_25  and  C_27
REMARK                            x       y       z     vdW  Elec       q    Type
REMARK                         _______ _______ _______ _____ _____    ______ ____
ROOT
ATOM      1  N   UNL     1       1.942  -5.826   1.699  0.00  0.00    -0.278 N 
ATOM      2  C   UNL     1       2.253  -6.086   2.984  0.00  0.00    +0.231 C 
ATOM      3  O   UNL     1       2.232  -5.193   3.805  0.00  0.00    -0.274 OA
ATOM      4  H   UNL     1       1.959  -6.540   1.042  0.00  0.00    +0.155 HD
ENDROOT
BRANCH   1  12
ATOM      5  C   UNL     1      -0.019   1.526   0.010  0.00  0.00    +0.008 C 
ATOM      6  C   UNL     1       0.002  -0.004   0.002  0.00  0.00    -0.009 C 
ATOM      7  C   UNL     1       0.724  -0.500  -1.254  0.00  0.00    +0.008 C 
ATOM      8  C   UNL     1       0.537  -2.012  -1.399  0.00  0.00    +0.037 C 
ATOM      9  C   UNL     1       0.935  -2.680  -0.091  0.00  0.00    -0.023 A 
ATOM     10  C   UNL     1       1.019  -1.977   1.059  0.00  0.00    -0.004 A 
ATOM     11  S   UNL     1       1.508  -3.164   2.276  0.00  0.00    -0.077 S 
ATOM     12  C   UNL     1       1.599  -4.539   1.315  0.00  0.00    +0.084 A 
ATOM     13  C   UNL     1       1.254  -4.090   0.050  0.00  0.00    +0.068 A 
ATOM     14  C   UNL     1       0.750  -0.515   1.242  0.00  0.00    +0.046 C 
BRANCH  13  15
ATOM     15  C   UNL     1       1.212  -5.001  -1.099  0.00  0.00    +0.244 C 
ATOM     16  O   UNL     1       2.208  -5.170  -1.778  0.00  0.00    -0.270 OA
ATOM     17  N   UNL     1       0.071  -5.651  -1.402  0.00  0.00    -0.325 N 
ATOM     18  H   UNL     1      -0.722  -5.516  -0.860  0.00  0.00    +0.145 HD
ATOM     19  H   UNL     1       0.043  -6.254  -2.161  0.00  0.00    +0.145 HD
ENDBRANCH  13  15
ENDBRANCH   1  12
BRANCH   2  20
ATOM     20  C   UNL     1       2.626  -7.485   3.402  0.00  0.00    +0.137 C 
ATOM     21  C   UNL     1       4.117  -7.712   3.149  0.00  0.00    +0.029 C 
BRANCH  20  22
ATOM     22  S   UNL     1       2.272  -7.704   5.168  0.00  0.00    -0.074 S 
BRANCH  22  23
ATOM     23  C   UNL     1       2.615  -9.406   5.463  0.00  0.00    +0.190 A 
ATOM     24  N   UNL     1       2.447  -9.896   6.682  0.00  0.00    -0.219 NA
ATOM     25  C   UNL     1       2.699 -11.180   6.937  0.00  0.00    +0.111 A 
ATOM     26  C   UNL     1       3.144 -12.004   5.895  0.00  0.00    +0.064 A 
ATOM     27  C   UNL     1       3.305 -11.448   4.640  0.00  0.00    +0.149 A 
ATOM     28  N   UNL     1       3.030 -10.165   4.459  0.00  0.00    -0.218 NA
BRANCH  25  29
ATOM     29  C   UNL     1       2.512 -11.725   8.296  0.00  0.00    +0.153 A 
ATOM     30  C   UNL     1       2.081 -11.029   9.383  0.00  0.00    +0.051 A 
ATOM     31  C   UNL     1       2.051 -11.937  10.459  0.00  0.00    +0.042 A 
ATOM     32  C   UNL     1       2.460 -13.130   9.981  0.00  0.00    +0.196 A 
ATOM     33  O   UNL     1       2.731 -13.000   8.674  0.00  0.00    -0.461 OA
ENDBRANCH  25  29
BRANCH  27  34
ATOM     34  C   UNL     1       3.782 -12.295   3.488  0.00  0.00    +0.434 C 
ATOM     35  F   UNL     1       2.680 -12.861   2.838  0.00  0.00    -0.164 F 
ATOM     36  F   UNL     1       4.496 -11.498   2.588  0.00  0.00    -0.164 F 
ATOM     37  F   UNL     1       4.612 -13.313   3.970  0.00  0.00    -0.164 F 
ENDBRANCH  27  34
ENDBRANCH  22  23
ENDBRANCH  20  22
ENDBRANCH   2  20
TORSDOF 7
