REMARK  Name = ZINC60384464
REMARK  11 active torsions:
REMARK  status: ('A' for Active; 'I' for Inactive)
REMARK    1  A    between atoms: C_1  and  C_2
REMARK    2  A    between atoms: C_2  and  N_3
REMARK    3  A    between atoms: N_3  and  C_4
REMARK    4  A    between atoms: N_3  and  C_31
REMARK    5  A    between atoms: C_7  and  N_10
REMARK    6  A    between atoms: C_11  and  C_13
REMARK    7  A    between atoms: C_13  and  N_14
REMARK    8  A    between atoms: C_17  and  C_21
REMARK    9  A    between atoms: C_17  and  C_22
REMARK   10  A    between atoms: C_31  and  C_32
REMARK   11  A    between atoms: C_31  and  C_33
REMARK                            x       y       z     vdW  Elec       q    Type
REMARK                         _______ _______ _______ _____ _____    ______ ____
ROOT
ATOM      1  C   UNL     1      -5.838   1.934  -5.938  0.00  0.00    +0.214 C 
ENDROOT
BRANCH   1   2
ATOM      2  N   UNL     1      -7.057   2.683  -5.623  0.00  0.00    -0.215 N 
ATOM      3  C   UNL     1      -8.247   2.112  -5.351  0.00  0.00    +0.251 C 
ATOM      4  O   UNL     1      -8.500   0.927  -5.320  0.00  0.00    -0.272 OA
ATOM      5  C   UNL     1      -9.202   3.260  -5.088  0.00  0.00    +0.135 C 
ATOM      6  N   UNL     1      -8.360   4.456  -5.260  0.00  0.00    -0.281 N 
ATOM      7  C   UNL     1      -7.125   4.018  -5.566  0.00  0.00    +0.310 C 
ATOM      8  O   UNL     1      -6.179   4.752  -5.770  0.00  0.00    -0.252 OA
ATOM      9  C   UNL     1     -10.343   3.253  -6.107  0.00  0.00    +0.047 C 
ATOM     10  H   UNL     1      -8.640   5.380  -5.168  0.00  0.00    +0.152 HD
BRANCH   5  11
ATOM     11  C   UNL     1      -9.742   3.189  -3.684  0.00  0.00    -0.015 A 
ATOM     12  C   UNL     1      -9.884   1.964  -3.058  0.00  0.00    +0.006 A 
ATOM     13  C   UNL     1     -10.380   1.902  -1.770  0.00  0.00    +0.004 A 
ATOM     14  C   UNL     1     -10.736   3.063  -1.103  0.00  0.00    -0.044 A 
ATOM     15  C   UNL     1     -10.595   4.287  -1.729  0.00  0.00    -0.044 A 
ATOM     16  C   UNL     1     -10.092   4.348  -3.018  0.00  0.00    +0.010 A 
ATOM     17  C   UNL     1     -11.049   5.392  -0.800  0.00  0.00    +0.036 C 
ATOM     18  C   UNL     1     -11.887   4.687   0.287  0.00  0.00    +0.009 C 
ATOM     19  C   UNL     1     -11.295   3.262   0.289  0.00  0.00    +0.036 C 
ENDBRANCH   5  11
ENDBRANCH   1   2
BRANCH   1  21
ATOM     20  N   UNL     1      -3.929   0.951  -4.710  0.00  0.00    -0.284 N 
ATOM     21  C   UNL     1      -5.089   1.635  -4.665  0.00  0.00    +0.235 C 
ATOM     22  O   UNL     1      -5.530   2.011  -3.599  0.00  0.00    -0.274 OA
ATOM     23  H   UNL     1      -3.537   0.717  -5.566  0.00  0.00    +0.155 HD
BRANCH  20  27
ATOM     24  C   UNL     1      -2.027  -0.162  -1.174  0.00  0.00    +0.014 A 
ATOM     25  C   UNL     1      -3.408  -0.111  -1.228  0.00  0.00    +0.023 A 
ATOM     26  C   UNL     1      -4.041   0.258  -2.399  0.00  0.00    +0.025 A 
ATOM     27  C   UNL     1      -3.290   0.578  -3.522  0.00  0.00    +0.034 A 
ATOM     28  C   UNL     1      -1.903   0.525  -3.465  0.00  0.00    +0.025 A 
ATOM     29  C   UNL     1      -1.276   0.161  -2.290  0.00  0.00    +0.023 A 
BRANCH  24  30
ATOM     30  N   UNL     1      -1.389  -0.536   0.012  0.00  0.00    -0.392 NA
ATOM     31  H   UNL     1      -0.389  -0.516  -0.123  0.00  0.00    +0.127 HD
BRANCH  30  32
ATOM     32  C   UNL     1      -1.757   0.401   1.082  0.00  0.00    +0.049 C 
ATOM     33  C   UNL     1      -1.059  -0.008   2.381  0.00  0.00    +0.026 C 
ATOM     34  C   UNL     1      -1.323   1.816   0.693  0.00  0.00    +0.026 C 
ENDBRANCH  30  32
BRANCH  30  36
ATOM     35  C   UNL     1      -1.313  -2.887  -0.669  0.00  0.00    +0.022 C 
ATOM     36  C   UNL     1      -1.806  -1.894   0.386  0.00  0.00    +0.082 C 
ENDBRANCH  30  36
ENDBRANCH  24  30
ENDBRANCH  20  27
ENDBRANCH   1  21
TORSDOF 7
