REMARK  Name = ZINC18198472
REMARK  6 active torsions:
REMARK  status: ('A' for Active; 'I' for Inactive)
REMARK    1  A    between atoms: C_1  and  O_2
REMARK    2  A    between atoms: O_2  and  C_3
REMARK    3  A    between atoms: C_6  and  C_11
REMARK    4  A    between atoms: C_8  and  O_9
REMARK    5  A    between atoms: O_9  and  C_10
REMARK    6  A    between atoms: C_16  and  C_24
REMARK                            x       y       z     vdW  Elec       q    Type
REMARK                         _______ _______ _______ _____ _____    ______ ____
ROOT
ATOM      1  C   UNL     1       2.353   1.392  -0.690  0.00  0.00    +0.032 C 
ATOM      2  C   UNL     1       2.491   0.053   0.037  0.00  0.00    +0.060 C 
ATOM      3  C   UNL     1       1.171  -0.680   0.002  0.00  0.00    +0.020 C 
ATOM      4  C   UNL     1       0.002  -0.004   0.002  0.00  0.00    +0.041 C 
ATOM      5  C   UNL     1      -1.336  -0.711  -0.003  0.00  0.00    +0.177 C 
ATOM      6  N   UNL     1      -1.156  -2.115  -0.345  0.00  0.00    -0.221 N 
ATOM      7  C   UNL     1       0.050  -2.735  -0.347  0.00  0.00    +0.218 A 
ATOM      8  N   UNL     1      -0.137  -3.980  -0.687  0.00  0.00    -0.201 NA
ATOM      9  C   UNL     1      -1.437  -4.192  -0.913  0.00  0.00    +0.247 A 
ATOM     10  N   UNL     1      -2.096  -3.076  -0.716  0.00  0.00    -0.156 NA
ATOM     11  N   UNL     1       1.213  -2.054  -0.026  0.00  0.00    -0.287 N 
ATOM     12  C   UNL     1      -0.017   1.402   0.010  0.00  0.00    +0.164 C 
ATOM     13  O   UNL     1      -1.085   1.982   0.018  0.00  0.00    -0.292 OA
ATOM     14  C   UNL     1       1.254   2.205   0.002  0.00  0.00    +0.088 C 
ATOM     15  H   UNL     1       2.033  -2.532   0.173  0.00  0.00    +0.155 HD
ENDROOT
BRANCH   5  16
ATOM     16  C   UNL     1      -1.962  -0.605   1.364  0.00  0.00    -0.000 A 
ATOM     17  C   UNL     1      -1.312  -1.134   2.464  0.00  0.00    +0.009 A 
ATOM     18  C   UNL     1      -1.883  -1.032   3.719  0.00  0.00    +0.020 A 
ATOM     19  C   UNL     1      -3.110  -0.412   3.873  0.00  0.00    +0.042 A 
ATOM     20  C   UNL     1      -3.763   0.112   2.772  0.00  0.00    +0.040 A 
ATOM     21  C   UNL     1      -3.188   0.016   1.517  0.00  0.00    +0.048 A 
ATOM     22 CL   UNL     1      -4.007   0.674   0.135  0.00  0.00    -0.083 Cl
ATOM     23 CL   UNL     1      -3.830  -0.290   5.448  0.00  0.00    -0.083 Cl
ENDBRANCH   5  16
BRANCH   1  27
ATOM     24  C   UNL     1       6.057   3.521  -0.496  0.00  0.00    +0.161 A 
ATOM     25  C   UNL     1       5.393   3.173   0.669  0.00  0.00    +0.049 A 
ATOM     26  C   UNL     1       4.193   2.490   0.603  0.00  0.00    +0.008 A 
ATOM     27  C   UNL     1       3.659   2.142  -0.624  0.00  0.00    -0.040 A 
ATOM     28  C   UNL     1       4.316   2.487  -1.790  0.00  0.00    +0.053 A 
ATOM     29  C   UNL     1       5.516   3.176  -1.731  0.00  0.00    +0.162 A 
BRANCH  24  31
ATOM     30  C   UNL     1       7.730   4.518   0.869  0.00  0.00    +0.277 C 
ATOM     31  O   UNL     1       7.235   4.198  -0.433  0.00  0.00    -0.491 OA
ENDBRANCH  24  31
BRANCH  29  32
ATOM     32  O   UNL     1       6.165   3.515  -2.877  0.00  0.00    -0.491 OA
ATOM     33  C   UNL     1       5.551   3.129  -4.108  0.00  0.00    +0.277 C 
ENDBRANCH  29  32
ENDBRANCH   1  27
TORSDOF 4
