REMARK  Name = ZINC23968689
REMARK  9 active torsions:
REMARK  status: ('A' for Active; 'I' for Inactive)
REMARK    1  A    between atoms: C_1  and  C_2
REMARK    2  A    between atoms: C_2  and  C_4
REMARK    3  A    between atoms: C_2  and  N_32
REMARK    4  A    between atoms: C_7  and  S_16
REMARK    5  A    between atoms: N_8  and  C_9
REMARK    6  A    between atoms: S_16  and  C_17
REMARK    7  A    between atoms: C_17  and  C_18
REMARK    8  A    between atoms: N_32  and  C_33
REMARK    9  A    between atoms: N_32  and  C_34
REMARK                            x       y       z     vdW  Elec       q    Type
REMARK                         _______ _______ _______ _____ _____    ______ ____
ROOT
ATOM      1  C   UNL     1       0.078  -4.520   1.653  0.00  0.00    +0.125 A 
ATOM      2  N   UNL     1       0.062  -4.219   0.385  0.00  0.00    -0.135 NA
ATOM      3  N   UNL     1       0.038  -2.943   0.233  0.00  0.00    -0.122 NA
ATOM      4  C   UNL     1       0.047  -2.353   1.406  0.00  0.00    +0.196 A 
ATOM      5  N   UNL     1       0.070  -3.341   2.351  0.00  0.00    -0.275 N 
ENDROOT
BRANCH   5   6
ATOM      6  C   UNL     1       0.081  -3.181   3.745  0.00  0.00    +0.050 A 
ATOM      7  C   UNL     1       1.180  -3.598   4.483  0.00  0.00    +0.029 A 
ATOM      8  C   UNL     1       1.192  -3.434   5.854  0.00  0.00    +0.040 A 
ATOM      9  C   UNL     1       0.103  -2.866   6.494  0.00  0.00    +0.124 A 
ATOM     10  C   UNL     1      -0.996  -2.455   5.760  0.00  0.00    +0.040 A 
ATOM     11  C   UNL     1      -1.009  -2.612   4.388  0.00  0.00    +0.029 A 
ATOM     12  F   UNL     1       0.114  -2.712   7.837  0.00  0.00    -0.205 F 
ENDBRANCH   5   6
BRANCH   1  14
ATOM     13  C   UNL     1       1.502  -6.503   2.084  0.00  0.00    -0.005 C 
ATOM     14  C   UNL     1       0.102  -5.907   2.242  0.00  0.00    -0.003 C 
BRANCH  14  15
ATOM     15  N   UNL     1      -0.873  -6.753   1.542  0.00  0.00    +0.382 N 
ATOM     16  C   UNL     1      -0.877  -8.116   2.090  0.00  0.00    -0.096 C 
ATOM     17  C   UNL     1      -2.216  -6.161   1.592  0.00  0.00    -0.096 C 
ATOM     18  H   UNL     1      -0.570  -6.815   0.486  0.00  0.00    -0.082 HD
ENDBRANCH  14  15
ENDBRANCH   1  14
BRANCH   4  19
ATOM     19  S   UNL     1       0.026  -0.617   1.705  0.00  0.00    -0.078 S 
BRANCH  19  20
ATOM     20  C   UNL     1       0.002  -0.004   0.002  0.00  0.00    +0.151 C 
BRANCH  20  21
ATOM     21  C   UNL     1      -0.018   1.503   0.010  0.00  0.00    +0.122 A 
ATOM     22  N   UNL     1      -1.206   2.141   0.019  0.00  0.00    -0.337 N 
ATOM     23  H   UNL     1      -2.142   1.562   0.016  0.00  0.00    +0.168 HD
ATOM     24  C   UNL     1      -1.254   3.498   0.033  0.00  0.00    +0.092 A 
ATOM     25  C   UNL     1      -0.088   4.263   0.026  0.00  0.00    +0.075 A 
ATOM     26  C   UNL     1      -0.269   5.723   0.035  0.00  0.00    -0.023 A 
ATOM     27  C   UNL     1      -1.534   6.176   0.053  0.00  0.00    -0.004 A 
ATOM     28  S   UNL     1      -2.544   4.713   0.053  0.00  0.00    -0.075 S 
ATOM     29  C   UNL     1      -1.598   7.680   0.065  0.00  0.00    +0.043 C 
ATOM     30  C   UNL     1      -0.181   8.125   0.488  0.00  0.00    +0.010 C 
ATOM     31  C   UNL     1       0.674   6.929   0.027  0.00  0.00    +0.037 C 
ATOM     32  C   UNL     1       1.175   3.492   0.010  0.00  0.00    +0.282 A 
ATOM     33  O   UNL     1       2.253   4.064   0.002  0.00  0.00    -0.265 OA
ATOM     34  N   UNL     1       1.113   2.151   0.003  0.00  0.00    -0.195 NA
ENDBRANCH  20  21
ENDBRANCH  19  20
ENDBRANCH   4  19
TORSDOF 6
