REMARK  Name = ZINC36605687
REMARK  15 active torsions:
REMARK  status: ('A' for Active; 'I' for Inactive)
REMARK    1  A    between atoms: C_1  and  C_2
REMARK    2  A    between atoms: C_4  and  C_15
REMARK    3  A    between atoms: C_12  and  C_13
REMARK    4  A    between atoms: C_12  and  C_14
REMARK    5  A    between atoms: N_17  and  C_18
REMARK    6  A    between atoms: N_17  and  C_24
REMARK    7  A    between atoms: C_24  and  C_26
REMARK    8  A    between atoms: C_24  and  C_35
REMARK    9  A    between atoms: C_27  and  O_34
REMARK   10  A    between atoms: C_29  and  O_33
REMARK   11  A    between atoms: C_31  and  O_32
REMARK   12  A    between atoms: N_37  and  C_38
REMARK   13  A    between atoms: C_38  and  C_39
REMARK   14  A    between atoms: C_38  and  C_40
REMARK   15  A    between atoms: C_38  and  C_41
REMARK                            x       y       z     vdW  Elec       q    Type
REMARK                         _______ _______ _______ _____ _____    ______ ____
ROOT
ATOM      1  C   UNL     1      -1.411  -2.401  -4.056  0.00  0.00    +0.204 C 
ENDROOT
BRANCH   1   2
ATOM      2  C   UNL     1      -2.700  -3.158  -3.872  0.00  0.00    +0.065 A 
ATOM      3  C   UNL     1      -2.707  -4.543  -3.933  0.00  0.00    +0.129 A 
ATOM      4  C   UNL     1      -3.894  -5.240  -3.764  0.00  0.00    +0.091 A 
ATOM      5  C   UNL     1      -5.074  -4.551  -3.531  0.00  0.00    +0.124 A 
ATOM      6  C   UNL     1      -5.068  -3.166  -3.468  0.00  0.00    +0.091 A 
ATOM      7  C   UNL     1      -3.881  -2.469  -3.634  0.00  0.00    +0.129 A 
BRANCH   7   8
ATOM      8  O   UNL     1      -3.873  -1.112  -3.568  0.00  0.00    -0.506 OA
ATOM      9  H   UNL     1      -4.021  -0.676  -4.418  0.00  0.00    +0.292 HD
ENDBRANCH   7   8
BRANCH   5  10
ATOM     10  O   UNL     1      -6.238  -5.233  -3.365  0.00  0.00    -0.507 OA
ATOM     11  H   UNL     1      -6.427  -5.471  -2.447  0.00  0.00    +0.292 HD
ENDBRANCH   5  10
BRANCH   3  12
ATOM     12  O   UNL     1      -1.549  -5.218  -4.161  0.00  0.00    -0.506 OA
ATOM     13  H   UNL     1      -1.113  -5.534  -3.358  0.00  0.00    +0.292 HD
ENDBRANCH   3  12
ENDBRANCH   1   2
BRANCH   1  14
ATOM     14  C   UNL     1      -0.989  -2.471  -5.502  0.00  0.00    +0.239 C 
ATOM     15  O   UNL     1       0.187  -2.429  -5.793  0.00  0.00    -0.273 OA
ATOM     16  N   UNL     1      -1.920  -2.582  -6.470  0.00  0.00    -0.309 N 
ATOM     17  H   UNL     1      -2.861  -2.616  -6.237  0.00  0.00    +0.149 HD
BRANCH  16  18
ATOM     18  C   UNL     1      -1.511  -2.650  -7.875  0.00  0.00    +0.026 C 
ATOM     19  C   UNL     1      -0.612  -3.870  -8.086  0.00  0.00    +0.031 C 
ATOM     20  C   UNL     1      -2.751  -2.772  -8.762  0.00  0.00    +0.031 C 
ATOM     21  C   UNL     1      -0.742  -1.380  -8.245  0.00  0.00    +0.031 C 
ENDBRANCH  16  18
ENDBRANCH   1  14
BRANCH   1  24
ATOM     22  C   UNL     1      -0.656  -3.369  -1.951  0.00  0.00    +0.224 C 
ATOM     23  O   UNL     1      -1.791  -3.279  -1.535  0.00  0.00    -0.275 OA
ATOM     24  N   UNL     1      -0.370  -2.997  -3.215  0.00  0.00    -0.255 N 
BRANCH  22  27
ATOM     25  C   UNL     1       1.064  -3.009   1.225  0.00  0.00    +0.008 C 
ATOM     26  C   UNL     1       0.036  -3.787   0.410  0.00  0.00    +0.001 C 
ATOM     27  C   UNL     1       0.436  -3.896  -1.055  0.00  0.00    +0.079 C 
ATOM     28  C   UNL     1       0.834  -5.310  -1.463  0.00  0.00    +0.017 C 
ATOM     29  C   UNL     1       0.186  -6.371  -0.571  0.00  0.00    -0.004 C 
ATOM     30  C   UNL     1      -1.172  -5.945   0.007  0.00  0.00    +0.008 C 
ATOM     31  C   UNL     1      -0.320  -5.137   1.021  0.00  0.00    -0.001 C 
ATOM     32  C   UNL     1       0.695  -6.269   0.881  0.00  0.00    -0.029 C 
ATOM     33  C   UNL     1       2.172  -5.914   1.015  0.00  0.00    +0.011 C 
ATOM     34  C   UNL     1       0.350  -7.512   1.723  0.00  0.00    +0.011 C 
ENDBRANCH  22  27
BRANCH  24  35
ATOM     35  C   UNL     1       0.921  -3.180  -3.723  0.00  0.00    +0.037 A 
ATOM     36  C   UNL     1       1.911  -2.243  -3.462  0.00  0.00    +0.023 A 
ATOM     37  C   UNL     1       3.184  -2.426  -3.965  0.00  0.00    +0.002 A 
ATOM     38  C   UNL     1       3.473  -3.543  -4.728  0.00  0.00    +0.000 A 
ATOM     39  C   UNL     1       2.489  -4.478  -4.990  0.00  0.00    +0.002 A 
ATOM     40  C   UNL     1       1.216  -4.303  -4.485  0.00  0.00    +0.023 A 
ENDBRANCH  24  35
ENDBRANCH   1  24
TORSDOF 9
