REMARK  Name = ZINC04575626
REMARK  5 active torsions:
REMARK  status: ('A' for Active; 'I' for Inactive)
REMARK    1  A    between atoms: C_1  and  C_2
REMARK    2  A    between atoms: C_8  and  N_10
REMARK    3  A    between atoms: C_11  and  C_13
REMARK    4  A    between atoms: C_13  and  O_31
REMARK    5  A    between atoms: N_23  and  C_24
REMARK                            x       y       z     vdW  Elec       q    Type
REMARK                         _______ _______ _______ _____ _____    ______ ____
ROOT
ATOM      1  C   UNL     1       1.295  -0.701  -0.100  0.00  0.00    +0.247 C 
ATOM      2  C   UNL     1       2.538   0.159  -0.101  0.00  0.00    +0.033 A 
ATOM      3  C   UNL     1       3.793  -0.397  -0.192  0.00  0.00    +0.010 A 
ATOM      4  C   UNL     1       4.909   0.423  -0.189  0.00  0.00    +0.001 A 
ATOM      5  C   UNL     1       4.760   1.795  -0.096  0.00  0.00    +0.002 A 
ATOM      6  C   UNL     1       3.501   2.355  -0.004  0.00  0.00    +0.024 A 
ATOM      7  C   UNL     1       2.378   1.538  -0.006  0.00  0.00    +0.043 A 
ATOM      8  N   UNL     1       1.098   2.084   0.086  0.00  0.00    -0.269 N 
ATOM      9  C   UNL     1      -0.014   1.338   0.088  0.00  0.00    +0.314 C 
ATOM     10  O   UNL     1      -1.089   1.901   0.167  0.00  0.00    -0.252 OA
ATOM     11  N   UNL     1       0.002  -0.004   0.002  0.00  0.00    -0.214 N 
ATOM     12  H   UNL     1       1.010   3.048   0.151  0.00  0.00    +0.156 HD
ENDROOT
BRANCH  11  13
ATOM     13  C   UNL     1      -1.195  -0.729   0.009  0.00  0.00    +0.041 A 
ATOM     14  C   UNL     1      -1.540  -1.514  -1.084  0.00  0.00    +0.025 A 
ATOM     15  C   UNL     1      -2.720  -2.232  -1.072  0.00  0.00    +0.022 A 
ATOM     16  C   UNL     1      -3.563  -2.162   0.023  0.00  0.00    +0.041 A 
ATOM     17  C   UNL     1      -3.224  -1.377   1.111  0.00  0.00    +0.022 A 
ATOM     18  C   UNL     1      -2.043  -0.661   1.107  0.00  0.00    +0.025 A 
ATOM     19 CL   UNL     1      -5.048  -3.061   0.031  0.00  0.00    -0.084 Cl
ENDBRANCH  11  13
BRANCH   1  21
ATOM     20  N   UNL     1       1.249  -1.218   2.319  0.00  0.00    -0.308 N 
ATOM     21  C   UNL     1       1.397  -1.663   1.055  0.00  0.00    +0.269 C 
ATOM     22  O   UNL     1       1.613  -2.839   0.849  0.00  0.00    -0.270 OA
ATOM     23  H   UNL     1       1.076  -0.278   2.484  0.00  0.00    +0.149 HD
BRANCH  20  30
ATOM     24  C   UNL     1      -0.904  -1.427   4.245  0.00  0.00    +0.009 C 
ATOM     25  C   UNL     1       0.565  -1.601   4.635  0.00  0.00    +0.006 C 
ATOM     26  C   UNL     1       0.669  -2.578   5.808  0.00  0.00    +0.005 C 
ATOM     27  C   UNL     1       2.138  -2.753   6.199  0.00  0.00    +0.000 C 
ATOM     28  C   UNL     1       2.920  -3.304   5.005  0.00  0.00    +0.002 C 
ATOM     29  C   UNL     1       2.817  -2.328   3.832  0.00  0.00    +0.022 C 
ATOM     30  C   UNL     1       1.348  -2.153   3.442  0.00  0.00    +0.076 C 
ENDBRANCH  20  30
ENDBRANCH   1  21
BRANCH   1  31
ATOM     31  O   UNL     1       1.289  -1.467  -1.307  0.00  0.00    -0.360 OA
ATOM     32  H   UNL     1       2.104  -1.964  -1.461  0.00  0.00    +0.213 HD
ENDBRANCH   1  31
TORSDOF 4
