REMARK  Name = ZINC33887347
REMARK  11 active torsions:
REMARK  status: ('A' for Active; 'I' for Inactive)
REMARK    1  A    between atoms: C_1  and  C_2
REMARK    2  A    between atoms: C_2  and  C_3
REMARK    3  A    between atoms: C_3  and  C_4
REMARK    4  A    between atoms: C_4  and  C_5
REMARK    5  A    between atoms: C_5  and  C_7
REMARK    6  A    between atoms: C_5  and  N_27
REMARK    7  A    between atoms: C_9  and  C_12
REMARK    8  A    between atoms: N_14  and  C_15
REMARK    9  A    between atoms: C_15  and  C_16
REMARK   10  A    between atoms: C_16  and  N_17
REMARK   11  A    between atoms: C_21  and  N_24
REMARK                            x       y       z     vdW  Elec       q    Type
REMARK                         _______ _______ _______ _____ _____    ______ ____
ROOT
ATOM      1  C   UNL     1       3.359  -7.104  -2.015  0.00  0.00    +0.266 C 
ATOM      2  O   UNL     1       2.987  -8.259  -2.085  0.00  0.00    -0.268 OA
ATOM      3  N   UNL     1       4.644  -6.827  -1.720  0.00  0.00    -0.309 N 
ATOM      4  H   UNL     1       4.941  -5.905  -1.665  0.00  0.00    +0.149 HD
ENDROOT
BRANCH   1   7
ATOM      5  C   UNL     1       1.584  -4.021  -2.473  0.00  0.00    +0.182 A 
ATOM      6  N   UNL     1       2.676  -4.674  -2.209  0.00  0.00    -0.210 NA
ATOM      7  C   UNL     1       2.404  -6.006  -2.253  0.00  0.00    +0.163 A 
ATOM      8  C   UNL     1       1.084  -6.135  -2.559  0.00  0.00    +0.230 A 
ATOM      9  O   UNL     1       0.589  -4.894  -2.687  0.00  0.00    -0.449 OA
BRANCH   5  10
ATOM     10  C   UNL     1       1.455  -2.521  -2.524  0.00  0.00    +0.013 C 
BRANCH  10  11
ATOM     11  N   UNL     1       0.680  -2.136  -3.711  0.00  0.00    +0.386 N 
ATOM     12  H   UNL     1      -0.238  -2.551  -3.662  0.00  0.00    -0.089 HD
ATOM     13  H   UNL     1       0.593  -1.131  -3.745  0.00  0.00    -0.089 HD
ATOM     14  H   UNL     1       1.152  -2.462  -4.541  0.00  0.00    -0.089 HD
ENDBRANCH  10  11
BRANCH  10  15
ATOM     15  C   UNL     1       0.739  -2.027  -1.265  0.00  0.00    -0.007 C 
BRANCH  15  16
ATOM     16  C   UNL     1       0.718  -0.497  -1.257  0.00  0.00    -0.001 C 
BRANCH  16  18
ATOM     17  C   UNL     1      -0.019   1.526   0.010  0.00  0.00    +0.004 C 
ATOM     18  C   UNL     1       0.002  -0.004   0.002  0.00  0.00    -0.003 C 
ENDBRANCH  16  18
ENDBRANCH  15  16
ENDBRANCH  10  15
ENDBRANCH   5  10
ENDBRANCH   1   7
BRANCH   3  19
ATOM     19  C   UNL     1       5.593  -7.917  -1.484  0.00  0.00    +0.123 C 
BRANCH  19  20
ATOM     20  C   UNL     1       6.973  -7.334  -1.171  0.00  0.00    +0.121 C 
BRANCH  20  21
ATOM     21  N   UNL     1       7.922  -8.425  -0.935  0.00  0.00    -0.328 N 
ATOM     22  C   UNL     1       9.248  -8.139  -0.631  0.00  0.00    +0.119 A 
ATOM     23  C   UNL     1       9.666  -6.814  -0.547  0.00  0.00    +0.046 A 
ATOM     24  C   UNL     1      10.988  -6.544  -0.243  0.00  0.00    +0.037 A 
ATOM     25  C   UNL     1      11.851  -7.611  -0.032  0.00  0.00    +0.144 A 
ATOM     26  C   UNL     1      11.368  -8.901  -0.131  0.00  0.00    +0.145 A 
ATOM     27  N   UNL     1      10.101  -9.129  -0.418  0.00  0.00    -0.238 NA
ATOM     28  H   UNL     1       7.625  -9.347  -0.991  0.00  0.00    +0.148 HD
BRANCH  25  29
ATOM     29  N   UNL     1      13.274  -7.369   0.295  0.00  0.00    +0.058 N 
ATOM     30  O   UNL     1      13.690  -6.237   0.380  0.00  0.00    -0.126 OA
ATOM     31  O   UNL     1      14.020  -8.302   0.477  0.00  0.00    -0.126 OA
ENDBRANCH  25  29
ENDBRANCH  20  21
ENDBRANCH  19  20
ENDBRANCH   3  19
TORSDOF 10
