REMARK  Name = ZINC13064796
REMARK  15 active torsions:
REMARK  status: ('A' for Active; 'I' for Inactive)
REMARK    1  A    between atoms: C_1  and  C_2
REMARK    2  A    between atoms: C_2  and  C_3
REMARK    3  A    between atoms: C_3  and  C_5
REMARK    4  A    between atoms: C_3  and  N_68
REMARK    5  A    between atoms: N_9  and  C_10
REMARK    6  A    between atoms: C_10  and  C_11
REMARK    7  A    between atoms: C_10  and  C_12
REMARK    8  A    between atoms: C_10  and  C_13
REMARK    9  A    between atoms: C_13  and  C_14
REMARK   10  A    between atoms: C_15  and  C_16
REMARK   11  A    between atoms: C_15  and  N_68
REMARK   12  A    between atoms: C_21  and  C_22
REMARK   13  A    between atoms: C_21  and  N_68
REMARK   14  A    between atoms: C_25  and  C_35
REMARK   15  A    between atoms: C_27  and  C_34
REMARK                            x       y       z     vdW  Elec       q    Type
REMARK                         _______ _______ _______ _____ _____    ______ ____
ROOT
ATOM      1  N   UNL     1      -1.810   1.656   1.355  0.00  0.00    +0.392 N 
ATOM      2  H   UNL     1      -2.157   2.176   2.169  0.00  0.00    -0.080 HD
ENDROOT
BRANCH   1   3
ATOM      3  C   UNL     1      -0.444   2.123   1.034  0.00  0.00    +0.003 C 
BRANCH   3   4
ATOM      4  C   UNL     1      -0.058   1.705  -0.361  0.00  0.00    +0.139 A 
ATOM      5  N   UNL     1      -0.796   1.803  -1.440  0.00  0.00    -0.115 NA
ATOM      6  N   UNL     1      -0.114   1.343  -2.432  0.00  0.00    -0.023 NA
ATOM      7  N   UNL     1       1.037   0.947  -2.012  0.00  0.00    -0.043 NA
ATOM      8  N   UNL     1       1.109   1.153  -0.741  0.00  0.00    -0.225 N 
BRANCH   8   9
ATOM      9  C   UNL     1       2.249   0.844   0.127  0.00  0.00    +0.061 C 
ATOM     10  C   UNL     1       2.644   2.095   0.915  0.00  0.00    +0.036 C 
ATOM     11  C   UNL     1       1.860  -0.271   1.101  0.00  0.00    +0.036 C 
BRANCH   9  12
ATOM     12  C   UNL     1       3.431   0.385  -0.728  0.00  0.00    +0.026 C 
ATOM     13  C   UNL     1       4.621   0.062   0.178  0.00  0.00    +0.006 C 
ENDBRANCH   9  12
ENDBRANCH   8   9
ENDBRANCH   3   4
BRANCH   3  15
ATOM     14  C   UNL     1      -0.752   4.071   2.568  0.00  0.00    +0.002 C 
ATOM     15  C   UNL     1      -0.410   3.649   1.138  0.00  0.00    -0.011 C 
ENDBRANCH   3  15
ENDBRANCH   1   3
BRANCH   1  16
ATOM     16  C   UNL     1      -1.788   0.214   1.678  0.00  0.00    -0.034 C 
BRANCH  16  17
ATOM     17  C   UNL     1      -1.326   0.046   3.102  0.00  0.00    -0.027 A 
ATOM     18  C   UNL     1      -2.066  -0.059   4.233  0.00  0.00    +0.009 A 
ATOM     19  C   UNL     1      -1.420  -0.209   5.446  0.00  0.00    +0.008 A 
ATOM     20  C   UNL     1      -0.065  -0.246   5.468  0.00  0.00    +0.045 A 
ATOM     21  S   UNL     1       0.338  -0.072   3.738  0.00  0.00    -0.103 S 
ENDBRANCH  16  17
ENDBRANCH   1  16
BRANCH   1  22
ATOM     22  C   UNL     1      -2.710   1.904   0.208  0.00  0.00    -0.036 C 
BRANCH  22  23
ATOM     23  C   UNL     1      -4.136   1.794   0.681  0.00  0.00    +0.001 A 
ATOM     24  C   UNL     1      -4.809   2.907   1.065  0.00  0.00    +0.017 A 
ATOM     25  C   UNL     1      -6.194   2.765   1.519  0.00  0.00    +0.002 A 
ATOM     26  C   UNL     1      -6.939   3.877   1.926  0.00  0.00    -0.041 A 
ATOM     27  C   UNL     1      -8.229   3.712   2.344  0.00  0.00    +0.007 A 
ATOM     28  C   UNL     1      -8.807   2.450   2.368  0.00  0.00    -0.048 A 
ATOM     29  C   UNL     1      -8.092   1.341   1.971  0.00  0.00    +0.029 A 
ATOM     30  C   UNL     1      -6.777   1.484   1.541  0.00  0.00    +0.050 A 
ATOM     31  N   UNL     1      -6.039   0.392   1.138  0.00  0.00    -0.322 N 
ATOM     32  H   UNL     1      -6.442  -0.490   1.154  0.00  0.00    +0.169 HD
ATOM     33  C   UNL     1      -4.770   0.533   0.717  0.00  0.00    +0.251 A 
ATOM     34  O   UNL     1      -4.148  -0.455   0.363  0.00  0.00    -0.268 OA
ATOM     35  C   UNL     1     -10.232   2.292   2.833  0.00  0.00    +0.044 C 
ATOM     36  C   UNL     1      -6.321   5.251   1.905  0.00  0.00    +0.044 C 
ENDBRANCH  22  23
ENDBRANCH   1  22
TORSDOF 9
