REMARK  Name = ZINC45871843
REMARK  8 active torsions:
REMARK  status: ('A' for Active; 'I' for Inactive)
REMARK    1  A    between atoms: C_1  and  C_2
REMARK    2  A    between atoms: C_5  and  C_35
REMARK    3  A    between atoms: N_8  and  C_10
REMARK    4  A    between atoms: C_10  and  C_11
REMARK    5  A    between atoms: C_17  and  C_19
REMARK    6  A    between atoms: C_19  and  N_20
REMARK    7  A    between atoms: C_23  and  C_27
REMARK    8  A    between atoms: C_23  and  C_28
REMARK                            x       y       z     vdW  Elec       q    Type
REMARK                         _______ _______ _______ _____ _____    ______ ____
ROOT
ATOM      1  C   UNL     1       2.971  -2.034   2.241  0.00  0.00    +0.034 A 
ATOM      2  C   UNL     1       3.439  -0.905   2.828  0.00  0.00    +0.070 A 
ATOM      3  S   UNL     1       5.146  -0.941   2.305  0.00  0.00    -0.060 S 
ATOM      4  C   UNL     1       5.085  -2.365   1.411  0.00  0.00    +0.165 A 
ATOM      5  N   UNL     1       3.833  -2.747   1.539  0.00  0.00    -0.231 NA
ATOM      6  N   UNL     1       6.111  -2.990   0.710  0.00  0.00    -0.263 N 
ATOM      7  C   UNL     1       7.344  -2.447   0.696  0.00  0.00    +0.237 C 
ATOM      8  O   UNL     1       7.560  -1.415   1.294  0.00  0.00    -0.274 OA
ATOM      9  H   UNL     1       5.938  -3.815   0.231  0.00  0.00    +0.157 HD
ENDROOT
BRANCH   1  10
ATOM     10  C   UNL     1       1.534  -2.461   2.390  0.00  0.00    -0.022 C 
BRANCH  10  16
ATOM     11  C   UNL     1      -0.019   1.526   0.010  0.00  0.00    +0.005 C 
ATOM     12  C   UNL     1       0.002  -0.004   0.002  0.00  0.00    -0.031 C 
ATOM     13  C   UNL     1      -1.434  -0.535   0.015  0.00  0.00    +0.003 C 
ATOM     14  C   UNL     1      -1.402  -2.064   0.086  0.00  0.00    -0.031 C 
ATOM     15  C   UNL     1      -0.613  -2.496   1.324  0.00  0.00    -0.075 C 
ATOM     16  N   UNL     1       0.758  -1.980   1.239  0.00  0.00    +0.384 N 
ATOM     17  C   UNL     1       0.740  -0.512   1.242  0.00  0.00    -0.075 C 
ATOM     18  C   UNL     1      -0.728  -2.620  -1.170  0.00  0.00    +0.005 C 
ATOM     19  H   UNL     1       1.188  -2.307   0.386  0.00  0.00    -0.081 HD
ENDBRANCH  10  16
ENDBRANCH   1  10
BRANCH   7  20
ATOM     20  C   UNL     1       8.456  -3.124  -0.064  0.00  0.00    +0.214 C 
BRANCH  20  21
ATOM     21  N   UNL     1       9.688  -2.344   0.076  0.00  0.00    -0.215 N 
ATOM     22  C   UNL     1      10.055  -1.353  -0.761  0.00  0.00    +0.251 C 
ATOM     23  O   UNL     1       9.451  -0.954  -1.734  0.00  0.00    -0.272 OA
ATOM     24  C   UNL     1      11.380  -0.840  -0.232  0.00  0.00    +0.135 C 
ATOM     25  N   UNL     1      11.629  -1.680   0.952  0.00  0.00    -0.281 N 
ATOM     26  C   UNL     1      10.585  -2.523   1.052  0.00  0.00    +0.310 C 
ATOM     27  O   UNL     1      10.471  -3.356   1.929  0.00  0.00    -0.252 OA
ATOM     28  C   UNL     1      12.486  -1.034  -1.272  0.00  0.00    +0.047 C 
ATOM     29  H   UNL     1      12.395  -1.633   1.545  0.00  0.00    +0.152 HD
BRANCH  24  30
ATOM     30  C   UNL     1      11.268   0.611   0.161  0.00  0.00    -0.015 A 
ATOM     31  C   UNL     1      10.373   1.437  -0.494  0.00  0.00    +0.009 A 
ATOM     32  C   UNL     1      10.270   2.767  -0.134  0.00  0.00    +0.039 A 
ATOM     33  C   UNL     1      11.062   3.272   0.883  0.00  0.00    +0.123 A 
ATOM     34  C   UNL     1      11.957   2.444   1.538  0.00  0.00    +0.039 A 
ATOM     35  C   UNL     1      12.056   1.113   1.180  0.00  0.00    +0.009 A 
ATOM     36  F   UNL     1      10.961   4.573   1.235  0.00  0.00    -0.205 F 
ENDBRANCH  24  30
ENDBRANCH  20  21
ENDBRANCH   7  20
TORSDOF 5
