REMARK  Name = ZINC02436033
REMARK  6 active torsions:
REMARK  status: ('A' for Active; 'I' for Inactive)
REMARK    1  A    between atoms: C_1  and  C_2
REMARK    2  A    between atoms: N_5  and  C_7
REMARK    3  A    between atoms: C_14  and  N_36
REMARK    4  A    between atoms: C_15  and  C_34
REMARK    5  A    between atoms: N_23  and  C_26
REMARK    6  A    between atoms: C_26  and  C_27
REMARK                            x       y       z     vdW  Elec       q    Type
REMARK                         _______ _______ _______ _____ _____    ______ ____
ROOT
ATOM      1  C   UNL     1       3.611   0.774  -0.028  0.00  0.00    +0.068 C 
ATOM      2  C   UNL     1       2.104   0.744  -0.013  0.00  0.00    +0.069 A 
ATOM      3  C   UNL     1       1.313  -0.397  -0.012  0.00  0.00    +0.062 A 
ATOM      4  C   UNL     1       0.002  -0.004   0.002  0.00  0.00    +0.230 A 
ATOM      5  N   UNL     1      -0.016   1.346   0.009  0.00  0.00    -0.200 N 
ATOM      6  N   UNL     1       1.315   1.792  -0.001  0.00  0.00    -0.168 NA
ATOM      7  O   UNL     1      -1.026  -0.888   0.006  0.00  0.00    -0.423 OA
ATOM      8  C   UNL     1      -0.750  -2.178  -0.274  0.00  0.00    +0.201 C 
ATOM      9  C   UNL     1       0.504  -2.689  -0.304  0.00  0.00    +0.110 C 
ATOM     10  C   UNL     1       1.716  -1.845  -0.021  0.00  0.00    +0.145 C 
ATOM     11  C   UNL     1       2.362  -2.238   1.268  0.00  0.00    -0.001 A 
ATOM     12  C   UNL     1       1.892  -2.238   2.564  0.00  0.00    +0.007 A 
ATOM     13  C   UNL     1       2.769  -2.672   3.553  0.00  0.00    +0.000 A 
ATOM     14  C   UNL     1       4.050  -3.083   3.247  0.00  0.00    +0.002 A 
ATOM     15  C   UNL     1       4.529  -3.086   1.947  0.00  0.00    +0.024 A 
ATOM     16  C   UNL     1       3.660  -2.653   0.945  0.00  0.00    +0.041 A 
ATOM     17  N   UNL     1       3.870  -2.553  -0.419  0.00  0.00    -0.265 N 
ATOM     18  C   UNL     1       2.781  -2.088  -1.067  0.00  0.00    +0.241 C 
ATOM     19  O   UNL     1       2.677  -1.900  -2.261  0.00  0.00    -0.274 OA
ENDROOT
BRANCH   5  20
ATOM     20  C   UNL     1      -1.159   2.157   0.019  0.00  0.00    +0.069 A 
ATOM     21  C   UNL     1      -2.298   1.763  -0.671  0.00  0.00    +0.028 A 
ATOM     22  C   UNL     1      -3.425   2.562  -0.655  0.00  0.00    +0.002 A 
ATOM     23  C   UNL     1      -3.416   3.758   0.040  0.00  0.00    +0.000 A 
ATOM     24  C   UNL     1      -2.282   4.156   0.723  0.00  0.00    +0.002 A 
ATOM     25  C   UNL     1      -1.154   3.359   0.715  0.00  0.00    +0.028 A 
ENDBRANCH   5  20
BRANCH   8  26
ATOM     26  N   UNL     1      -1.799  -3.022  -0.543  0.00  0.00    -0.328 N 
ATOM     27  H   UNL     1      -2.709  -2.684  -0.528  0.00  0.00    +0.145 HD
ATOM     28  H   UNL     1      -1.632  -3.955  -0.747  0.00  0.00    +0.145 HD
ENDBRANCH   8  26
BRANCH   9  29
ATOM     29  C   UNL     1       0.681  -4.075  -0.615  0.00  0.00    +0.102 C 
ATOM     30  N   UNL     1       0.821  -5.175  -0.862  0.00  0.00    -0.191 NA
ENDBRANCH   9  29
BRANCH  17  31
ATOM     31  C   UNL     1       5.127  -2.910  -1.082  0.00  0.00    +0.148 C 
BRANCH  31  32
ATOM     32  C   UNL     1       6.025  -1.701  -1.140  0.00  0.00    -0.030 A 
ATOM     33  C   UNL     1       5.968  -0.849  -2.227  0.00  0.00    +0.006 A 
ATOM     34  C   UNL     1       6.788   0.263  -2.278  0.00  0.00    +0.020 A 
ATOM     35  C   UNL     1       7.673   0.517  -1.246  0.00  0.00    +0.041 A 
ATOM     36  C   UNL     1       7.734  -0.339  -0.161  0.00  0.00    +0.020 A 
ATOM     37  C   UNL     1       6.910  -1.448  -0.108  0.00  0.00    +0.006 A 
ATOM     38 CL   UNL     1       8.709   1.909  -1.313  0.00  0.00    -0.084 Cl
ENDBRANCH  31  32
ENDBRANCH  17  31
TORSDOF 5
