REMARK  Name = ZINC33680746
REMARK  5 active torsions:
REMARK  status: ('A' for Active; 'I' for Inactive)
REMARK    1  A    between atoms: C_7  and  C_11
REMARK    2  A    between atoms: C_11  and  C_12
REMARK    3  A    between atoms: C_12  and  C_41
REMARK    4  A    between atoms: C_17  and  C_20
REMARK    5  A    between atoms: N_32  and  C_35
REMARK                            x       y       z     vdW  Elec       q    Type
REMARK                         _______ _______ _______ _____ _____    ______ ____
ROOT
ATOM      1  C   UNL     1      -1.329   1.940   0.019  0.00  0.00    +0.052 C 
ATOM      2  C   UNL     1      -2.413   1.113  -0.704  0.00  0.00    +0.086 C 
ATOM      3  C   UNL     1      -3.276   2.160  -1.458  0.00  0.00    +0.077 C 
ATOM      4  C   UNL     1      -2.631   3.521  -1.121  0.00  0.00    -0.027 C 
ATOM      5  N   UNL     1      -1.226   3.195  -0.767  0.00  0.00    +0.396 N 
ATOM      6  C   UNL     1      -3.022   1.837  -2.914  0.00  0.00    +0.225 C 
ATOM      7  O   UNL     1      -3.509   2.424  -3.857  0.00  0.00    -0.275 OA
ATOM      8  N   UNL     1      -2.177   0.803  -2.999  0.00  0.00    -0.239 N 
ATOM      9  C   UNL     1      -1.772   0.319  -1.819  0.00  0.00    +0.225 C 
ATOM     10  O   UNL     1      -1.010  -0.612  -1.668  0.00  0.00    -0.275 OA
ATOM     11  H   UNL     1      -0.764   3.979  -0.148  0.00  0.00    -0.083 HD
ATOM     12  H   UNL     1      -0.606   3.020  -1.659  0.00  0.00    -0.083 HD
ENDROOT
BRANCH   4  13
ATOM     13  C   UNL     1      -2.676   4.434  -2.319  0.00  0.00    -0.057 A 
ATOM     14  C   UNL     1      -1.742   4.294  -3.329  0.00  0.00    +0.006 A 
ATOM     15  C   UNL     1      -1.779   5.131  -4.428  0.00  0.00    +0.049 A 
ATOM     16  C   UNL     1      -2.755   6.113  -4.521  0.00  0.00    +0.162 A 
ATOM     17  C   UNL     1      -3.695   6.252  -3.507  0.00  0.00    +0.162 A 
ATOM     18  C   UNL     1      -3.654   5.407  -2.408  0.00  0.00    +0.051 A 
ATOM     19  O   UNL     1      -4.663   7.206  -3.581  0.00  0.00    -0.485 OA
ATOM     20  C   UNL     1      -4.448   8.270  -4.515  0.00  0.00    +0.270 C 
ATOM     21  C   UNL     1      -3.988   7.657  -5.844  0.00  0.00    +0.270 C 
ATOM     22  O   UNL     1      -2.776   6.932  -5.608  0.00  0.00    -0.485 OA
ENDBRANCH   4  13
BRANCH   8  23
ATOM     23  C   UNL     1      -1.733   0.246  -4.279  0.00  0.00    +0.084 C 
ATOM     24  C   UNL     1      -1.011   1.330  -5.083  0.00  0.00    +0.023 C 
ATOM     25  C   UNL     1      -0.546   0.748  -6.420  0.00  0.00    +0.002 C 
ATOM     26  C   UNL     1      -1.759   0.251  -7.208  0.00  0.00    +0.000 C 
ATOM     27  C   UNL     1      -2.481  -0.832  -6.404  0.00  0.00    +0.002 C 
ATOM     28  C   UNL     1      -2.946  -0.251  -5.068  0.00  0.00    +0.023 C 
ENDBRANCH   8  23
BRANCH   1  29
ATOM     29  C   UNL     1      -0.014   1.204   0.009  0.00  0.00    +0.347 C 
ATOM     30  O   UNL     1       0.283   0.486   0.933  0.00  0.00    -0.248 OA
ATOM     31  O   UNL     1       0.824   1.342  -1.030  0.00  0.00    -0.248 OA
ENDBRANCH   1  29
BRANCH   1  32
ATOM     32  C   UNL     1      -1.759   2.242   1.456  0.00  0.00    +0.037 C 
BRANCH  32  39
ATOM     33  C   UNL     1      -1.305   6.907   1.450  0.00  0.00    +0.001 A 
ATOM     34  C   UNL     1      -0.214   7.346   2.188  0.00  0.00    +0.002 A 
ATOM     35  C   UNL     1       0.607   6.445   2.830  0.00  0.00    +0.026 A 
ATOM     36  C   UNL     1       0.343   5.082   2.739  0.00  0.00    +0.047 A 
ATOM     37  C   UNL     1      -0.764   4.643   1.990  0.00  0.00    +0.003 A 
ATOM     38  C   UNL     1      -1.583   5.574   1.347  0.00  0.00    +0.010 A 
ATOM     39  C   UNL     1      -0.766   3.182   2.090  0.00  0.00    -0.023 A 
ATOM     40  C   UNL     1       0.280   2.839   2.858  0.00  0.00    +0.087 A 
ATOM     41  N   UNL     1       0.957   3.961   3.251  0.00  0.00    -0.360 N 
ATOM     42  H   UNL     1       1.858   4.064   3.874  0.00  0.00    +0.165 HD
ENDBRANCH  32  39
ENDBRANCH   1  32
TORSDOF 5
