REMARK  Name = ZINC05424538
REMARK  4 active torsions:
REMARK  status: ('A' for Active; 'I' for Inactive)
REMARK    1  A    between atoms: C_1  and  C_2
REMARK    2  A    between atoms: C_2  and  C_30
REMARK    3  A    between atoms: C_6  and  C_20
REMARK    4  A    between atoms: N_11  and  N_16
REMARK                            x       y       z     vdW  Elec       q    Type
REMARK                         _______ _______ _______ _____ _____    ______ ____
ROOT
ATOM      1  C   UNL     1       0.046   1.114   2.501  0.00  0.00    +0.012 C 
ATOM      2  C   UNL     1      -0.681   1.637   1.261  0.00  0.00    -0.021 C 
ATOM      3  C   UNL     1       0.031   1.142   0.001  0.00  0.00    +0.081 C 
ATOM      4  C   UNL     1      -0.709   1.630  -1.223  0.00  0.00    +0.115 C 
ATOM      5  C   UNL     1      -2.043   1.805  -1.192  0.00  0.00    +0.045 C 
ATOM      6  C   UNL     1      -2.783   2.279  -2.420  0.00  0.00    +0.094 C 
ATOM      7  C   UNL     1      -1.938   2.080  -3.645  0.00  0.00    +0.068 A 
ATOM      8  C   UNL     1      -2.532   2.090  -4.928  0.00  0.00    +0.133 A 
ATOM      9  N   UNL     1      -3.829   2.271  -5.072  0.00  0.00    -0.383 N 
ATOM     10  N   UNL     1      -1.715   1.903  -6.027  0.00  0.00    -0.231 N 
ATOM     11  C   UNL     1      -0.384   1.716  -5.840  0.00  0.00    +0.224 A 
ATOM     12  N   UNL     1       0.144   1.709  -4.651  0.00  0.00    -0.201 NA
ATOM     13  C   UNL     1      -0.594   1.889  -3.540  0.00  0.00    +0.229 A 
ATOM     14  O   UNL     1       0.007   1.885  -2.333  0.00  0.00    -0.441 OA
ATOM     15  C   UNL     1      -2.788   1.554  -0.025  0.00  0.00    +0.164 C 
ATOM     16  O   UNL     1      -3.994   1.699  -0.044  0.00  0.00    -0.292 OA
ATOM     17  C   UNL     1      -2.119   1.108   1.247  0.00  0.00    +0.086 C 
ATOM     18  C   UNL     1      -0.696   3.167   1.276  0.00  0.00    +0.012 C 
ATOM     19  H   UNL     1      -4.275   2.276  -6.077  0.00  0.00    +0.157 HD
ATOM     20  H   UNL     1      -4.465   2.417  -4.187  0.00  0.00    +0.157 HD
ENDROOT
BRANCH  10  21
ATOM     21  N   UNL     1      -2.255   1.908  -7.319  0.00  0.00    -0.204 N 
ATOM     22  C   UNL     1      -1.623   1.257  -8.316  0.00  0.00    +0.315 C 
ATOM     23  O   UNL     1      -0.642   0.582  -8.075  0.00  0.00    -0.251 OA
ATOM     24  N   UNL     1      -2.080   1.355  -9.580  0.00  0.00    -0.312 N 
ATOM     25  H   UNL     1      -3.195   2.443  -7.521  0.00  0.00    +0.177 HD
ATOM     26  H   UNL     1      -1.564   0.823 -10.394  0.00  0.00    +0.147 HD
ATOM     27  H   UNL     1      -2.968   1.966  -9.799  0.00  0.00    +0.147 HD
ENDBRANCH  10  21
BRANCH   6  28
ATOM     28  C   UNL     1      -3.107   3.743  -2.273  0.00  0.00    -0.035 A 
ATOM     29  C   UNL     1      -2.088   4.663  -2.113  0.00  0.00    +0.007 A 
ATOM     30  C   UNL     1      -2.383   6.007  -1.984  0.00  0.00    +0.038 A 
ATOM     31  C   UNL     1      -3.701   6.430  -2.003  0.00  0.00    +0.123 A 
ATOM     32  C   UNL     1      -4.721   5.507  -2.158  0.00  0.00    +0.038 A 
ATOM     33  C   UNL     1      -4.423   4.165  -2.293  0.00  0.00    +0.007 A 
ATOM     34  F   UNL     1      -3.992   7.743  -1.871  0.00  0.00    -0.205 F 
ENDBRANCH   6  28
TORSDOF 2
