REMARK  Name = ZINC36703878
REMARK  6 active torsions:
REMARK  status: ('A' for Active; 'I' for Inactive)
REMARK    1  A    between atoms: C_1  and  C_2
REMARK    2  A    between atoms: C_7  and  C_9
REMARK    3  A    between atoms: C_7  and  C_10
REMARK    4  A    between atoms: N_13  and  C_17
REMARK    5  A    between atoms: C_17  and  C_18
REMARK    6  A    between atoms: N_20  and  C_21
REMARK                            x       y       z     vdW  Elec       q    Type
REMARK                         _______ _______ _______ _____ _____    ______ ____
ROOT
ATOM      1  C   UNL     1       0.495   1.140  -1.031  0.00  0.00    +0.007 C 
ATOM      2  C   UNL     1       0.480  -0.351  -0.689  0.00  0.00    -0.011 C 
ATOM      3  C   UNL     1      -0.953  -0.882  -0.780  0.00  0.00    +0.038 C 
ATOM      4  C   UNL     1      -0.972  -2.363  -0.419  0.00  0.00    +0.113 C 
ATOM      5  C   UNL     1      -0.428  -2.583   0.988  0.00  0.00    +0.041 C 
ATOM      6  C   UNL     1       1.004  -2.046   1.072  0.00  0.00    -0.032 C 
ATOM      7  C   UNL     1       1.009  -0.555   0.732  0.00  0.00    +0.009 C 
ATOM      8  C   UNL     1       1.542  -2.248   2.490  0.00  0.00    +0.011 C 
ATOM      9  C   UNL     1       1.890  -2.799   0.078  0.00  0.00    +0.011 C 
ATOM     10  C   UNL     1      -2.374  -2.917  -0.535  0.00  0.00    +0.247 C 
ATOM     11  O   UNL     1      -3.354  -2.570   0.088  0.00  0.00    -0.273 OA
ATOM     12  N   UNL     1      -2.304  -3.877  -1.480  0.00  0.00    -0.215 N 
ATOM     13  C   UNL     1      -1.064  -4.001  -1.968  0.00  0.00    +0.310 C 
ATOM     14  O   UNL     1      -0.753  -4.799  -2.829  0.00  0.00    -0.252 OA
ATOM     15  N   UNL     1      -0.200  -3.140  -1.397  0.00  0.00    -0.285 N 
ATOM     16  H   UNL     1       0.747  -3.051  -1.592  0.00  0.00    +0.151 HD
ENDROOT
BRANCH  12  17
ATOM     17  C   UNL     1      -3.445  -4.685  -1.918  0.00  0.00    +0.214 C 
BRANCH  17  18
ATOM     18  C   UNL     1      -4.135  -3.999  -3.069  0.00  0.00    +0.235 C 
ATOM     19  O   UNL     1      -3.714  -2.940  -3.483  0.00  0.00    -0.274 OA
ATOM     20  N   UNL     1      -5.218  -4.563  -3.639  0.00  0.00    -0.283 N 
ATOM     21  H   UNL     1      -5.598  -5.372  -3.262  0.00  0.00    +0.155 HD
BRANCH  20  22
ATOM     22  C   UNL     1      -5.795  -3.981  -4.774  0.00  0.00    +0.052 A 
ATOM     23  C   UNL     1      -4.998  -3.317  -5.696  0.00  0.00    +0.026 A 
ATOM     24  C   UNL     1      -5.570  -2.744  -6.815  0.00  0.00    +0.022 A 
ATOM     25  C   UNL     1      -6.936  -2.830  -7.018  0.00  0.00    +0.042 A 
ATOM     26  C   UNL     1      -7.734  -3.491  -6.101  0.00  0.00    +0.041 A 
ATOM     27  C   UNL     1      -7.166  -4.072  -4.982  0.00  0.00    +0.064 A 
ATOM     28 CL   UNL     1      -8.166  -4.908  -3.835  0.00  0.00    -0.082 Cl
ATOM     29 CL   UNL     1      -7.651  -2.107  -8.425  0.00  0.00    -0.083 Cl
ENDBRANCH  20  22
ENDBRANCH  17  18
ENDBRANCH  12  17
TORSDOF 3
