REMARK  Name = ZINC00930813
REMARK  9 active torsions:
REMARK  status: ('A' for Active; 'I' for Inactive)
REMARK    1  A    between atoms: C_1  and  C_2
REMARK    2  A    between atoms: C_5  and  C_8
REMARK    3  A    between atoms: C_8  and  C_10
REMARK    4  A    between atoms: C_8  and  N_19
REMARK    5  A    between atoms: N_12  and  C_13
REMARK    6  A    between atoms: N_19  and  C_20
REMARK    7  A    between atoms: C_23  and  N_26
REMARK    8  A    between atoms: C_27  and  C_29
REMARK    9  A    between atoms: C_30  and  C_32
REMARK                            x       y       z     vdW  Elec       q    Type
REMARK                         _______ _______ _______ _____ _____    ______ ____
ROOT
ATOM      1  N   UNL     1      -0.770  -4.764   1.069  0.00  0.00    -0.252 N 
ATOM      2  C   UNL     1      -1.835  -5.566   0.874  0.00  0.00    +0.265 C 
ATOM      3  O   UNL     1      -2.192  -5.837  -0.254  0.00  0.00    -0.271 OA
ENDROOT
BRANCH   2   4
ATOM      4  C   UNL     1      -2.585  -6.125   2.056  0.00  0.00    +0.296 C 
ATOM      5  C   UNL     1      -3.361  -5.001   2.755  0.00  0.00    +0.283 C 
ATOM      6  O   UNL     1      -4.071  -5.568   3.862  0.00  0.00    -0.484 OA
ATOM      7  C   UNL     1      -4.754  -6.722   3.624  0.00  0.00    +0.162 A 
ATOM      8  C   UNL     1      -5.736  -7.127   4.515  0.00  0.00    +0.049 A 
ATOM      9  C   UNL     1      -6.436  -8.297   4.289  0.00  0.00    +0.004 A 
ATOM     10  C   UNL     1      -6.159  -9.067   3.175  0.00  0.00    +0.004 A 
ATOM     11  C   UNL     1      -5.182  -8.668   2.282  0.00  0.00    +0.049 A 
ATOM     12  C   UNL     1      -4.477  -7.494   2.502  0.00  0.00    +0.163 A 
ATOM     13  O   UNL     1      -3.523  -7.110   1.610  0.00  0.00    -0.472 OA
ENDBRANCH   2   4
BRANCH   1  14
ATOM     14  C   UNL     1      -0.428  -4.356   2.365  0.00  0.00    +0.038 A 
ATOM     15  C   UNL     1      -0.609  -3.033   2.747  0.00  0.00    +0.025 A 
ATOM     16  C   UNL     1      -0.272  -2.631   4.024  0.00  0.00    +0.025 A 
ATOM     17  C   UNL     1       0.246  -3.550   4.927  0.00  0.00    +0.033 A 
ATOM     18  C   UNL     1       0.427  -4.873   4.545  0.00  0.00    +0.025 A 
ATOM     19  C   UNL     1       0.085  -5.276   3.270  0.00  0.00    +0.025 A 
BRANCH  17  20
ATOM     20  N   UNL     1       0.588  -3.142   6.222  0.00  0.00    -0.286 N 
ATOM     21  C   UNL     1       1.628  -3.718   6.858  0.00  0.00    +0.214 C 
ATOM     22  O   UNL     1       2.312  -4.537   6.282  0.00  0.00    -0.276 OA
ATOM     23  C   UNL     1       1.940  -3.343   8.284  0.00  0.00    +0.109 C 
ATOM     24  H   UNL     1       0.076  -2.445   6.662  0.00  0.00    +0.155 HD
ENDBRANCH  17  20
ENDBRANCH   1  14
BRANCH   1  25
ATOM     25  C   UNL     1       0.032  -4.320  -0.074  0.00  0.00    +0.197 C 
BRANCH  25  30
ATOM     26  C   UNL     1       3.965  -0.481   1.712  0.00  0.00    +0.044 C 
ATOM     27  C   UNL     1       2.939  -1.482   1.246  0.00  0.00    -0.050 A 
ATOM     28  C   UNL     1       2.030  -1.135   0.264  0.00  0.00    +0.004 A 
ATOM     29  C   UNL     1       1.090  -2.053  -0.163  0.00  0.00    +0.006 A 
ATOM     30  C   UNL     1       1.058  -3.319   0.392  0.00  0.00    -0.018 A 
ATOM     31  C   UNL     1       1.967  -3.667   1.373  0.00  0.00    +0.006 A 
ATOM     32  C   UNL     1       2.911  -2.750   1.797  0.00  0.00    +0.004 A 
ENDBRANCH  25  30
BRANCH  25  33
ATOM     33  C   UNL     1       0.730  -5.505  -0.689  0.00  0.00    +0.239 C 
ATOM     34  O   UNL     1       0.573  -6.612  -0.220  0.00  0.00    -0.273 OA
ATOM     35  N   UNL     1       1.528  -5.335  -1.762  0.00  0.00    -0.311 N 
ATOM     36  H   UNL     1       1.654  -4.450  -2.137  0.00  0.00    +0.149 HD
BRANCH  35  37
ATOM     37  C   UNL     1       2.206  -6.488  -2.360  0.00  0.00    +0.073 C 
ATOM     38  C   UNL     1       3.514  -6.755  -1.612  0.00  0.00    +0.022 C 
ATOM     39  C   UNL     1       4.223  -7.958  -2.237  0.00  0.00    +0.002 C 
ATOM     40  C   UNL     1       4.527  -7.664  -3.708  0.00  0.00    +0.000 C 
ATOM     41  C   UNL     1       3.219  -7.397  -4.455  0.00  0.00    +0.002 C 
ATOM     42  C   UNL     1       2.510  -6.193  -3.830  0.00  0.00    +0.022 C 
ENDBRANCH  35  37
ENDBRANCH  25  33
ENDBRANCH   1  25
TORSDOF 7
