REMARK  Name = ZINC39656179
REMARK  11 active torsions:
REMARK  status: ('A' for Active; 'I' for Inactive)
REMARK    1  A    between atoms: C_1  and  C_2
REMARK    2  A    between atoms: C_8  and  C_11
REMARK    3  A    between atoms: C_11  and  C_12
REMARK    4  A    between atoms: C_12  and  N_13
REMARK    5  A    between atoms: C_14  and  C_16
REMARK    6  A    between atoms: C_27  and  C_29
REMARK    7  A    between atoms: C_29  and  C_31
REMARK    8  A    between atoms: C_29  and  O_34
REMARK    9  A    between atoms: C_31  and  C_32
REMARK   10  A    between atoms: C_31  and  C_33
REMARK   11  A    between atoms: O_34  and  C_35
REMARK                            x       y       z     vdW  Elec       q    Type
REMARK                         _______ _______ _______ _____ _____    ______ ____
ROOT
ATOM      1  C   UNL     1       5.205  -0.317  -7.209  0.00  0.00    +0.100 C 
ATOM      2  C   UNL     1       5.108   0.704  -8.365  0.00  0.00    +0.121 C 
ATOM      3  N   UNL     1       5.542  -0.047  -9.566  0.00  0.00    -0.297 N 
ATOM      4  C   UNL     1       4.947  -1.394  -9.393  0.00  0.00    +0.115 C 
ATOM      5  C   UNL     1       5.098  -1.692  -7.888  0.00  0.00    -0.004 C 
ATOM      6  C   UNL     1       3.873  -2.442  -7.373  0.00  0.00    -0.010 C 
ATOM      7  C   UNL     1       3.820  -3.829  -8.018  0.00  0.00    -0.082 C 
ATOM      8  N   UNL     1       5.044  -4.570  -7.691  0.00  0.00    +0.379 N 
ATOM      9  C   UNL     1       6.210  -3.891  -8.270  0.00  0.00    -0.082 C 
ATOM     10  C   UNL     1       6.364  -2.506  -7.635  0.00  0.00    -0.010 C 
ATOM     11  C   UNL     1       6.305   0.394 -10.586  0.00  0.00    +0.257 C 
ATOM     12  O   UNL     1       6.494  -0.315 -11.552  0.00  0.00    -0.272 OA
ATOM     13  H   UNL     1       5.149  -4.619  -6.688  0.00  0.00    -0.086 HD
ATOM     14  H   UNL     1       4.981  -5.505  -8.065  0.00  0.00    -0.086 HD
ENDROOT
BRANCH   1  16
ATOM     15  N   UNL     1       4.178  -0.571  -4.973  0.00  0.00    -0.315 N 
ATOM     16  C   UNL     1       4.069  -0.120  -6.239  0.00  0.00    +0.218 C 
ATOM     17  O   UNL     1       3.057   0.444  -6.596  0.00  0.00    -0.275 OA
ATOM     18  H   UNL     1       4.988  -1.023  -4.687  0.00  0.00    +0.149 HD
BRANCH  15  19
ATOM     19  C   UNL     1       3.074  -0.381  -4.030  0.00  0.00    +0.109 C 
BRANCH  19  20
ATOM     20  C   UNL     1       3.452  -0.980  -2.674  0.00  0.00    +0.056 C 
BRANCH  20  28
ATOM     21  C   UNL     1      -0.912  -4.683  -2.438  0.00  0.00    +0.044 C 
ATOM     22  C   UNL     1      -0.452  -3.412  -1.772  0.00  0.00    -0.050 A 
ATOM     23  C   UNL     1      -1.225  -2.842  -0.770  0.00  0.00    +0.005 A 
ATOM     24  C   UNL     1      -0.824  -1.680  -0.148  0.00  0.00    +0.026 A 
ATOM     25  C   UNL     1       0.368  -1.070  -0.527  0.00  0.00    +0.047 A 
ATOM     26  N   UNL     1       1.025   0.066  -0.110  0.00  0.00    -0.360 N 
ATOM     27  C   UNL     1       2.184   0.220  -0.822  0.00  0.00    +0.087 A 
ATOM     28  C   UNL     1       2.317  -0.784  -1.703  0.00  0.00    -0.021 A 
ATOM     29  C   UNL     1       1.148  -1.652  -1.543  0.00  0.00    +0.003 A 
ATOM     30  C   UNL     1       0.724  -2.833  -2.155  0.00  0.00    +0.013 A 
ATOM     31  H   UNL     1       0.714   0.668   0.584  0.00  0.00    +0.165 HD
ENDBRANCH  20  28
ENDBRANCH  19  20
ENDBRANCH  15  19
ENDBRANCH   1  16
BRANCH  11  32
ATOM     32  C   UNL     1       6.923   1.766 -10.525  0.00  0.00    +0.261 C 
BRANCH  32  33
ATOM     33  C   UNL     1       8.282   1.683  -9.828  0.00  0.00    +0.033 C 
ATOM     34  C   UNL     1       8.970   3.049  -9.886  0.00  0.00    +0.011 C 
ATOM     35  C   UNL     1       8.082   1.276  -8.367  0.00  0.00    +0.011 C 
ENDBRANCH  32  33
BRANCH  32  36
ATOM     36  O   UNL     1       7.098   2.269 -11.851  0.00  0.00    -0.479 OA
BRANCH  36  37
ATOM     37  C   UNL     1       6.922   3.604 -12.034  0.00  0.00    +0.122 A 
ATOM     38  C   UNL     1       7.090   4.162 -13.293  0.00  0.00    +0.045 A 
ATOM     39  C   UNL     1       6.911   5.519 -13.476  0.00  0.00    +0.004 A 
ATOM     40  C   UNL     1       6.564   6.322 -12.405  0.00  0.00    +0.000 A 
ATOM     41  C   UNL     1       6.396   5.769 -11.149  0.00  0.00    +0.004 A 
ATOM     42  C   UNL     1       6.569   4.411 -10.962  0.00  0.00    +0.045 A 
ENDBRANCH  36  37
ENDBRANCH  32  36
ENDBRANCH  11  32
TORSDOF 8
