REMARK  Name = ZINC03841030
REMARK  12 active torsions:
REMARK  status: ('A' for Active; 'I' for Inactive)
REMARK    1  A    between atoms: C_1  and  C_2
REMARK    2  A    between atoms: C_2  and  C_3
REMARK    3  A    between atoms: C_3  and  C_4
REMARK    4  A    between atoms: C_4  and  N_5
REMARK    5  A    between atoms: C_14  and  C_36
REMARK    6  A    between atoms: C_15  and  C_17
REMARK    7  A    between atoms: C_17  and  C_18
REMARK    8  A    between atoms: N_20  and  C_21
REMARK    9  A    between atoms: C_29  and  O_35
REMARK   10  A    between atoms: C_31  and  C_32
REMARK   11  A    between atoms: C_31  and  C_33
REMARK   12  A    between atoms: C_33  and  O_34
REMARK                            x       y       z     vdW  Elec       q    Type
REMARK                         _______ _______ _______ _____ _____    ______ ____
ROOT
ATOM      1  N   UNL     1       3.666  -0.990  -4.030  0.00  0.00    -0.323 N 
ATOM      2  C   UNL     1       2.543  -1.338  -3.297  0.00  0.00    +0.159 A 
ATOM      3  N   UNL     1       2.183  -0.939  -2.094  0.00  0.00    -0.229 NA
ATOM      4  C   UNL     1       1.064  -1.367  -1.511  0.00  0.00    +0.058 A 
ATOM      5  C   UNL     1       0.314  -2.239  -2.230  0.00  0.00    +0.015 A 
ATOM      6  S   UNL     1       1.249  -2.416  -3.726  0.00  0.00    -0.057 S 
ATOM      7  C   UNL     1      -0.973  -2.873  -1.836  0.00  0.00    +0.049 C 
ATOM      8  C   UNL     1      -1.184  -2.682  -0.321  0.00  0.00    +0.011 C 
ATOM      9  C   UNL     1      -0.885  -1.225   0.042  0.00  0.00    -0.019 C 
ATOM     10  C   UNL     1       0.612  -0.934  -0.125  0.00  0.00    +0.054 C 
ATOM     11  C   UNL     1      -1.244  -0.963   1.508  0.00  0.00    +0.010 C 
ATOM     12  C   UNL     1      -2.716  -1.281   1.761  0.00  0.00    +0.032 C 
ATOM     13  C   UNL     1      -2.961  -2.761   1.452  0.00  0.00    +0.123 C 
ATOM     14  C   UNL     1      -2.650  -3.012  -0.022  0.00  0.00    +0.021 C 
ATOM     15  C   UNL     1      -2.914  -4.482  -0.352  0.00  0.00    +0.016 C 
ATOM     16  C   UNL     1      -1.693  -0.295  -0.865  0.00  0.00    +0.012 C 
ATOM     17  H   UNL     1       4.314  -0.369  -3.661  0.00  0.00    +0.148 HD
ENDROOT
BRANCH  13  18
ATOM     18  O   UNL     1      -4.327  -3.086   1.715  0.00  0.00    -0.391 OA
ATOM     19  H   UNL     1      -4.594  -2.950   2.634  0.00  0.00    +0.210 HD
ENDBRANCH  13  18
BRANCH   1  20
ATOM     20  C   UNL     1       3.876  -1.558  -5.364  0.00  0.00    +0.103 C 
BRANCH  20  21
ATOM     21  C   UNL     1       5.179  -1.014  -5.952  0.00  0.00    +0.018 C 
BRANCH  21  23
ATOM     22  C   UNL     1       6.701  -1.063  -7.933  0.00  0.00    +0.004 C 
ATOM     23  C   UNL     1       5.397  -1.607  -7.345  0.00  0.00    -0.002 C 
ENDBRANCH  21  23
ENDBRANCH  20  21
ENDBRANCH   1  20
BRANCH  10  24
ATOM     24  C   UNL     1       0.861   0.566   0.048  0.00  0.00    +0.106 C 
BRANCH  24  25
ATOM     25  C   UNL     1       2.345   0.828   0.074  0.00  0.00    +0.218 C 
ATOM     26  O   UNL     1       3.126  -0.093  -0.034  0.00  0.00    -0.275 OA
ATOM     27  N   UNL     1       2.804   2.087   0.218  0.00  0.00    -0.285 N 
ATOM     28  H   UNL     1       2.183   2.832   0.226  0.00  0.00    +0.155 HD
BRANCH  27  29
ATOM     29  C   UNL     1       4.177   2.320   0.356  0.00  0.00    +0.033 A 
ATOM     30  C   UNL     1       4.994   1.350   0.923  0.00  0.00    +0.023 A 
ATOM     31  C   UNL     1       6.349   1.581   1.052  0.00  0.00    +0.002 A 
ATOM     32  C   UNL     1       6.892   2.780   0.628  0.00  0.00    +0.000 A 
ATOM     33  C   UNL     1       6.080   3.750   0.068  0.00  0.00    +0.002 A 
ATOM     34  C   UNL     1       4.725   3.523  -0.069  0.00  0.00    +0.023 A 
ENDBRANCH  27  29
ENDBRANCH  24  25
ENDBRANCH  10  24
BRANCH  14  35
ATOM     35  C   UNL     1      -3.553  -2.132  -0.888  0.00  0.00    +0.165 C 
BRANCH  35  36
ATOM     36  O   UNL     1      -4.911  -2.554  -0.741  0.00  0.00    -0.394 OA
ATOM     37  H   UNL     1      -5.541  -2.039  -1.263  0.00  0.00    +0.209 HD
ENDBRANCH  35  36
ENDBRANCH  14  35
TORSDOF 9
