REMARK  Name = ZINC42954793
REMARK  9 active torsions:
REMARK  status: ('A' for Active; 'I' for Inactive)
REMARK    1  A    between atoms: C_1  and  C_2
REMARK    2  A    between atoms: C_2  and  C_4
REMARK    3  A    between atoms: C_2  and  N_9
REMARK    4  A    between atoms: N_9  and  C_10
REMARK    5  A    between atoms: N_9  and  C_11
REMARK    6  A    between atoms: C_11  and  C_13
REMARK    7  A    between atoms: C_11  and  C_20
REMARK    8  A    between atoms: C_20  and  C_22
REMARK    9  A    between atoms: C_20  and  N_23
REMARK                            x       y       z     vdW  Elec       q    Type
REMARK                         _______ _______ _______ _____ _____    ______ ____
ROOT
ATOM      1  C   UNL     1      -1.932   0.064  -1.532  0.00  0.00    +0.072 C 
ENDROOT
BRANCH   1   2
ATOM      2  C   UNL     1      -3.368  -0.032  -1.084  0.00  0.00    -0.032 A 
ATOM      3  C   UNL     1      -3.704   0.253   0.226  0.00  0.00    +0.006 A 
ATOM      4  C   UNL     1      -5.020   0.166   0.637  0.00  0.00    +0.015 A 
ATOM      5  C   UNL     1      -6.002  -0.208  -0.262  0.00  0.00    +0.018 A 
ATOM      6  C   UNL     1      -5.666  -0.494  -1.573  0.00  0.00    +0.015 A 
ATOM      7  C   UNL     1      -4.349  -0.401  -1.985  0.00  0.00    +0.006 A 
ATOM      8 BR   UNL     1      -7.804  -0.329   0.300  0.00  0.00    -0.050 Br
ENDBRANCH   1   2
BRANCH   1   9
ATOM      9  N   UNL     1      -1.046  -0.309  -0.421  0.00  0.00    -0.293 NA
ATOM     10  C   UNL     1      -0.696   0.865   0.390  0.00  0.00    +0.106 C 
BRANCH   9  12
ATOM     11  C   UNL     1       1.097  -1.278   0.260  0.00  0.00    +0.030 C 
ATOM     12  C   UNL     1       0.159  -0.988  -0.914  0.00  0.00    +0.091 C 
BRANCH  12  13
ATOM     13  C   UNL     1      -0.230  -2.283  -1.578  0.00  0.00    +0.007 A 
ATOM     14  C   UNL     1       0.198  -2.801  -2.755  0.00  0.00    +0.013 A 
ATOM     15  C   UNL     1      -0.300  -4.021  -3.172  0.00  0.00    +0.008 A 
ATOM     16  C   UNL     1      -1.203  -4.664  -2.390  0.00  0.00    +0.045 A 
ATOM     17  S   UNL     1      -1.367  -3.538  -1.014  0.00  0.00    -0.100 S 
ENDBRANCH  12  13
ENDBRANCH   9  12
ENDBRANCH   1   9
BRANCH   1  18
ATOM     18  C   UNL     1      -1.629   1.499  -1.966  0.00  0.00    -0.056 C 
ATOM     19  C   UNL     1      -0.220   1.565  -2.561  0.00  0.00    -0.012 C 
BRANCH  18  20
ATOM     20  N   UNL     1      -2.607   1.922  -2.977  0.00  0.00    +0.381 N 
ATOM     21  H   UNL     1      -3.536   1.879  -2.585  0.00  0.00    -0.090 HD
ATOM     22  H   UNL     1      -2.407   2.868  -3.264  0.00  0.00    -0.090 HD
ATOM     23  H   UNL     1      -2.550   1.309  -3.777  0.00  0.00    -0.090 HD
ENDBRANCH  18  20
ENDBRANCH   1  18
TORSDOF 6
