REMARK  Name = ZINC39560770
REMARK  8 active torsions:
REMARK  status: ('A' for Active; 'I' for Inactive)
REMARK    1  A    between atoms: C_1  and  O_2
REMARK    2  A    between atoms: O_2  and  C_3
REMARK    3  A    between atoms: C_3  and  C_5
REMARK    4  A    between atoms: C_20  and  C_35
REMARK    5  A    between atoms: C_23  and  N_26
REMARK    6  A    between atoms: N_26  and  C_27
REMARK    7  A    between atoms: C_27  and  C_28
REMARK    8  A    between atoms: C_28  and  C_29
REMARK                            x       y       z     vdW  Elec       q    Type
REMARK                         _______ _______ _______ _____ _____    ______ ____
ROOT
ATOM      1  C   UNL     1       0.679  -2.115   1.088  0.00  0.00    +0.172 C 
ATOM      2  C   UNL     1      -0.742  -2.677   1.245  0.00  0.00    +0.067 C 
ATOM      3  C   UNL     1      -1.218  -2.350   2.639  0.00  0.00    -0.017 C 
ATOM      4  C   UNL     1      -2.456  -2.375   3.154  0.00  0.00    -0.013 C 
ATOM      5  C   UNL     1      -3.775  -2.735   2.530  0.00  0.00    +0.064 C 
ATOM      6  C   UNL     1      -4.872  -2.599   3.547  0.00  0.00    -0.022 C 
ATOM      7  C   UNL     1      -4.697  -2.216   4.808  0.00  0.00    -0.002 C 
ATOM      8  C   UNL     1      -3.440  -1.885   5.356  0.00  0.00    +0.028 C 
ATOM      9  C   UNL     1      -2.329  -1.970   4.518  0.00  0.00    +0.068 C 
ATOM     10  N   UNL     1      -1.034  -1.723   4.758  0.00  0.00    -0.250 NA
ATOM     11  C   UNL     1      -0.342  -1.939   3.669  0.00  0.00    +0.063 C 
ATOM     12  C   UNL     1       1.145  -1.802   3.458  0.00  0.00    +0.106 C 
ATOM     13  N   UNL     1       1.503  -2.525   2.229  0.00  0.00    -0.274 NA
ATOM     14  C   UNL     1       2.936  -2.386   1.941  0.00  0.00    +0.087 C 
ATOM     15  C   UNL     1       3.745  -3.012   3.080  0.00  0.00    +0.008 C 
ATOM     16  C   UNL     1       3.396  -2.313   4.397  0.00  0.00    -0.068 C 
ATOM     17  C   UNL     1       1.893  -2.404   4.650  0.00  0.00    +0.009 C 
ENDROOT
BRANCH  14  18
ATOM     18  C   UNL     1       3.259  -3.090   0.648  0.00  0.00    -0.029 A 
ATOM     19  C   UNL     1       2.664  -4.303   0.354  0.00  0.00    +0.005 A 
ATOM     20  C   UNL     1       2.960  -4.949  -0.831  0.00  0.00    +0.002 A 
ATOM     21  C   UNL     1       3.851  -4.384  -1.723  0.00  0.00    +0.020 A 
ATOM     22  C   UNL     1       4.447  -3.170  -1.429  0.00  0.00    +0.041 A 
ATOM     23  C   UNL     1       4.146  -2.521  -0.245  0.00  0.00    +0.025 A 
ATOM     24 CL   UNL     1       5.567  -2.459  -2.549  0.00  0.00    -0.084 Cl
ENDBRANCH  14  18
BRANCH  16  25
ATOM     25  N   UNL     1       4.121  -2.955   5.501  0.00  0.00    +0.381 N 
ATOM     26  H   UNL     1       3.829  -2.549   6.377  0.00  0.00    -0.086 HD
ATOM     27  H   UNL     1       3.920  -3.944   5.505  0.00  0.00    -0.086 HD
BRANCH  25  28
ATOM     28  C   UNL     1       5.565  -2.751   5.323  0.00  0.00    -0.076 C 
BRANCH  28  29
ATOM     29  C   UNL     1       6.321  -3.421   6.473  0.00  0.00    +0.038 C 
BRANCH  29  30
ATOM     30  C   UNL     1       7.802  -3.211   6.290  0.00  0.00    +0.057 A 
ATOM     31  C   UNL     1       8.642  -2.670   7.194  0.00  0.00    +0.107 A 
ATOM     32  N   UNL     1       9.887  -2.668   6.626  0.00  0.00    -0.351 N 
ATOM     33  H   UNL     1      10.704  -2.341   7.032  0.00  0.00    +0.166 HD
ATOM     34  C   UNL     1       9.764  -3.208   5.394  0.00  0.00    +0.196 A 
ATOM     35  N   UNL     1       8.515  -3.534   5.202  0.00  0.00    -0.241 NA
ENDBRANCH  29  30
ENDBRANCH  28  29
ENDBRANCH  25  28
ENDBRANCH  16  25
BRANCH   1  36
ATOM     36  C   UNL     1       0.618  -0.611   1.029  0.00  0.00    +0.325 C 
ATOM     37  O   UNL     1       0.350   0.023   2.022  0.00  0.00    -0.249 OA
BRANCH  36  39
ATOM     38  C   UNL     1       0.787   1.452  -0.112  0.00  0.00    +0.280 C 
ATOM     39  O   UNL     1       0.862   0.025  -0.128  0.00  0.00    -0.467 OA
ENDBRANCH  36  39
ENDBRANCH   1  36
TORSDOF 7
