REMARK  Name = ZINC57548472
REMARK  8 active torsions:
REMARK  status: ('A' for Active; 'I' for Inactive)
REMARK    1  A    between atoms: C_1  and  C_2
REMARK    2  A    between atoms: C_4  and  C_10
REMARK    3  A    between atoms: C_6  and  C_9
REMARK    4  A    between atoms: C_7  and  O_8
REMARK    5  A    between atoms: C_11  and  C_12
REMARK    6  A    between atoms: C_11  and  C_14
REMARK    7  A    between atoms: N_16  and  C_17
REMARK    8  A    between atoms: C_18  and  C_26
REMARK                            x       y       z     vdW  Elec       q    Type
REMARK                         _______ _______ _______ _____ _____    ______ ____
ROOT
ATOM      1  C   UNL     1       0.169  -4.926  -1.197  0.00  0.00    +0.259 C 
ATOM      2  O   UNL     1      -0.017  -4.339  -0.147  0.00  0.00    -0.269 OA
ATOM      3  N   UNL     1       0.390  -6.255  -1.196  0.00  0.00    -0.275 N 
ATOM      4  H   UNL     1       0.538  -6.723  -2.033  0.00  0.00    +0.156 HD
ENDROOT
BRANCH   3   5
ATOM      5  C   UNL     1       0.406  -6.954   0.000  0.00  0.00    +0.085 A 
ATOM      6  C   UNL     1       0.622  -8.310   0.192  0.00  0.00    +0.068 A 
ATOM      7  C   UNL     1       0.587  -8.800   1.559  0.00  0.00    -0.023 A 
ATOM      8  C   UNL     1       0.344  -7.846   2.483  0.00  0.00    -0.004 A 
ATOM      9  S   UNL     1       0.177  -6.352   1.551  0.00  0.00    -0.077 S 
ATOM     10  C   UNL     1       0.246  -8.033   3.965  0.00  0.00    +0.043 C 
ATOM     11  C   UNL     1       0.089  -9.533   4.253  0.00  0.00    +0.005 C 
ATOM     12  C   UNL     1       1.142 -10.304   3.451  0.00  0.00    +0.005 C 
ATOM     13  C   UNL     1       0.802 -10.252   1.960  0.00  0.00    +0.037 C 
BRANCH   6  14
ATOM     14  C   UNL     1       0.873  -9.211  -0.937  0.00  0.00    +0.244 C 
ATOM     15  O   UNL     1       2.013  -9.408  -1.316  0.00  0.00    -0.270 OA
ATOM     16  N   UNL     1      -0.158  -9.821  -1.555  0.00  0.00    -0.325 N 
ATOM     17  H   UNL     1      -1.066  -9.663  -1.252  0.00  0.00    +0.145 HD
ATOM     18  H   UNL     1       0.009 -10.417  -2.301  0.00  0.00    +0.145 HD
ENDBRANCH   6  14
ENDBRANCH   3   5
BRANCH   1  20
ATOM     19  C   UNL     1       0.080  -2.808  -2.460  0.00  0.00    +0.032 C 
ATOM     20  C   UNL     1       0.152  -4.184  -2.466  0.00  0.00    +0.114 C 
BRANCH  19  24
ATOM     21  C   UNL     1       2.475  -2.134   1.845  0.00  0.00    +0.047 C 
ATOM     22  C   UNL     1       1.393  -1.745   0.871  0.00  0.00    -0.008 A 
ATOM     23  C   UNL     1       1.248  -2.435  -0.299  0.00  0.00    +0.015 A 
ATOM     24  C   UNL     1       0.240  -2.072  -1.204  0.00  0.00    -0.023 A 
ATOM     25  C   UNL     1      -0.614  -1.002  -0.900  0.00  0.00    +0.015 A 
ATOM     26  C   UNL     1      -0.460  -0.320   0.273  0.00  0.00    -0.008 A 
ATOM     27  C   UNL     1       0.539  -0.688   1.169  0.00  0.00    +0.123 A 
ATOM     28  C   UNL     1      -1.377   0.831   0.600  0.00  0.00    +0.047 C 
BRANCH  27  29
ATOM     29  O   UNL     1       0.684  -0.009   2.335  0.00  0.00    -0.506 OA
ATOM     30  H   UNL     1       1.283   0.748   2.277  0.00  0.00    +0.292 HD
ENDBRANCH  27  29
ENDBRANCH  19  24
BRANCH  20  31
ATOM     31  C   UNL     1       0.210  -4.891  -3.710  0.00  0.00    +0.104 C 
ATOM     32  N   UNL     1       0.257  -5.453  -4.697  0.00  0.00    -0.191 NA
ENDBRANCH  20  31
ENDBRANCH   1  20
TORSDOF 6
