REMARK  Name = ZINC39756233
REMARK  9 active torsions:
REMARK  status: ('A' for Active; 'I' for Inactive)
REMARK    1  A    between atoms: C_4  and  N_7
REMARK    2  A    between atoms: C_8  and  C_26
REMARK    3  A    between atoms: C_11  and  S_12
REMARK    4  A    between atoms: S_12  and  C_13
REMARK    5  A    between atoms: C_13  and  C_14
REMARK    6  A    between atoms: N_16  and  C_17
REMARK    7  A    between atoms: C_20  and  N_23
REMARK    8  A    between atoms: C_26  and  C_27
REMARK    9  A    between atoms: N_29  and  C_30
REMARK                            x       y       z     vdW  Elec       q    Type
REMARK                         _______ _______ _______ _____ _____    ______ ____
ROOT
ATOM      1  N   UNL     1       3.125  -0.333   0.040  0.00  0.00    -0.274 N 
ATOM      2  C   UNL     1       3.759  -1.151  -0.859  0.00  0.00    +0.147 A 
ATOM      3  N   UNL     1       4.924  -1.448  -0.358  0.00  0.00    -0.133 NA
ATOM      4  N   UNL     1       5.072  -0.880   0.786  0.00  0.00    -0.122 NA
ATOM      5  C   UNL     1       4.001  -0.178   1.079  0.00  0.00    +0.197 A 
ENDROOT
BRANCH   1   9
ATOM      6  C   UNL     1      -0.673   1.346  -0.326  0.00  0.00    +0.000 A 
ATOM      7  C   UNL     1       0.443   2.162  -0.308  0.00  0.00    +0.002 A 
ATOM      8  C   UNL     1       1.702   1.608  -0.187  0.00  0.00    +0.026 A 
ATOM      9  C   UNL     1       1.847   0.231  -0.083  0.00  0.00    +0.050 A 
ATOM     10  C   UNL     1       0.725  -0.585  -0.101  0.00  0.00    +0.026 A 
ATOM     11  C   UNL     1      -0.532  -0.026  -0.223  0.00  0.00    +0.002 A 
ENDBRANCH   1   9
BRANCH   5  12
ATOM     12  S   UNL     1       3.741   0.779   2.535  0.00  0.00    -0.076 S 
BRANCH  12  13
ATOM     13  C   UNL     1       5.271   0.558   3.484  0.00  0.00    +0.173 C 
BRANCH  13  14
ATOM     14  C   UNL     1       5.180   1.335   4.772  0.00  0.00    +0.227 C 
ATOM     15  O   UNL     1       4.181   1.975   5.025  0.00  0.00    -0.275 OA
ATOM     16  N   UNL     1       6.208   1.319   5.643  0.00  0.00    -0.285 N 
ATOM     17  H   UNL     1       6.979   0.755   5.473  0.00  0.00    +0.155 HD
BRANCH  16  18
ATOM     18  C   UNL     1       6.164   2.116   6.792  0.00  0.00    +0.034 A 
ATOM     19  C   UNL     1       7.326   2.702   7.278  0.00  0.00    +0.025 A 
ATOM     20  C   UNL     1       7.279   3.488   8.413  0.00  0.00    +0.034 A 
ATOM     21  C   UNL     1       6.077   3.691   9.065  0.00  0.00    +0.126 A 
ATOM     22  C   UNL     1       4.918   3.109   8.585  0.00  0.00    +0.034 A 
ATOM     23  C   UNL     1       4.958   2.327   7.447  0.00  0.00    +0.025 A 
BRANCH  21  24
ATOM     24  N   UNL     1       6.030   4.534  10.281  0.00  0.00    +0.056 N 
ATOM     25  O   UNL     1       7.042   5.044  10.703  0.00  0.00    -0.126 OA
ATOM     26  O   UNL     1       4.980   4.713  10.853  0.00  0.00    -0.126 OA
ENDBRANCH  21  24
ENDBRANCH  16  18
ENDBRANCH  13  14
ENDBRANCH  12  13
ENDBRANCH   5  12
BRANCH   2  27
ATOM     27  C   UNL     1       3.209  -1.620  -2.181  0.00  0.00    +0.172 C 
BRANCH  27  28
ATOM     28  C   UNL     1       3.589  -0.638  -3.260  0.00  0.00    +0.225 C 
ATOM     29  O   UNL     1       4.242   0.345  -2.982  0.00  0.00    -0.275 OA
ATOM     30  N   UNL     1       3.204  -0.854  -4.533  0.00  0.00    -0.285 N 
ATOM     31  H   UNL     1       2.620  -1.600  -4.744  0.00  0.00    +0.155 HD
BRANCH  30  32
ATOM     32  C   UNL     1       3.645  -0.001  -5.552  0.00  0.00    +0.034 A 
ATOM     33  C   UNL     1       2.820   0.276  -6.634  0.00  0.00    +0.026 A 
ATOM     34  C   UNL     1       3.257   1.117  -7.638  0.00  0.00    +0.040 A 
ATOM     35  C   UNL     1       4.519   1.684  -7.567  0.00  0.00    +0.124 A 
ATOM     36  C   UNL     1       5.344   1.409  -6.489  0.00  0.00    +0.040 A 
ATOM     37  C   UNL     1       4.907   0.573  -5.480  0.00  0.00    +0.026 A 
ATOM     38  F   UNL     1       4.945   2.506  -8.550  0.00  0.00    -0.205 F 
ENDBRANCH  30  32
ENDBRANCH  27  28
ENDBRANCH   2  27
TORSDOF 9
