REMARK  Name = ZINC00752571
REMARK  7 active torsions:
REMARK  status: ('A' for Active; 'I' for Inactive)
REMARK    1  A    between atoms: C_1  and  C_2
REMARK    2  A    between atoms: C_4  and  C_10
REMARK    3  A    between atoms: C_7  and  O_8
REMARK    4  A    between atoms: O_8  and  C_9
REMARK    5  A    between atoms: C_12  and  C_30
REMARK    6  A    between atoms: C_13  and  N_29
REMARK    7  A    between atoms: C_20  and  C_23
REMARK                            x       y       z     vdW  Elec       q    Type
REMARK                         _______ _______ _______ _____ _____    ______ ____
ROOT
ATOM      1  C   UNL     1      -2.513   0.977   0.019  0.00  0.00    +0.101 C 
ATOM      2  C   UNL     1      -3.308   1.332  -1.206  0.00  0.00    +0.098 C 
ATOM      3  C   UNL     1      -4.349   2.191  -1.125  0.00  0.00    +0.198 C 
ATOM      4  O   UNL     1      -4.700   2.755   0.041  0.00  0.00    -0.445 OA
ATOM      5  C   UNL     1      -4.333   2.180   1.202  0.00  0.00    +0.115 C 
ATOM      6  C   UNL     1      -3.300   1.320   1.261  0.00  0.00    +0.046 C 
ATOM      7  C   UNL     1      -2.920   0.714   2.474  0.00  0.00    +0.164 C 
ATOM      8  O   UNL     1      -1.972  -0.044   2.491  0.00  0.00    -0.292 OA
ATOM      9  C   UNL     1      -3.669   0.989   3.750  0.00  0.00    +0.088 C 
ATOM     10  C   UNL     1      -5.120   1.343   3.406  0.00  0.00    +0.034 C 
ATOM     11  C   UNL     1      -5.114   2.534   2.446  0.00  0.00    +0.083 C 
ENDROOT
BRANCH   1  15
ATOM     12  C   UNL     1       2.490   1.047  -0.016  0.00  0.00    +0.047 C 
ATOM     13  C   UNL     1       1.175   1.782   0.000  0.00  0.00    -0.009 A 
ATOM     14  C   UNL     1      -0.013   1.076   0.008  0.00  0.00    +0.011 A 
ATOM     15  C   UNL     1      -1.219   1.750   0.017  0.00  0.00    -0.034 A 
ATOM     16  C   UNL     1      -1.242   3.133   0.030  0.00  0.00    +0.008 A 
ATOM     17  C   UNL     1      -0.057   3.844   0.022  0.00  0.00    +0.046 A 
ATOM     18  C   UNL     1       1.155   3.169   0.008  0.00  0.00    +0.123 A 
BRANCH  18  19
ATOM     19  O   UNL     1       2.322   3.866  -0.000  0.00  0.00    -0.495 OA
ATOM     20  C   UNL     1       2.226   5.292   0.008  0.00  0.00    +0.277 C 
ENDBRANCH  18  19
ENDBRANCH   1  15
BRANCH  10  21
ATOM     21  C   UNL     1      -5.864   1.711   4.664  0.00  0.00    -0.043 A 
ATOM     22  C   UNL     1      -5.420   2.760   5.447  0.00  0.00    +0.004 A 
ATOM     23  C   UNL     1      -6.105   3.100   6.599  0.00  0.00    +0.000 A 
ATOM     24  C   UNL     1      -7.228   2.385   6.973  0.00  0.00    +0.000 A 
ATOM     25  C   UNL     1      -7.668   1.332   6.192  0.00  0.00    +0.000 A 
ATOM     26  C   UNL     1      -6.986   0.995   5.038  0.00  0.00    +0.004 A 
ENDBRANCH  10  21
BRANCH   3  27
ATOM     27  N   UNL     1      -5.062   2.494  -2.258  0.00  0.00    -0.328 N 
ATOM     28  H   UNL     1      -5.811   3.109  -2.211  0.00  0.00    +0.145 HD
ATOM     29  H   UNL     1      -4.818   2.092  -3.107  0.00  0.00    +0.145 HD
ENDBRANCH   3  27
BRANCH   2  30
ATOM     30  C   UNL     1      -2.961   0.757  -2.471  0.00  0.00    +0.101 C 
ATOM     31  N   UNL     1      -2.686   0.301  -3.474  0.00  0.00    -0.191 NA
ENDBRANCH   2  30
TORSDOF 5
