REMARK  Name = ZINC04667590
REMARK  3 active torsions:
REMARK  status: ('A' for Active; 'I' for Inactive)
REMARK    1  A    between atoms: C_1  and  C_2
REMARK    2  A    between atoms: C_8  and  C_10
REMARK    3  A    between atoms: C_11  and  C_12
REMARK                            x       y       z     vdW  Elec       q    Type
REMARK                         _______ _______ _______ _____ _____    ______ ____
ROOT
ATOM      1  C   UNL     1       5.795   0.956  -0.048  0.00  0.00    +0.090 C 
ATOM      2  C   UNL     1       4.944   2.200  -0.034  0.00  0.00    +0.153 A 
ATOM      3  N   UNL     1       5.382   3.428  -0.032  0.00  0.00    -0.132 NA
ATOM      4  N   UNL     1       4.391   4.250  -0.018  0.00  0.00    -0.120 NA
ATOM      5  C   UNL     1       3.277   3.583  -0.011  0.00  0.00    +0.218 A 
ATOM      6  N   UNL     1       3.564   2.239  -0.020  0.00  0.00    -0.190 N 
ATOM      7  N   UNL     1       2.480   1.372  -0.014  0.00  0.00    -0.156 NA
ATOM      8  C   UNL     1       1.249   1.827  -0.000  0.00  0.00    +0.125 A 
ATOM      9  S   UNL     1       1.502   3.595  -0.001  0.00  0.00    -0.027 S 
ENDROOT
BRANCH   8  10
ATOM     10  C   UNL     1      -0.013   1.076   0.008  0.00  0.00    +0.037 C 
ATOM     11  C   UNL     1      -1.186   1.732   0.017  0.00  0.00    +0.010 C 
BRANCH  11  12
ATOM     12  C   UNL     1      -2.452   0.979   0.019  0.00  0.00    -0.025 A 
ATOM     13  C   UNL     1      -2.437  -0.419   0.006  0.00  0.00    +0.008 A 
ATOM     14  C   UNL     1      -3.626  -1.118   0.013  0.00  0.00    +0.001 A 
ATOM     15  C   UNL     1      -4.832  -0.439   0.023  0.00  0.00    +0.000 A 
ATOM     16  C   UNL     1      -4.854   0.945   0.030  0.00  0.00    +0.001 A 
ATOM     17  C   UNL     1      -3.674   1.657   0.029  0.00  0.00    +0.008 A 
ENDBRANCH  11  12
ENDBRANCH   8  10
TORSDOF 2
