REMARK  Name = ZINC58573731
REMARK  9 active torsions:
REMARK  status: ('A' for Active; 'I' for Inactive)
REMARK    1  A    between atoms: C_4  and  S_7
REMARK    2  A    between atoms: S_7  and  C_8
REMARK    3  A    between atoms: C_13  and  N_14
REMARK    4  A    between atoms: C_15  and  C_17
REMARK    5  A    between atoms: C_17  and  O_18
REMARK    6  A    between atoms: O_18  and  C_19
REMARK    7  A    between atoms: C_22  and  S_28
REMARK    8  A    between atoms: C_24  and  N_25
REMARK    9  A    between atoms: S_28  and  N_31
REMARK                            x       y       z     vdW  Elec       q    Type
REMARK                         _______ _______ _______ _____ _____    ______ ____
ROOT
ATOM      1  N   UNL     1       5.782  -2.998   0.188  0.00  0.00    -0.282 N 
ATOM      2  C   UNL     1       6.740  -3.946   0.203  0.00  0.00    +0.255 C 
ATOM      3  O   UNL     1       6.434  -5.115   0.305  0.00  0.00    -0.272 OA
ATOM      4  H   UNL     1       6.029  -2.060   0.173  0.00  0.00    +0.155 HD
ENDROOT
BRANCH   1  10
ATOM      5  C   UNL     1       3.493  -2.602  -0.499  0.00  0.00    +0.034 A 
ATOM      6  C   UNL     1       2.156  -2.977  -0.492  0.00  0.00    +0.017 A 
ATOM      7  C   UNL     1       1.758  -4.101   0.204  0.00  0.00    +0.001 A 
ATOM      8  C   UNL     1       2.687  -4.857   0.897  0.00  0.00    +0.002 A 
ATOM      9  C   UNL     1       4.020  -4.491   0.896  0.00  0.00    +0.024 A 
ATOM     10  C   UNL     1       4.431  -3.367   0.195  0.00  0.00    +0.047 A 
BRANCH   5  11
ATOM     11  S   UNL     1       4.004  -1.168  -1.386  0.00  0.00    -0.088 S 
BRANCH  11  15
ATOM     12  C   UNL     1       0.129   0.640  -2.877  0.00  0.00    +0.000 A 
ATOM     13  C   UNL     1       0.583   0.936  -1.605  0.00  0.00    +0.001 A 
ATOM     14  C   UNL     1       1.764   0.386  -1.147  0.00  0.00    +0.015 A 
ATOM     15  C   UNL     1       2.496  -0.465  -1.966  0.00  0.00    +0.013 A 
ATOM     16  C   UNL     1       2.036  -0.760  -3.244  0.00  0.00    +0.015 A 
ATOM     17  C   UNL     1       0.854  -0.207  -3.695  0.00  0.00    +0.001 A 
ENDBRANCH  11  15
ENDBRANCH   5  11
ENDBRANCH   1  10
BRANCH   2  18
ATOM     18  C   UNL     1       8.191  -3.554   0.095  0.00  0.00    +0.325 C 
BRANCH  18  19
ATOM     19  O   UNL     1       9.006  -4.726   0.134  0.00  0.00    -0.480 OA
BRANCH  19  20
ATOM     20  C   UNL     1      10.350  -4.547   0.046  0.00  0.00    +0.151 A 
ATOM     21  C   UNL     1      10.874  -3.267  -0.069  0.00  0.00    +0.050 A 
ATOM     22  C   UNL     1      12.241  -3.087  -0.157  0.00  0.00    +0.032 A 
ATOM     23  C   UNL     1      13.086  -4.181  -0.131  0.00  0.00    +0.107 A 
ATOM     24  C   UNL     1      12.567  -5.457  -0.016  0.00  0.00    +0.065 A 
ATOM     25  C   UNL     1      11.201  -5.642   0.078  0.00  0.00    +0.169 A 
BRANCH  25  26
ATOM     26  N   UNL     1      10.646  -7.008   0.207  0.00  0.00    +0.060 N 
ATOM     27  O   UNL     1      11.387  -7.962   0.234  0.00  0.00    -0.126 OA
ATOM     28  O   UNL     1       9.450  -7.169   0.284  0.00  0.00    -0.126 OA
ENDBRANCH  25  26
BRANCH  23  29
ATOM     29  S   UNL     1      14.829  -3.948  -0.244  0.00  0.00    +0.056 S 
ATOM     30  O   UNL     1      15.370  -5.163  -0.745  0.00  0.00    -0.153 OA
ATOM     31  O   UNL     1      15.031  -2.700  -0.892  0.00  0.00    -0.153 OA
BRANCH  29  32
ATOM     32  N   UNL     1      15.402  -3.777   1.301  0.00  0.00    -0.204 NA
ATOM     33  H   UNL     1      14.789  -3.817   2.052  0.00  0.00    +0.144 HD
ATOM     34  H   UNL     1      16.349  -3.638   1.454  0.00  0.00    +0.144 HD
ENDBRANCH  29  32
ENDBRANCH  23  29
ENDBRANCH  19  20
ENDBRANCH  18  19
ENDBRANCH   2  18
TORSDOF 9
