REMARK  Name = ZINC21224066
REMARK  10 active torsions:
REMARK  status: ('A' for Active; 'I' for Inactive)
REMARK    1  A    between atoms: C_1  and  C_2
REMARK    2  A    between atoms: C_2  and  C_3
REMARK    3  A    between atoms: C_2  and  O_4
REMARK    4  A    between atoms: O_4  and  C_5
REMARK    5  A    between atoms: C_8  and  C_11
REMARK    6  A    between atoms: C_16  and  C_26
REMARK    7  A    between atoms: C_29  and  O_34
REMARK    8  A    between atoms: C_31  and  O_32
REMARK    9  A    between atoms: O_32  and  C_33
REMARK   10  A    between atoms: O_34  and  C_35
REMARK                            x       y       z     vdW  Elec       q    Type
REMARK                         _______ _______ _______ _____ _____    ______ ____
ROOT
ATOM      1  C   UNL     1      -0.936   1.442   0.475  0.00  0.00    +0.032 C 
ATOM      2  C   UNL     1      -2.386   0.955   0.550  0.00  0.00    +0.059 C 
ATOM      3  C   UNL     1      -3.206   1.585  -0.564  0.00  0.00    +0.017 C 
ATOM      4  C   UNL     1      -2.637   1.880  -1.746  0.00  0.00    +0.037 C 
ATOM      5  C   UNL     1      -3.332   2.506  -2.931  0.00  0.00    +0.139 C 
ATOM      6  N   UNL     1      -4.776   2.552  -2.827  0.00  0.00    -0.331 N 
ATOM      7  C   UNL     1      -5.401   3.320  -1.845  0.00  0.00    +0.049 A 
ATOM      8  C   UNL     1      -6.144   4.443  -2.169  0.00  0.00    +0.025 A 
ATOM      9  C   UNL     1      -6.652   5.237  -1.156  0.00  0.00    +0.002 A 
ATOM     10  C   UNL     1      -6.423   4.915   0.169  0.00  0.00    +0.002 A 
ATOM     11  C   UNL     1      -5.698   3.781   0.496  0.00  0.00    +0.025 A 
ATOM     12  C   UNL     1      -5.205   2.976  -0.516  0.00  0.00    +0.052 A 
ATOM     13  N   UNL     1      -4.511   1.799  -0.258  0.00  0.00    -0.316 N 
ATOM     14  C   UNL     1      -1.264   1.614  -1.961  0.00  0.00    +0.163 C 
ATOM     15  O   UNL     1      -0.782   1.865  -3.049  0.00  0.00    -0.292 OA
ATOM     16  C   UNL     1      -0.383   1.035  -0.895  0.00  0.00    +0.088 C 
ATOM     17  H   UNL     1      -5.397   1.977  -3.529  0.00  0.00    +0.147 HD
ATOM     18  H   UNL     1      -5.098   1.008   0.230  0.00  0.00    +0.152 HD
ENDROOT
BRANCH   1  22
ATOM     19  C   UNL     1       1.383  -0.374   3.571  0.00  0.00    +0.121 A 
ATOM     20  C   UNL     1       1.290   1.008   3.492  0.00  0.00    +0.046 A 
ATOM     21  C   UNL     1       0.540   1.593   2.490  0.00  0.00    +0.007 A 
ATOM     22  C   UNL     1      -0.119   0.802   1.567  0.00  0.00    -0.043 A 
ATOM     23  C   UNL     1      -0.033  -0.576   1.648  0.00  0.00    +0.007 A 
ATOM     24  C   UNL     1       0.720  -1.165   2.644  0.00  0.00    +0.046 A 
BRANCH  19  25
ATOM     25  O   UNL     1       2.120  -0.951   4.556  0.00  0.00    -0.489 OA
BRANCH  25  27
ATOM     26  C   UNL     1       2.040   0.269   6.641  0.00  0.00    +0.051 C 
ATOM     27  C   UNL     1       2.870  -0.078   5.403  0.00  0.00    +0.167 C 
ATOM     28  C   UNL     1       4.164  -0.771   5.833  0.00  0.00    +0.051 C 
ENDBRANCH  25  27
ENDBRANCH  19  25
ENDBRANCH   1  22
BRANCH   5  29
ATOM     29  C   UNL     1      -2.820   3.913  -3.096  0.00  0.00    +0.019 A 
ATOM     30  C   UNL     1      -2.155   4.533  -2.055  0.00  0.00    +0.013 A 
ATOM     31  C   UNL     1      -1.680   5.821  -2.205  0.00  0.00    +0.046 A 
ATOM     32  C   UNL     1      -1.878   6.500  -3.399  0.00  0.00    +0.124 A 
ATOM     33  C   UNL     1      -2.549   5.883  -4.443  0.00  0.00    +0.091 A 
ATOM     34  C   UNL     1      -3.021   4.588  -4.292  0.00  0.00    +0.129 A 
BRANCH  34  35
ATOM     35  O   UNL     1      -3.679   3.980  -5.314  0.00  0.00    -0.495 OA
ATOM     36  C   UNL     1      -3.849   4.735  -6.515  0.00  0.00    +0.277 C 
ENDBRANCH  34  35
BRANCH  32  37
ATOM     37  O   UNL     1      -1.415   7.770  -3.544  0.00  0.00    -0.495 OA
ATOM     38  C   UNL     1      -0.733   8.343  -2.427  0.00  0.00    +0.277 C 
ENDBRANCH  32  37
ENDBRANCH   5  29
TORSDOF 6
