REMARK  Name = ZINC34787290
REMARK  13 active torsions:
REMARK  status: ('A' for Active; 'I' for Inactive)
REMARK    1  A    between atoms: C_1  and  C_2
REMARK    2  A    between atoms: C_2  and  C_3
REMARK    3  A    between atoms: C_4  and  C_37
REMARK    4  A    between atoms: C_8  and  N_19
REMARK    5  A    between atoms: C_13  and  C_18
REMARK    6  A    between atoms: C_15  and  C_17
REMARK    7  A    between atoms: N_19  and  N_20
REMARK    8  A    between atoms: N_19  and  N_28
REMARK    9  A    between atoms: N_20  and  C_21
REMARK   10  A    between atoms: C_21  and  C_22
REMARK   11  A    between atoms: N_28  and  C_29
REMARK   12  A    between atoms: C_34  and  O_35
REMARK   13  A    between atoms: O_35  and  C_36
REMARK                            x       y       z     vdW  Elec       q    Type
REMARK                         _______ _______ _______ _____ _____    ______ ____
ROOT
ATOM      1  N   UNL     1      -0.499   0.017  -3.009  0.00  0.00    -0.166 N 
ENDROOT
BRANCH   1   7
ATOM      2  C   UNL     1      -0.421  -2.040  -5.260  0.00  0.00    -0.025 A 
ATOM      3  C   UNL     1      -0.577  -3.005  -6.179  0.00  0.00    -0.007 A 
ATOM      4  S   UNL     1      -2.189  -3.672  -5.814  0.00  0.00    -0.073 S 
ATOM      5  C   UNL     1      -2.611  -2.637  -4.437  0.00  0.00    +0.116 A 
ATOM      6  C   UNL     1      -1.480  -1.802  -4.295  0.00  0.00    +0.054 A 
ATOM      7  C   UNL     1      -1.549  -0.855  -3.236  0.00  0.00    +0.167 A 
ATOM      8  N   UNL     1      -2.627  -0.816  -2.472  0.00  0.00    -0.192 NA
ATOM      9  C   UNL     1      -3.654  -1.634  -2.658  0.00  0.00    +0.254 A 
ATOM     10  N   UNL     1      -3.650  -2.530  -3.633  0.00  0.00    -0.203 NA
ATOM     11  N   UNL     1      -4.763  -1.543  -1.817  0.00  0.00    -0.202 N 
ATOM     12  C   UNL     1      -5.881  -2.312  -1.880  0.00  0.00    +0.045 A 
ATOM     13  C   UNL     1      -6.713  -1.907  -0.893  0.00  0.00    +0.048 A 
ATOM     14  C   UNL     1      -6.088  -0.860  -0.205  0.00  0.00    +0.061 A 
ATOM     15  N   UNL     1      -4.920  -0.646  -0.752  0.00  0.00    -0.169 NA
ATOM     16  C   UNL     1      -6.662  -0.112   0.971  0.00  0.00    +0.067 C 
ATOM     17  C   UNL     1      -6.147  -3.416  -2.871  0.00  0.00    +0.066 C 
ATOM     18  C   UNL     1       0.383  -3.425  -7.262  0.00  0.00    +0.052 C 
BRANCH   2  20
ATOM     19  C   UNL     1       2.051  -2.144  -5.098  0.00  0.00    +0.009 C 
ATOM     20  C   UNL     1       0.841  -1.217  -5.226  0.00  0.00    +0.033 C 
ENDBRANCH   2  20
ENDBRANCH   1   7
BRANCH   1  21
ATOM     21  N   UNL     1      -0.060   0.834  -4.012  0.00  0.00    -0.217 NA
ATOM     22  H   UNL     1       0.900   1.105  -3.863  0.00  0.00    +0.146 HD
BRANCH  21  23
ATOM     23  C   UNL     1      -0.926   2.013  -4.146  0.00  0.00    +0.139 C 
BRANCH  23  24
ATOM     24  C   UNL     1      -0.411   2.889  -5.259  0.00  0.00    -0.032 A 
ATOM     25  C   UNL     1       0.514   3.880  -4.988  0.00  0.00    +0.005 A 
ATOM     26  C   UNL     1       0.986   4.683  -6.009  0.00  0.00    +0.000 A 
ATOM     27  C   UNL     1       0.532   4.496  -7.302  0.00  0.00    +0.000 A 
ATOM     28  C   UNL     1      -0.392   3.505  -7.573  0.00  0.00    +0.000 A 
ATOM     29  C   UNL     1      -0.861   2.699  -6.553  0.00  0.00    +0.005 A 
ENDBRANCH  23  24
ENDBRANCH  21  23
ENDBRANCH   1  21
BRANCH   1  30
ATOM     30  N   UNL     1       0.115   0.060  -1.750  0.00  0.00    -0.245 N 
ATOM     31  H   UNL     1      -0.041   0.815  -1.161  0.00  0.00    +0.172 HD
BRANCH  30  32
ATOM     32  C   UNL     1       0.952  -0.984  -1.343  0.00  0.00    +0.087 A 
ATOM     33  C   UNL     1       1.076  -2.122  -2.127  0.00  0.00    +0.028 A 
ATOM     34  C   UNL     1       1.904  -3.152  -1.723  0.00  0.00    +0.002 A 
ATOM     35  C   UNL     1       2.610  -3.053  -0.538  0.00  0.00    +0.004 A 
ATOM     36  C   UNL     1       2.491  -1.921   0.248  0.00  0.00    +0.047 A 
ATOM     37  C   UNL     1       1.668  -0.882  -0.152  0.00  0.00    +0.142 A 
BRANCH  37  38
ATOM     38  O   UNL     1       1.555   0.233   0.618  0.00  0.00    -0.493 OA
ATOM     39  C   UNL     1       2.318   0.269   1.825  0.00  0.00    +0.277 C 
ENDBRANCH  37  38
ENDBRANCH  30  32
ENDBRANCH   1  30
TORSDOF 8
