REMARK  Name = ZINC20701423
REMARK  4 active torsions:
REMARK  status: ('A' for Active; 'I' for Inactive)
REMARK    1  A    between atoms: C_1  and  C_2
REMARK    2  A    between atoms: C_7  and  C_8
REMARK    3  A    between atoms: C_10  and  C_19
REMARK    4  A    between atoms: C_24  and  O_25
REMARK                            x       y       z     vdW  Elec       q    Type
REMARK                         _______ _______ _______ _____ _____    ______ ____
ROOT
ATOM      1  C   UNL     1       1.741   8.056   0.491  0.00  0.00    +0.044 C 
ATOM      2  C   UNL     1       2.096   6.672   0.968  0.00  0.00    -0.046 A 
ATOM      3  C   UNL     1       1.929   6.338   2.299  0.00  0.00    +0.004 A 
ATOM      4  C   UNL     1       2.249   5.064   2.729  0.00  0.00    +0.006 A 
ATOM      5  C   UNL     1       2.732   4.126   1.842  0.00  0.00    -0.019 A 
ATOM      6  C   UNL     1       2.920   4.455   0.496  0.00  0.00    +0.035 A 
ATOM      7  C   UNL     1       2.586   5.744   0.076  0.00  0.00    -0.026 A 
ATOM      8  C   UNL     1       2.764   6.124  -1.371  0.00  0.00    +0.046 C 
ATOM      9  N   UNL     1       3.425   3.576  -0.459  0.00  0.00    -0.336 N 
ATOM     10  C   UNL     1       3.671   2.193  -0.022  0.00  0.00    +0.109 C 
ATOM     11  C   UNL     1       4.240   2.263   1.380  0.00  0.00    +0.029 C 
ATOM     12  C   UNL     1       3.046   2.744   2.265  0.00  0.00    +0.049 C 
ATOM     13  C   UNL     1       3.514   2.414   3.634  0.00  0.00    -0.023 C 
ATOM     14  C   UNL     1       4.332   1.370   3.561  0.00  0.00    -0.030 C 
ATOM     15  C   UNL     1       4.501   0.941   2.100  0.00  0.00    +0.033 C 
ATOM     16  H   UNL     1       3.639   3.871  -1.497  0.00  0.00    +0.147 HD
ENDROOT
BRANCH  10  17
ATOM     17  C   UNL     1       2.378   1.418  -0.013  0.00  0.00    +0.017 A 
ATOM     18  C   UNL     1       1.171   2.090   0.002  0.00  0.00    +0.029 A 
ATOM     19  C   UNL     1      -0.017   1.380   0.010  0.00  0.00    +0.043 A 
ATOM     20  C   UNL     1       0.002  -0.004   0.002  0.00  0.00    +0.043 A 
ATOM     21  C   UNL     1       1.208  -0.679  -0.013  0.00  0.00    +0.084 A 
ATOM     22  C   UNL     1       2.400   0.032  -0.020  0.00  0.00    +0.140 A 
ATOM     23 CL   UNL     1       1.232  -2.415  -0.021  0.00  0.00    -0.080 Cl
ATOM     24 CL   UNL     1      -1.532   2.226   0.021  0.00  0.00    -0.083 Cl
BRANCH  22  25
ATOM     25  O   UNL     1       3.588  -0.630  -0.035  0.00  0.00    -0.505 OA
ATOM     26  H   UNL     1       3.604  -1.730  -0.041  0.00  0.00    +0.292 HD
ENDBRANCH  22  25
ENDBRANCH  10  17
TORSDOF 2
