REMARK  Name = ZINC03653077
REMARK  11 active torsions:
REMARK  status: ('A' for Active; 'I' for Inactive)
REMARK    1  A    between atoms: C_1  and  C_2
REMARK    2  A    between atoms: C_2  and  O_3
REMARK    3  A    between atoms: O_3  and  C_4
REMARK    4  A    between atoms: C_4  and  C_6
REMARK    5  A    between atoms: C_7  and  C_26
REMARK    6  A    between atoms: C_13  and  O_25
REMARK    7  A    between atoms: C_14  and  C_17
REMARK    8  A    between atoms: C_17  and  N_62
REMARK    9  A    between atoms: C_21  and  C_24
REMARK   10  A    between atoms: C_29  and  O_32
REMARK   11  A    between atoms: O_32  and  C_33
REMARK                            x       y       z     vdW  Elec       q    Type
REMARK                         _______ _______ _______ _____ _____    ______ ____
ROOT
ATOM      1  C   UNL     1      -1.678   2.908  -1.045  0.00  0.00    +0.223 A 
ATOM      2  C   UNL     1      -1.306   2.116   0.020  0.00  0.00    +0.079 A 
ATOM      3  C   UNL     1      -2.224   2.012   1.176  0.00  0.00    +0.201 A 
ATOM      4  O   UNL     1      -1.950   1.332   2.149  0.00  0.00    -0.286 OA
ATOM      5  C   UNL     1      -3.485   2.769   1.095  0.00  0.00    +0.065 A 
ATOM      6  C   UNL     1      -4.415   2.732   2.137  0.00  0.00    +0.019 A 
ATOM      7  C   UNL     1      -5.575   3.444   2.034  0.00  0.00    +0.046 A 
ATOM      8  C   UNL     1      -5.836   4.205   0.896  0.00  0.00    +0.122 A 
ATOM      9  C   UNL     1      -4.925   4.251  -0.145  0.00  0.00    +0.020 A 
ATOM     10  C   UNL     1      -3.738   3.534  -0.059  0.00  0.00    +0.144 A 
ATOM     11  O   UNL     1      -2.845   3.572  -1.066  0.00  0.00    -0.447 OA
ENDROOT
BRANCH   2  12
ATOM     12  C   UNL     1      -0.017   1.392   0.010  0.00  0.00    -0.010 A 
ATOM     13  C   UNL     1       1.185   2.103   0.002  0.00  0.00    +0.012 A 
ATOM     14  C   UNL     1       2.385   1.425  -0.014  0.00  0.00    +0.046 A 
ATOM     15  C   UNL     1       2.399   0.036  -0.021  0.00  0.00    +0.120 A 
ATOM     16  C   UNL     1       1.206  -0.675  -0.013  0.00  0.00    +0.046 A 
ATOM     17  C   UNL     1       0.002  -0.004   0.002  0.00  0.00    +0.012 A 
BRANCH  15  18
ATOM     18  O   UNL     1       3.583  -0.629  -0.036  0.00  0.00    -0.495 OA
ATOM     19  C   UNL     1       4.772   0.164  -0.044  0.00  0.00    +0.277 C 
ENDBRANCH  15  18
ENDBRANCH   2  12
BRANCH   1  20
ATOM     20  C   UNL     1      -0.769   3.024  -2.200  0.00  0.00    +0.376 C 
ATOM     21  O   UNL     1       0.289   2.428  -2.203  0.00  0.00    -0.241 OA
BRANCH  20  22
ATOM     22  O   UNL     1      -1.113   3.793  -3.253  0.00  0.00    -0.459 OA
BRANCH  22  24
ATOM     23  C   UNL     1      -0.728   4.774  -5.448  0.00  0.00    +0.048 C 
ATOM     24  C   UNL     1      -0.169   3.861  -4.355  0.00  0.00    +0.229 C 
ENDBRANCH  22  24
ENDBRANCH  20  22
ENDBRANCH   1  20
BRANCH   8  25
ATOM     25  O   UNL     1      -6.994   4.908   0.807  0.00  0.00    -0.506 OA
ATOM     26  H   UNL     1      -7.723   4.415   0.406  0.00  0.00    +0.292 HD
ENDBRANCH   8  25
BRANCH   9  27
ATOM     27  C   UNL     1      -5.219   5.078  -1.370  0.00  0.00    -0.036 C 
BRANCH  27  34
ATOM     28  C   UNL     1      -5.075   3.172  -2.857  0.00  0.00    -0.078 C 
ATOM     29  C   UNL     1      -5.892   2.252  -3.767  0.00  0.00    -0.018 C 
ATOM     30  C   UNL     1      -6.452   3.067  -4.937  0.00  0.00    -0.001 C 
ATOM     31  C   UNL     1      -7.302   4.216  -4.387  0.00  0.00    -0.031 C 
ATOM     32  C   UNL     1      -6.444   5.079  -3.459  0.00  0.00    -0.075 C 
ATOM     33  C   UNL     1      -7.816   5.071  -5.547  0.00  0.00    +0.005 C 
ATOM     34  N   UNL     1      -5.955   4.243  -2.342  0.00  0.00    +0.383 N 
ATOM     35  H   UNL     1      -6.760   3.814  -1.870  0.00  0.00    -0.081 HD
ENDBRANCH  27  34
ENDBRANCH   9  27
TORSDOF 8
