REMARK  Name = ZINC00913030
REMARK  9 active torsions:
REMARK  status: ('A' for Active; 'I' for Inactive)
REMARK    1  A    between atoms: C_1  and  N_2
REMARK    2  A    between atoms: N_2  and  C_3
REMARK    3  A    between atoms: N_2  and  S_4
REMARK    4  A    between atoms: S_4  and  C_7
REMARK    5  A    between atoms: C_10  and  C_13
REMARK    6  A    between atoms: C_13  and  C_15
REMARK    7  A    between atoms: C_17  and  C_29
REMARK    8  A    between atoms: C_20  and  O_28
REMARK    9  A    between atoms: C_22  and  C_23
REMARK                            x       y       z     vdW  Elec       q    Type
REMARK                         _______ _______ _______ _____ _____    ______ ____
ROOT
ATOM      1  C   UNL     1      -2.468  -2.912  -6.516  0.00  0.00    +0.149 C 
ATOM      2  C   UNL     1      -2.284  -2.485  -7.980  0.00  0.00    +0.120 C 
ATOM      3  N   UNL     1      -3.596  -2.043  -8.477  0.00  0.00    -0.293 N 
ATOM      4  C   UNL     1      -4.709  -2.775  -8.144  0.00  0.00    +0.256 C 
ATOM      5  N   UNL     1      -4.688  -3.685  -7.230  0.00  0.00    -0.306 N 
ATOM      6  C   UNL     1      -3.497  -4.043  -6.467  0.00  0.00    +0.284 C 
ATOM      7  O   UNL     1      -2.921  -5.228  -7.021  0.00  0.00    -0.194 OA
ATOM      8  H   UNL     1      -3.673  -1.249  -9.030  0.00  0.00    +0.151 HD
ATOM      9  H   UNL     1      -5.513  -4.159  -7.039  0.00  0.00    +0.167 HD
ENDROOT
BRANCH   2  10
ATOM     10  C   UNL     1      -1.792  -3.653  -8.796  0.00  0.00    -0.026 A 
ATOM     11  C   UNL     1      -2.684  -4.614  -9.235  0.00  0.00    +0.005 A 
ATOM     12  C   UNL     1      -2.233  -5.685  -9.983  0.00  0.00    +0.000 A 
ATOM     13  C   UNL     1      -0.890  -5.796 -10.293  0.00  0.00    +0.000 A 
ATOM     14  C   UNL     1       0.001  -4.835  -9.855  0.00  0.00    +0.000 A 
ATOM     15  C   UNL     1      -0.450  -3.761  -9.110  0.00  0.00    +0.005 A 
ENDBRANCH   2  10
BRANCH   6  16
ATOM     16  C   UNL     1      -3.889  -4.306  -5.012  0.00  0.00    +0.441 C 
ATOM     17  F   UNL     1      -4.565  -3.192  -4.502  0.00  0.00    -0.166 F 
ATOM     18  F   UNL     1      -4.724  -5.427  -4.949  0.00  0.00    -0.166 F 
ATOM     19  F   UNL     1      -2.737  -4.540  -4.254  0.00  0.00    -0.166 F 
ENDBRANCH   6  16
BRANCH   1  20
ATOM     20  C   UNL     1      -2.962  -1.742  -5.705  0.00  0.00    +0.173 C 
ATOM     21  O   UNL     1      -4.045  -1.252  -5.944  0.00  0.00    -0.292 OA
BRANCH  20  25
ATOM     22  C   UNL     1      -0.563  -0.160  -2.585  0.00  0.00    +0.105 A 
ATOM     23  C   UNL     1      -1.749   0.466  -2.926  0.00  0.00    +0.029 A 
ATOM     24  C   UNL     1      -2.535  -0.042  -3.939  0.00  0.00    +0.013 A 
ATOM     25  C   UNL     1      -2.129  -1.192  -4.623  0.00  0.00    +0.018 A 
ATOM     26  C   UNL     1      -0.929  -1.819  -4.273  0.00  0.00    +0.013 A 
ATOM     27  C   UNL     1      -0.152  -1.296  -3.261  0.00  0.00    +0.029 A 
BRANCH  22  28
ATOM     28  S   UNL     1       0.433   0.496  -1.288  0.00  0.00    +0.060 S 
ATOM     29  O   UNL     1       1.225  -0.578  -0.801  0.00  0.00    -0.153 OA
ATOM     30  O   UNL     1      -0.435   1.246  -0.449  0.00  0.00    -0.153 OA
BRANCH  28  32
ATOM     31  C   UNL     1       1.096   2.990  -2.100  0.00  0.00    +0.131 C 
ATOM     32  N   UNL     1       1.479   1.581  -1.976  0.00  0.00    -0.183 NA
ATOM     33  C   UNL     1       2.787   1.132  -2.459  0.00  0.00    +0.131 C 
ENDBRANCH  28  32
ENDBRANCH  22  28
ENDBRANCH  20  25
ENDBRANCH   1  20
BRANCH   4  34
ATOM     34  O   UNL     1      -5.867  -2.533  -8.797  0.00  0.00    -0.483 OA
ATOM     35  H   UNL     1      -6.604  -3.087  -8.508  0.00  0.00    +0.295 HD
ENDBRANCH   4  34
TORSDOF 7
