REMARK  Name = ZINC09712238
REMARK  5 active torsions:
REMARK  status: ('A' for Active; 'I' for Inactive)
REMARK    1  A    between atoms: C_6  and  C_7
REMARK    2  A    between atoms: C_12  and  C_13
REMARK    3  A    between atoms: C_12  and  N_58
REMARK    4  A    between atoms: N_15  and  C_16
REMARK    5  A    between atoms: C_17  and  C_25
REMARK                            x       y       z     vdW  Elec       q    Type
REMARK                         _______ _______ _______ _____ _____    ______ ____
ROOT
ATOM      1  C   UNL     1       4.154   2.710   3.116  0.00  0.00    +0.201 C 
ATOM      2  O   UNL     1       4.859   1.872   2.595  0.00  0.00    -0.278 OA
ATOM      3  N   UNL     1       4.149   2.849   4.457  0.00  0.00    -0.281 N 
ATOM      4  H   UNL     1       3.586   3.519   4.873  0.00  0.00    +0.155 HD
ENDROOT
BRANCH   3   5
ATOM      5  C   UNL     1       4.951   2.033   5.241  0.00  0.00    +0.084 A 
ATOM      6  C   UNL     1       5.082   2.023   6.622  0.00  0.00    +0.068 A 
ATOM      7  C   UNL     1       5.999   1.057   7.203  0.00  0.00    -0.023 A 
ATOM      8  C   UNL     1       6.633   0.261   6.316  0.00  0.00    -0.004 A 
ATOM      9  S   UNL     1       6.026   0.772   4.734  0.00  0.00    -0.077 S 
ATOM     10  C   UNL     1       7.627  -0.818   6.620  0.00  0.00    +0.043 C 
ATOM     11  C   UNL     1       8.106  -0.640   8.068  0.00  0.00    +0.005 C 
ATOM     12  C   UNL     1       6.884  -0.444   8.971  0.00  0.00    +0.005 C 
ATOM     13  C   UNL     1       6.252   0.923   8.700  0.00  0.00    +0.037 C 
BRANCH   6  14
ATOM     14  C   UNL     1       4.324   2.954   7.464  0.00  0.00    +0.244 C 
ATOM     15  O   UNL     1       3.226   2.639   7.884  0.00  0.00    -0.270 OA
ATOM     16  N   UNL     1       4.844   4.159   7.773  0.00  0.00    -0.325 N 
ATOM     17  H   UNL     1       5.719   4.410   7.439  0.00  0.00    +0.145 HD
ATOM     18  H   UNL     1       4.343   4.775   8.330  0.00  0.00    +0.145 HD
ENDBRANCH   6  14
ENDBRANCH   3   5
BRANCH   1  19
ATOM     19  C   UNL     1       3.283   3.597   2.264  0.00  0.00    +0.020 C 
BRANCH  19  24
ATOM     20  C   UNL     1       2.458   3.931  -0.002  0.00  0.00    -0.037 C 
ATOM     21  C   UNL     1       3.073   3.930  -1.418  0.00  0.00    -0.013 C 
ATOM     22  C   UNL     1       4.595   3.814  -1.193  0.00  0.00    -0.020 C 
ATOM     23  C   UNL     1       4.771   3.754   0.340  0.00  0.00    -0.077 C 
ATOM     24  N   UNL     1       3.478   3.266   0.816  0.00  0.00    +0.390 N 
ATOM     25  H   UNL     1       3.419   2.249   0.692  0.00  0.00    -0.080 HD
BRANCH  20  31
ATOM     26  C   UNL     1       1.175   1.783   0.000  0.00  0.00    +0.006 A 
ATOM     27  C   UNL     1      -0.013   1.076   0.008  0.00  0.00    +0.049 A 
ATOM     28  C   UNL     1      -1.223   1.752   0.017  0.00  0.00    +0.162 A 
ATOM     29  C   UNL     1      -1.238   3.142   0.032  0.00  0.00    +0.162 A 
ATOM     30  C   UNL     1      -0.043   3.845   0.023  0.00  0.00    +0.051 A 
ATOM     31  C   UNL     1       1.160   3.165   0.007  0.00  0.00    -0.057 A 
ATOM     32  O   UNL     1      -2.415   3.825   0.056  0.00  0.00    -0.485 OA
ATOM     33  C   UNL     1      -3.589   3.095  -0.328  0.00  0.00    +0.270 C 
ATOM     34  C   UNL     1      -3.569   1.746   0.404  0.00  0.00    +0.270 C 
ATOM     35  O   UNL     1      -2.385   1.043   0.014  0.00  0.00    -0.485 OA
ENDBRANCH  20  31
ENDBRANCH  19  24
ENDBRANCH   1  19
TORSDOF 5
