REMARK  Name = ZINC03135164
REMARK  6 active torsions:
REMARK  status: ('A' for Active; 'I' for Inactive)
REMARK    1  A    between atoms: C_1  and  C_2
REMARK    2  A    between atoms: C_7  and  C_15
REMARK    3  A    between atoms: C_9  and  C_13
REMARK    4  A    between atoms: C_10  and  N_12
REMARK    5  A    between atoms: C_18  and  O_21
REMARK    6  A    between atoms: O_21  and  C_22
REMARK                            x       y       z     vdW  Elec       q    Type
REMARK                         _______ _______ _______ _____ _____    ______ ____
ROOT
ATOM      1  C   UNL     1       5.897   1.867   4.602  0.00  0.00    +0.008 C 
ATOM      2  C   UNL     1       5.132   1.477   3.336  0.00  0.00    +0.001 C 
ATOM      3  C   UNL     1       5.078   2.670   2.379  0.00  0.00    +0.078 C 
ATOM      4  C   UNL     1       4.291   2.296   1.145  0.00  0.00    +0.115 C 
ATOM      5  C   UNL     1       3.284   1.410   1.215  0.00  0.00    +0.046 C 
ATOM      6  C   UNL     1       2.490   1.045  -0.016  0.00  0.00    +0.101 C 
ATOM      7  C   UNL     1       3.257   1.422  -1.253  0.00  0.00    +0.098 C 
ATOM      8  C   UNL     1       4.277   2.312  -1.182  0.00  0.00    +0.198 C 
ATOM      9  O   UNL     1       4.627   2.883  -0.019  0.00  0.00    -0.445 OA
ATOM     10  C   UNL     1       2.938   0.788   2.433  0.00  0.00    +0.164 C 
ATOM     11  O   UNL     1       2.011   0.003   2.461  0.00  0.00    -0.292 OA
ATOM     12  C   UNL     1       3.697   1.080   3.699  0.00  0.00    +0.083 C 
ENDROOT
BRANCH   6  13
ATOM     13  C   UNL     1       1.176   1.783   0.000  0.00  0.00    -0.034 A 
ATOM     14  C   UNL     1      -0.013   1.076   0.008  0.00  0.00    +0.008 A 
ATOM     15  C   UNL     1      -1.218   1.750   0.017  0.00  0.00    +0.046 A 
ATOM     16  C   UNL     1      -1.237   3.137   0.031  0.00  0.00    +0.130 A 
ATOM     17  C   UNL     1      -0.043   3.844   0.024  0.00  0.00    +0.046 A 
ATOM     18  C   UNL     1       1.160   3.165   0.008  0.00  0.00    +0.008 A 
BRANCH  16  19
ATOM     19  O   UNL     1      -2.422   3.802   0.045  0.00  0.00    -0.406 OA
BRANCH  19  20
ATOM     20  C   UNL     1      -3.611   3.009   0.052  0.00  0.00    +0.575 C 
ATOM     21  F   UNL     1      -3.622   2.196   1.190  0.00  0.00    -0.133 F 
ATOM     22  F   UNL     1      -4.730   3.848   0.067  0.00  0.00    -0.133 F 
ATOM     23  F   UNL     1      -3.643   2.208  -1.095  0.00  0.00    -0.133 F 
ENDBRANCH  19  20
ENDBRANCH  16  19
ENDBRANCH   6  13
BRANCH   8  24
ATOM     24  N   UNL     1       4.967   2.635  -2.324  0.00  0.00    -0.328 N 
ATOM     25  H   UNL     1       4.723   2.228  -3.170  0.00  0.00    +0.145 HD
ATOM     26  H   UNL     1       5.698   3.271  -2.285  0.00  0.00    +0.145 HD
ENDBRANCH   8  24
BRANCH   7  27
ATOM     27  C   UNL     1       2.909   0.837  -2.512  0.00  0.00    +0.101 C 
ATOM     28  N   UNL     1       2.633   0.373  -3.512  0.00  0.00    -0.191 NA
ENDBRANCH   7  27
TORSDOF 5
