REMARK  Name = ZINC13388465
REMARK  15 active torsions:
REMARK  status: ('A' for Active; 'I' for Inactive)
REMARK    1  A    between atoms: C_1  and  C_2
REMARK    2  A    between atoms: C_2  and  C_3
REMARK    3  A    between atoms: C_3  and  C_5
REMARK    4  A    between atoms: C_3  and  O_6
REMARK    5  A    between atoms: O_6  and  C_7
REMARK    6  A    between atoms: C_7  and  C_9
REMARK    7  A    between atoms: C_10  and  C_40
REMARK    8  A    between atoms: C_14  and  C_16
REMARK    9  A    between atoms: C_19  and  S_22
REMARK   10  A    between atoms: S_22  and  C_23
REMARK   11  A    between atoms: C_27  and  C_30
REMARK   12  A    between atoms: C_33  and  O_38
REMARK   13  A    between atoms: C_34  and  O_36
REMARK   14  A    between atoms: O_36  and  C_37
REMARK   15  A    between atoms: O_38  and  C_39
REMARK                            x       y       z     vdW  Elec       q    Type
REMARK                         _______ _______ _______ _____ _____    ______ ____
ROOT
ATOM      1  C   UNL     1       6.469   2.811   1.200  0.00  0.00    +0.154 C 
ATOM      2  C   UNL     1       7.243   1.713   1.159  0.00  0.00    +0.031 C 
ATOM      3  N   UNL     1       7.455   1.060  -0.023  0.00  0.00    -0.260 NA
ATOM      4  C   UNL     1       7.241   1.694  -1.218  0.00  0.00    +0.049 C 
ATOM      5  C   UNL     1       6.462   2.794  -1.280  0.00  0.00    +0.025 C 
ATOM      6  C   UNL     1       5.814   3.350  -0.037  0.00  0.00    +0.073 C 
ATOM      7  C   UNL     1       6.232   3.453  -2.500  0.00  0.00    +0.162 C 
ATOM      8  O   UNL     1       5.537   4.450  -2.519  0.00  0.00    -0.292 OA
ATOM      9  C   UNL     1       6.830   2.945  -3.784  0.00  0.00    +0.088 C 
ATOM     10  C   UNL     1       7.022   1.428  -3.678  0.00  0.00    +0.032 C 
ATOM     11  C   UNL     1       7.895   1.133  -2.457  0.00  0.00    +0.064 C 
ATOM     12  C   UNL     1       7.881   1.199   2.423  0.00  0.00    +0.061 C 
ENDROOT
BRANCH   6  13
ATOM     13  C   UNL     1       4.357   2.965  -0.024  0.00  0.00    -0.039 A 
ATOM     14  C   UNL     1       3.384   3.948  -0.009  0.00  0.00    +0.005 A 
ATOM     15  C   UNL     1       2.048   3.600   0.002  0.00  0.00    +0.015 A 
ATOM     16  C   UNL     1       1.681   2.259  -0.002  0.00  0.00    +0.008 A 
ATOM     17  C   UNL     1       2.661   1.274  -0.011  0.00  0.00    +0.015 A 
ATOM     18  C   UNL     1       3.995   1.630  -0.028  0.00  0.00    +0.005 A 
BRANCH  16  19
ATOM     19  S   UNL     1      -0.022   1.810   0.012  0.00  0.00    -0.129 S 
ATOM     20  C   UNL     1       0.002  -0.004   0.002  0.00  0.00    +0.090 C 
ENDBRANCH  16  19
ENDBRANCH   6  13
BRANCH  10  21
ATOM     21  C   UNL     1       7.699   0.911  -4.921  0.00  0.00    -0.040 A 
ATOM     22  C   UNL     1       8.945   1.393  -5.280  0.00  0.00    +0.008 A 
ATOM     23  C   UNL     1       9.570   0.922  -6.419  0.00  0.00    +0.049 A 
ATOM     24  C   UNL     1       8.948  -0.035  -7.205  0.00  0.00    +0.161 A 
ATOM     25  C   UNL     1       7.695  -0.521  -6.844  0.00  0.00    +0.162 A 
ATOM     26  C   UNL     1       7.076  -0.048  -5.698  0.00  0.00    +0.053 A 
BRANCH  25  27
ATOM     27  O   UNL     1       7.081  -1.460  -7.611  0.00  0.00    -0.491 OA
ATOM     28  C   UNL     1       5.796  -1.913  -7.180  0.00  0.00    +0.277 C 
ENDBRANCH  25  27
BRANCH  24  29
ATOM     29  O   UNL     1       9.562  -0.499  -8.326  0.00  0.00    -0.491 OA
ATOM     30  C   UNL     1      10.847   0.044  -8.635  0.00  0.00    +0.277 C 
ENDBRANCH  24  29
ENDBRANCH  10  21
BRANCH   1  31
ATOM     31  C   UNL     1       6.271   3.474   2.434  0.00  0.00    +0.317 C 
ATOM     32  O   UNL     1       6.799   3.049   3.445  0.00  0.00    -0.250 OA
BRANCH  31  33
ATOM     33  O   UNL     1       5.496   4.578   2.490  0.00  0.00    -0.461 OA
BRANCH  33  34
ATOM     34  C   UNL     1       5.340   5.196   3.769  0.00  0.00    +0.173 C 
ATOM     35  C   UNL     1       4.129   4.593   4.483  0.00  0.00    +0.052 C 
BRANCH  34  37
ATOM     36  C   UNL     1       6.388   7.324   2.985  0.00  0.00    +0.007 C 
ATOM     37  C   UNL     1       5.127   6.700   3.586  0.00  0.00    +0.041 C 
ENDBRANCH  34  37
ENDBRANCH  33  34
ENDBRANCH  31  33
ENDBRANCH   1  31
TORSDOF 9
