REMARK  Name = ZINC40124182
REMARK  18 active torsions:
REMARK  status: ('A' for Active; 'I' for Inactive)
REMARK    1  A    between atoms: C_1  and  C_2
REMARK    2  A    between atoms: C_2  and  C_3
REMARK    3  A    between atoms: C_3  and  C_4
REMARK    4  A    between atoms: C_4  and  C_5
REMARK    5  A    between atoms: C_5  and  O_6
REMARK    6  A    between atoms: O_6  and  C_7
REMARK    7  A    between atoms: C_10  and  C_15
REMARK    8  A    between atoms: C_12  and  O_13
REMARK    9  A    between atoms: O_13  and  C_14
REMARK   10  A    between atoms: C_17  and  C_23
REMARK   11  A    between atoms: C_23  and  C_25
REMARK   12  A    between atoms: C_27  and  C_37
REMARK   13  A    between atoms: C_28  and  O_32
REMARK   14  A    between atoms: C_29  and  C_31
REMARK   15  A    between atoms: O_32  and  C_33
REMARK   16  A    between atoms: C_33  and  C_34
REMARK   17  A    between atoms: C_34  and  C_35
REMARK   18  A    between atoms: C_34  and  C_36
REMARK                            x       y       z     vdW  Elec       q    Type
REMARK                         _______ _______ _______ _____ _____    ______ ____
ROOT
ATOM      1  C   UNL     1      -7.579  -6.471  -0.393  0.00  0.00    +0.142 C 
ATOM      2  C   UNL     1      -8.147  -6.635  -1.784  0.00  0.00    +0.076 C 
ATOM      3  C   UNL     1      -9.416  -6.166  -1.744  0.00  0.00    +0.249 C 
ATOM      4  C   UNL     1      -9.718  -5.694  -0.376  0.00  0.00    +0.285 C 
ATOM      5  O   UNL     1     -10.777  -5.218  -0.021  0.00  0.00    -0.267 OA
ATOM      6  N   UNL     1      -8.645  -5.872   0.418  0.00  0.00    -0.298 N 
ATOM      7  O   UNL     1     -10.273  -6.133  -2.791  0.00  0.00    -0.282 OA
ATOM      8  H   UNL     1      -8.587  -5.644   1.359  0.00  0.00    +0.150 HD
ENDROOT
BRANCH   1  12
ATOM      9  C   UNL     1      -4.178  -3.880  -0.491  0.00  0.00    +0.162 A 
ATOM     10  C   UNL     1      -5.452  -3.364  -0.669  0.00  0.00    +0.050 A 
ATOM     11  C   UNL     1      -6.549  -4.204  -0.637  0.00  0.00    +0.009 A 
ATOM     12  C   UNL     1      -6.379  -5.560  -0.427  0.00  0.00    -0.019 A 
ATOM     13  C   UNL     1      -5.112  -6.082  -0.249  0.00  0.00    +0.055 A 
ATOM     14  C   UNL     1      -4.007  -5.246  -0.286  0.00  0.00    +0.162 A 
BRANCH  14  15
ATOM     15  O   UNL     1      -2.759  -5.758  -0.116  0.00  0.00    -0.491 OA
ATOM     16  C   UNL     1      -2.648  -7.180  -0.025  0.00  0.00    +0.277 C 
ENDBRANCH  14  15
BRANCH   9  17
ATOM     17  O   UNL     1      -3.098  -3.055  -0.522  0.00  0.00    -0.488 OA
BRANCH  17  18
ATOM     18  C   UNL     1      -3.349  -1.665  -0.737  0.00  0.00    +0.229 C 
BRANCH  18  19
ATOM     19  C   UNL     1      -2.023  -0.902  -0.741  0.00  0.00    +0.041 C 
BRANCH  19  20
ATOM     20  C   UNL     1      -2.292   0.587  -0.971  0.00  0.00    +0.003 C 
BRANCH  20  22
ATOM     21  C   UNL     1      -1.235   2.839  -1.204  0.00  0.00    +0.004 C 
ATOM     22  C   UNL     1      -0.966   1.350  -0.974  0.00  0.00    -0.003 C 
ENDBRANCH  20  22
ENDBRANCH  19  20
ENDBRANCH  18  19
ENDBRANCH  17  18
ENDBRANCH   9  17
ENDBRANCH   1  12
BRANCH   2  23
ATOM     23  C   UNL     1      -7.457  -7.193  -2.950  0.00  0.00    +0.195 C 
ATOM     24  O   UNL     1      -7.206  -6.483  -3.906  0.00  0.00    -0.287 OA
BRANCH  23  25
ATOM     25  C   UNL     1      -7.067  -8.617  -2.966  0.00  0.00    +0.023 A 
ATOM     26  C   UNL     1      -7.428  -9.454  -1.905  0.00  0.00    +0.018 A 
ATOM     27  C   UNL     1      -7.062 -10.781  -1.923  0.00  0.00    -0.008 A 
ATOM     28  C   UNL     1      -6.335 -11.289  -2.994  0.00  0.00    +0.126 A 
ATOM     29  C   UNL     1      -5.974 -10.460  -4.051  0.00  0.00    -0.008 A 
ATOM     30  C   UNL     1      -6.341  -9.133  -4.043  0.00  0.00    +0.018 A 
ATOM     31  C   UNL     1      -5.186 -11.016  -5.208  0.00  0.00    +0.047 C 
ATOM     32  C   UNL     1      -7.449 -11.684  -0.781  0.00  0.00    +0.047 C 
BRANCH  28  33
ATOM     33  O   UNL     1      -5.977 -12.598  -3.008  0.00  0.00    -0.491 OA
BRANCH  33  34
ATOM     34  C   UNL     1      -6.891 -13.514  -3.614  0.00  0.00    +0.232 C 
BRANCH  34  35
ATOM     35  C   UNL     1      -6.319 -14.931  -3.535  0.00  0.00    +0.020 C 
ATOM     36  C   UNL     1      -7.350 -15.928  -4.069  0.00  0.00    +0.010 C 
ATOM     37  C   UNL     1      -5.045 -15.015  -4.378  0.00  0.00    +0.010 C 
ENDBRANCH  34  35
ENDBRANCH  33  34
ENDBRANCH  28  33
ENDBRANCH  23  25
ENDBRANCH   2  23
TORSDOF 12
