REMARK  Name = ZINC14467208
REMARK  3 active torsions:
REMARK  status: ('A' for Active; 'I' for Inactive)
REMARK    1  A    between atoms: C_6  and  N_7
REMARK    2  A    between atoms: C_17  and  C_20
REMARK    3  A    between atoms: C_25  and  O_26
REMARK                            x       y       z     vdW  Elec       q    Type
REMARK                         _______ _______ _______ _____ _____    ______ ____
ROOT
ATOM      1  C   UNL     1       5.098   0.581   0.586  0.00  0.00    +0.034 A 
ATOM      2  C   UNL     1       4.665   1.620  -0.214  0.00  0.00    +0.025 A 
ATOM      3  C   UNL     1       3.963   2.680   0.344  0.00  0.00    +0.032 A 
ATOM      4  C   UNL     1       3.693   2.707   1.704  0.00  0.00    -0.017 A 
ATOM      5  C   UNL     1       4.133   1.656   2.498  0.00  0.00    +0.038 A 
ATOM      6  C   UNL     1       4.830   0.602   1.942  0.00  0.00    +0.127 A 
ATOM      7  C   UNL     1       2.943   3.829   2.350  0.00  0.00    +0.049 C 
ATOM      8  C   UNL     1       1.528   3.425   2.688  0.00  0.00    -0.023 C 
ATOM      9  C   UNL     1       0.711   4.441   2.507  0.00  0.00    -0.030 C 
ATOM     10  C   UNL     1       1.476   5.660   2.028  0.00  0.00    +0.033 C 
ATOM     11  C   UNL     1       2.777   5.054   1.425  0.00  0.00    +0.029 C 
ATOM     12  C   UNL     1       2.447   4.590   0.004  0.00  0.00    +0.109 C 
ATOM     13  N   UNL     1       3.529   3.724  -0.479  0.00  0.00    -0.336 N 
ATOM     14  H   UNL     1       3.933   3.873  -1.348  0.00  0.00    +0.147 HD
ENDROOT
BRANCH  12  15
ATOM     15  C   UNL     1       1.151   3.821   0.012  0.00  0.00    +0.017 A 
ATOM     16  C   UNL     1       1.159   2.455   0.222  0.00  0.00    +0.029 A 
ATOM     17  C   UNL     1      -0.029   1.748   0.230  0.00  0.00    +0.043 A 
ATOM     18  C   UNL     1      -1.229   2.405   0.021  0.00  0.00    +0.043 A 
ATOM     19  C   UNL     1      -1.242   3.772  -0.184  0.00  0.00    +0.084 A 
ATOM     20  C   UNL     1      -0.050   4.483  -0.191  0.00  0.00    +0.140 A 
ATOM     21 CL   UNL     1      -2.748   4.598  -0.437  0.00  0.00    -0.080 Cl
ATOM     22 CL   UNL     1      -0.016   0.032   0.494  0.00  0.00    -0.083 Cl
BRANCH  20  23
ATOM     23  O   UNL     1      -0.059   5.827  -0.397  0.00  0.00    -0.505 OA
ATOM     24  H   UNL     1       0.012   6.083  -1.327  0.00  0.00    +0.292 HD
ENDBRANCH  20  23
ENDBRANCH  12  15
BRANCH   6  25
ATOM     25  N   UNL     1       5.292  -0.510   2.802  0.00  0.00    +0.056 N 
ATOM     26  O   UNL     1       5.058  -0.494   3.997  0.00  0.00    -0.126 OA
ATOM     27  O   UNL     1       5.908  -1.442   2.315  0.00  0.00    -0.126 OA
ENDBRANCH   6  25
TORSDOF 3
