REMARK  Name = ZINC32547732
REMARK  11 active torsions:
REMARK  status: ('A' for Active; 'I' for Inactive)
REMARK    1  A    between atoms: C_1  and  O_2
REMARK    2  A    between atoms: O_2  and  C_3
REMARK    3  A    between atoms: C_3  and  C_4
REMARK    4  A    between atoms: C_4  and  N_5
REMARK    5  A    between atoms: C_6  and  C_8
REMARK    6  A    between atoms: C_11  and  N_23
REMARK    7  A    between atoms: N_14  and  C_15
REMARK    8  A    between atoms: C_15  and  C_16
REMARK    9  A    between atoms: N_23  and  C_24
REMARK   10  A    between atoms: C_24  and  C_25
REMARK   11  A    between atoms: C_28  and  C_31
REMARK                            x       y       z     vdW  Elec       q    Type
REMARK                         _______ _______ _______ _____ _____    ______ ____
ROOT
ATOM      1  C   UNL     1       0.369  -4.328   2.738  0.00  0.00    +0.021 C 
ATOM      2  C   UNL     1       1.803  -3.751   2.841  0.00  0.00    +0.010 C 
ATOM      3  C   UNL     1       2.484  -4.770   3.793  0.00  0.00    +0.036 C 
ATOM      4  C   UNL     1       1.836  -6.110   3.387  0.00  0.00    -0.059 C 
ATOM      5  N   UNL     1       0.550  -5.795   2.734  0.00  0.00    +0.391 N 
ATOM      6  H   UNL     1       0.560  -6.133   1.783  0.00  0.00    -0.080 HD
ENDROOT
BRANCH   1   8
ATOM      7  N   UNL     1      -0.515  -2.565   1.245  0.00  0.00    -0.314 N 
ATOM      8  C   UNL     1      -0.287  -3.876   1.459  0.00  0.00    +0.200 C 
ATOM      9  O   UNL     1      -0.610  -4.693   0.622  0.00  0.00    -0.278 OA
ATOM     10  H   UNL     1      -0.257  -1.913   1.914  0.00  0.00    +0.149 HD
BRANCH   7  11
ATOM     11  C   UNL     1      -1.154  -2.126   0.002  0.00  0.00    +0.132 C 
BRANCH  11  12
ATOM     12  C   UNL     1      -1.295  -0.603   0.011  0.00  0.00    +0.178 C 
BRANCH  12  14
ATOM     13  C   UNL     1      -0.017   1.425   0.010  0.00  0.00    +0.194 C 
ATOM     14  O   UNL     1       0.002  -0.004   0.002  0.00  0.00    -0.381 OA
ENDBRANCH  12  14
ENDBRANCH  11  12
ENDBRANCH   7  11
ENDBRANCH   1   8
BRANCH   3  15
ATOM     15  N   UNL     1       3.935  -4.801   3.568  0.00  0.00    -0.311 NA
ATOM     16  H   UNL     1       4.312  -5.716   3.766  0.00  0.00    +0.122 HD
BRANCH  15  17
ATOM     17  C   UNL     1       4.613  -3.769   4.363  0.00  0.00    +0.116 C 
BRANCH  17  18
ATOM     18  C   UNL     1       6.097  -3.832   4.106  0.00  0.00    -0.034 A 
ATOM     19  C   UNL     1       6.898  -4.643   4.891  0.00  0.00    +0.005 A 
ATOM     20  C   UNL     1       8.257  -4.704   4.660  0.00  0.00    +0.009 A 
ATOM     21  C   UNL     1       8.823  -3.948   3.636  0.00  0.00    -0.018 A 
ATOM     22  C   UNL     1       8.011  -3.133   2.849  0.00  0.00    +0.009 A 
ATOM     23  C   UNL     1       6.652  -3.083   3.085  0.00  0.00    +0.005 A 
BRANCH  21  24
ATOM     24  C   UNL     1      10.284  -4.009   3.384  0.00  0.00    -0.018 A 
ATOM     25  C   UNL     1      11.095  -4.828   4.167  0.00  0.00    +0.008 A 
ATOM     26  C   UNL     1      12.453  -4.882   3.928  0.00  0.00    +0.001 A 
ATOM     27  C   UNL     1      13.010  -4.125   2.913  0.00  0.00    +0.000 A 
ATOM     28  C   UNL     1      12.210  -3.309   2.133  0.00  0.00    +0.001 A 
ATOM     29  C   UNL     1      10.849  -3.253   2.360  0.00  0.00    +0.008 A 
ENDBRANCH  21  24
ENDBRANCH  17  18
ENDBRANCH  15  17
ENDBRANCH   3  15
BRANCH   5  30
ATOM     30  C   UNL     1      -0.551  -6.431   3.471  0.00  0.00    -0.042 C 
BRANCH  30  31
ATOM     31  C   UNL     1      -0.430  -7.929   3.360  0.00  0.00    -0.064 A 
ATOM     32  C   UNL     1      -1.044  -8.596   2.316  0.00  0.00    +0.003 A 
ATOM     33  C   UNL     1      -0.934  -9.970   2.214  0.00  0.00    +0.020 A 
ATOM     34  C   UNL     1      -0.209 -10.678   3.157  0.00  0.00    +0.041 A 
ATOM     35  C   UNL     1       0.405 -10.009   4.201  0.00  0.00    +0.020 A 
ATOM     36  C   UNL     1       0.298  -8.635   4.299  0.00  0.00    +0.003 A 
ATOM     37 CL   UNL     1      -0.071 -12.403   3.029  0.00  0.00    -0.084 Cl
ENDBRANCH  30  31
ENDBRANCH   5  30
TORSDOF 10
