REMARK  Name = ZINC23379408
REMARK  10 active torsions:
REMARK  status: ('A' for Active; 'I' for Inactive)
REMARK    1  A    between atoms: C_1  and  C_2
REMARK    2  A    between atoms: C_2  and  O_4
REMARK    3  A    between atoms: O_4  and  C_5
REMARK    4  A    between atoms: C_8  and  C_13
REMARK    5  A    between atoms: C_10  and  O_11
REMARK    6  A    between atoms: O_11  and  C_12
REMARK    7  A    between atoms: C_22  and  C_30
REMARK    8  A    between atoms: C_23  and  N_29
REMARK    9  A    between atoms: C_24  and  C_25
REMARK   10  A    between atoms: C_24  and  C_27
REMARK                            x       y       z     vdW  Elec       q    Type
REMARK                         _______ _______ _______ _____ _____    ______ ____
ROOT
ATOM      1  C   UNL     1      -2.544   1.030   0.119  0.00  0.00    +0.066 C 
ATOM      2  C   UNL     1      -2.676   0.291   1.451  0.00  0.00    +0.030 C 
ATOM      3  C   UNL     1      -2.927   1.234   2.604  0.00  0.00    +0.009 C 
ATOM      4  C   UNL     1      -1.657   1.505   3.407  0.00  0.00    +0.005 C 
ATOM      5  C   UNL     1      -1.118   0.165   3.927  0.00  0.00    +0.027 C 
ATOM      6  C   UNL     1      -0.780  -0.687   2.731  0.00  0.00    -0.022 C 
ATOM      7  C   UNL     1      -1.480  -0.598   1.617  0.00  0.00    -0.029 C 
ATOM      8  C   UNL     1      -1.082  -1.413   0.439  0.00  0.00    +0.074 C 
ATOM      9  C   UNL     1      -1.591  -1.106  -0.781  0.00  0.00    +0.054 C 
ATOM     10  C   UNL     1      -2.566   0.007  -1.018  0.00  0.00    +0.188 C 
ENDROOT
BRANCH   1  14
ATOM     11  C   UNL     1       1.150   3.183   0.030  0.00  0.00    +0.173 A 
ATOM     12  C   UNL     1       1.102   1.865  -0.396  0.00  0.00    +0.050 A 
ATOM     13  C   UNL     1      -0.093   1.171  -0.362  0.00  0.00    +0.008 A 
ATOM     14  C   UNL     1      -1.243   1.790   0.090  0.00  0.00    -0.037 A 
ATOM     15  C   UNL     1      -1.202   3.103   0.521  0.00  0.00    +0.053 A 
ATOM     16  C   UNL     1      -0.007   3.805   0.490  0.00  0.00    +0.162 A 
BRANCH  16  17
ATOM     17  O   UNL     1       0.034   5.098   0.909  0.00  0.00    -0.491 OA
ATOM     18  C   UNL     1      -1.192   5.671   1.368  0.00  0.00    +0.277 C 
ENDBRANCH  16  17
BRANCH  11  19
ATOM     19  O   UNL     1       2.324   3.868  -0.003  0.00  0.00    -0.422 OA
BRANCH  19  21
ATOM     20  C   UNL     1       4.261   4.791   1.219  0.00  0.00    +0.136 C 
ATOM     21  C   UNL     1       3.019   3.940   1.143  0.00  0.00    +0.309 C 
ATOM     22  O   UNL     1       2.650   3.324   2.114  0.00  0.00    -0.251 OA
ENDBRANCH  19  21
ENDBRANCH  11  19
ENDBRANCH   1  14
BRANCH   9  23
ATOM     23  N   UNL     1      -1.192  -1.853  -1.853  0.00  0.00    -0.358 N 
ATOM     24  H   UNL     1      -1.585  -1.631  -2.856  0.00  0.00    +0.142 HD
ATOM     25  H   UNL     1      -0.477  -2.678  -1.714  0.00  0.00    +0.142 HD
ENDBRANCH   9  23
BRANCH  10  26
ATOM     26  C   UNL     1      -3.920  -0.557  -1.130  0.00  0.00    +0.091 C 
ATOM     27  N   UNL     1      -4.966  -0.992  -1.217  0.00  0.00    -0.194 NA
ENDBRANCH  10  26
BRANCH  10  28
ATOM     28  C   UNL     1      -2.224   0.685  -2.279  0.00  0.00    +0.091 C 
ATOM     29  N   UNL     1      -1.960   1.208  -3.252  0.00  0.00    -0.194 NA
ENDBRANCH  10  28
BRANCH   8  30
ATOM     30  C   UNL     1      -0.172  -2.508   0.590  0.00  0.00    +0.101 C 
ATOM     31  N   UNL     1       0.550  -3.377   0.709  0.00  0.00    -0.191 NA
ENDBRANCH   8  30
TORSDOF 8
