REMARK  Name = ZINC08964190
REMARK  9 active torsions:
REMARK  status: ('A' for Active; 'I' for Inactive)
REMARK    1  A    between atoms: C_1  and  C_2
REMARK    2  A    between atoms: C_5  and  N_9
REMARK    3  A    between atoms: C_6  and  C_8
REMARK    4  A    between atoms: C_10  and  C_12
REMARK    5  A    between atoms: N_14  and  C_15
REMARK    6  A    between atoms: C_15  and  C_16
REMARK    7  A    between atoms: C_16  and  C_18
REMARK    8  A    between atoms: C_16  and  N_63
REMARK    9  A    between atoms: N_26  and  C_27
REMARK                            x       y       z     vdW  Elec       q    Type
REMARK                         _______ _______ _______ _____ _____    ______ ____
ROOT
ATOM      1  C   UNL     1      -4.562   6.099  -1.019  0.00  0.00    +0.094 C 
ENDROOT
BRANCH   1   4
ATOM      2  C   UNL     1      -6.525   4.812  -1.673  0.00  0.00    +0.299 C 
ATOM      3  O   UNL     1      -7.220   5.683  -1.194  0.00  0.00    -0.265 OA
ATOM      4  N   UNL     1      -5.182   4.924  -1.637  0.00  0.00    -0.309 N 
ATOM      5  H   UNL     1      -4.626   4.227  -2.019  0.00  0.00    +0.149 HD
BRANCH   2   7
ATOM      6  N   UNL     1      -8.499   3.501  -2.339  0.00  0.00    -0.278 N 
ATOM      7  C   UNL     1      -7.157   3.614  -2.302  0.00  0.00    +0.303 C 
ATOM      8  O   UNL     1      -6.462   2.742  -2.781  0.00  0.00    -0.265 OA
ATOM      9  H   UNL     1      -9.053   4.153  -1.881  0.00  0.00    +0.155 HD
BRANCH   6  14
ATOM     10  C   UNL     1     -10.910  -0.785  -5.163  0.00  0.00    +0.044 C 
ATOM     11  C   UNL     1     -10.270   0.354  -4.413  0.00  0.00    -0.050 A 
ATOM     12  C   UNL     1      -9.004   0.787  -4.764  0.00  0.00    +0.005 A 
ATOM     13  C   UNL     1      -8.414   1.830  -4.079  0.00  0.00    +0.024 A 
ATOM     14  C   UNL     1      -9.094   2.446  -3.035  0.00  0.00    +0.037 A 
ATOM     15  C   UNL     1     -10.363   2.005  -2.681  0.00  0.00    -0.029 A 
ATOM     16  C   UNL     1     -10.949   0.964  -3.374  0.00  0.00    +0.008 A 
ATOM     17  C   UNL     1     -11.101   2.665  -1.545  0.00  0.00    +0.045 C 
ENDBRANCH   6  14
ENDBRANCH   2   7
ENDBRANCH   1   4
BRANCH   1  18
ATOM     18  C   UNL     1      -3.046   6.040  -1.219  0.00  0.00    -0.020 C 
BRANCH  18  19
ATOM     19  C   UNL     1      -2.500   4.802  -0.556  0.00  0.00    -0.059 A 
ATOM     20  C   UNL     1      -2.284   4.786   0.811  0.00  0.00    +0.004 A 
ATOM     21  C   UNL     1      -1.787   3.655   1.423  0.00  0.00    +0.023 A 
ATOM     22  C   UNL     1      -1.499   2.519   0.668  0.00  0.00    +0.033 A 
ATOM     23  C   UNL     1      -1.713   2.547  -0.705  0.00  0.00    -0.025 A 
ATOM     24  C   UNL     1      -2.213   3.680  -1.312  0.00  0.00    +0.007 A 
ATOM     25  C   UNL     1      -1.310   1.199  -1.268  0.00  0.00    +0.056 C 
ATOM     26  C   UNL     1      -0.473   0.584  -0.123  0.00  0.00    +0.109 C 
ATOM     27  N   UNL     1      -1.003   1.271   1.075  0.00  0.00    -0.332 N 
ATOM     28  C   UNL     1       0.040   1.422   2.099  0.00  0.00    +0.129 C 
ENDBRANCH  18  19
BRANCH  18  33
ATOM     29  C   UNL     1      -0.945   7.132  -0.653  0.00  0.00    -0.078 C 
ATOM     30  C   UNL     1      -0.488   8.605  -0.500  0.00  0.00    -0.020 C 
ATOM     31  C   UNL     1      -1.543   9.380  -1.322  0.00  0.00    -0.020 C 
ATOM     32  C   UNL     1      -2.767   8.447  -1.390  0.00  0.00    -0.078 C 
ATOM     33  N   UNL     1      -2.411   7.253  -0.622  0.00  0.00    +0.385 N 
ATOM     34  H   UNL     1      -2.730   7.357   0.348  0.00  0.00    -0.081 HD
ENDBRANCH  18  33
ENDBRANCH   1  18
TORSDOF 6
