REMARK  Name = ZINC09229659
REMARK  10 active torsions:
REMARK  status: ('A' for Active; 'I' for Inactive)
REMARK    1  A    between atoms: C_4  and  C_7
REMARK    2  A    between atoms: C_7  and  N_8
REMARK    3  A    between atoms: N_8  and  S_9
REMARK    4  A    between atoms: S_9  and  C_12
REMARK    5  A    between atoms: C_15  and  N_18
REMARK    6  A    between atoms: N_18  and  C_19
REMARK    7  A    between atoms: C_19  and  N_21
REMARK    8  A    between atoms: C_22  and  C_24
REMARK    9  A    between atoms: C_25  and  C_26
REMARK   10  A    between atoms: C_29  and  N_32
REMARK                            x       y       z     vdW  Elec       q    Type
REMARK                         _______ _______ _______ _____ _____    ______ ____
ROOT
ATOM      1  N   UNL     1       1.238  -2.079  -0.020  0.00  0.00    -0.297 N 
ATOM      2  H   UNL     1       1.740  -2.559   0.656  0.00  0.00    +0.154 HD
ENDROOT
BRANCH   1   6
ATOM      3  C   UNL     1       1.143   2.085   0.022  0.00  0.00    +0.105 A 
ATOM      4  C   UNL     1      -0.012   1.372  -0.241  0.00  0.00    +0.030 A 
ATOM      5  C   UNL     1       0.016  -0.009  -0.256  0.00  0.00    +0.025 A 
ATOM      6  C   UNL     1       1.206  -0.681  -0.007  0.00  0.00    +0.033 A 
ATOM      7  C   UNL     1       2.364   0.039   0.257  0.00  0.00    +0.025 A 
ATOM      8  C   UNL     1       2.329   1.420   0.270  0.00  0.00    +0.030 A 
BRANCH   3   9
ATOM      9  S   UNL     1       1.103   3.847   0.040  0.00  0.00    +0.059 S 
ATOM     10  O   UNL     1       2.427   4.286  -0.229  0.00  0.00    -0.153 OA
ATOM     11  O   UNL     1      -0.006   4.236  -0.760  0.00  0.00    -0.153 OA
BRANCH   9  12
ATOM     12  N   UNL     1       0.755   4.313   1.590  0.00  0.00    -0.186 NA
ATOM     13  H   UNL     1      -0.076   4.775   1.783  0.00  0.00    +0.148 HD
BRANCH  12  14
ATOM     14  C   UNL     1       1.702   4.027   2.671  0.00  0.00    +0.141 C 
BRANCH  14  18
ATOM     15  C   UNL     1       0.697   6.367   6.101  0.00  0.00    +0.000 A 
ATOM     16  C   UNL     1       0.148   5.108   5.937  0.00  0.00    +0.000 A 
ATOM     17  C   UNL     1       0.473   4.351   4.827  0.00  0.00    +0.005 A 
ATOM     18  C   UNL     1       1.347   4.853   3.881  0.00  0.00    -0.032 A 
ATOM     19  C   UNL     1       1.900   6.109   4.047  0.00  0.00    +0.005 A 
ATOM     20  C   UNL     1       1.571   6.868   5.155  0.00  0.00    +0.000 A 
ENDBRANCH  14  18
ENDBRANCH  12  14
ENDBRANCH   9  12
ENDBRANCH   3   9
ENDBRANCH   1   6
BRANCH   1  21
ATOM     21  C   UNL     1       0.570  -2.759  -0.974  0.00  0.00    +0.141 C 
ATOM     22  S   UNL     1      -0.199  -1.913  -2.248  0.00  0.00    -0.018 S 
BRANCH  21  23
ATOM     23  N   UNL     1       0.507  -4.104  -0.923  0.00  0.00    -0.264 N 
ATOM     24  C   UNL     1      -0.161  -4.784  -1.876  0.00  0.00    +0.242 C 
ATOM     25  O   UNL     1      -0.707  -4.183  -2.782  0.00  0.00    -0.270 OA
ATOM     26  H   UNL     1       0.943  -4.583  -0.201  0.00  0.00    +0.157 HD
BRANCH  24  27
ATOM     27  C   UNL     1      -0.228  -6.245  -1.822  0.00  0.00    +0.068 C 
ATOM     28  C   UNL     1      -0.897  -6.925  -2.776  0.00  0.00    +0.013 C 
BRANCH  28  29
ATOM     29  C   UNL     1      -0.965  -8.394  -2.720  0.00  0.00    -0.025 A 
ATOM     30  C   UNL     1      -0.333  -9.089  -1.684  0.00  0.00    +0.010 A 
ATOM     31  C   UNL     1      -0.407 -10.465  -1.636  0.00  0.00    +0.033 A 
ATOM     32  C   UNL     1      -1.093 -11.159  -2.617  0.00  0.00    +0.126 A 
ATOM     33  C   UNL     1      -1.716 -10.479  -3.649  0.00  0.00    +0.033 A 
ATOM     34  C   UNL     1      -1.657  -9.103  -3.708  0.00  0.00    +0.010 A 
BRANCH  32  35
ATOM     35  N   UNL     1      -1.162 -12.637  -2.562  0.00  0.00    +0.056 N 
ATOM     36  O   UNL     1      -1.765 -13.251  -3.423  0.00  0.00    -0.126 OA
ATOM     37  O   UNL     1      -0.615 -13.238  -1.655  0.00  0.00    -0.126 OA
ENDBRANCH  32  35
ENDBRANCH  28  29
ENDBRANCH  24  27
ENDBRANCH  21  23
ENDBRANCH   1  21
TORSDOF 10
