REMARK  Name = ZINC14197006
REMARK  6 active torsions:
REMARK  status: ('A' for Active; 'I' for Inactive)
REMARK    1  A    between atoms: C_1  and  N_2
REMARK    2  A    between atoms: N_2  and  C_3
REMARK    3  A    between atoms: C_3  and  C_4
REMARK    4  A    between atoms: N_13  and  C_14
REMARK    5  A    between atoms: C_17  and  S_20
REMARK    6  A    between atoms: S_20  and  N_23
REMARK                            x       y       z     vdW  Elec       q    Type
REMARK                         _______ _______ _______ _____ _____    ______ ____
ROOT
ATOM      1  C   UNL     1       0.994   2.977   0.178  0.00  0.00    +0.134 C 
ATOM      2  N   UNL     1       1.079   1.516   0.234  0.00  0.00    -0.284 N 
ATOM      3  C   UNL     1      -0.039   0.771   0.124  0.00  0.00    +0.306 C 
ATOM      4  O   UNL     1       0.031  -0.442   0.170  0.00  0.00    -0.252 OA
ATOM      5  N   UNL     1      -1.234   1.371  -0.044  0.00  0.00    -0.269 N 
ATOM      6  H   UNL     1      -1.300   2.338  -0.012  0.00  0.00    +0.156 HD
ENDROOT
BRANCH   5   7
ATOM      7  C   UNL     1      -2.380   0.599  -0.264  0.00  0.00    +0.035 A 
ATOM      8  C   UNL     1      -2.304  -0.557  -1.030  0.00  0.00    +0.025 A 
ATOM      9  C   UNL     1      -3.436  -1.320  -1.241  0.00  0.00    +0.030 A 
ATOM     10  C   UNL     1      -4.646  -0.928  -0.698  0.00  0.00    +0.105 A 
ATOM     11  C   UNL     1      -4.727   0.225   0.061  0.00  0.00    +0.030 A 
ATOM     12  C   UNL     1      -3.597   0.989   0.280  0.00  0.00    +0.025 A 
BRANCH  10  13
ATOM     13  S   UNL     1      -6.089  -1.901  -0.975  0.00  0.00    +0.056 S 
ATOM     14  O   UNL     1      -5.641  -3.220  -1.260  0.00  0.00    -0.153 OA
ATOM     15  O   UNL     1      -6.983  -1.615   0.092  0.00  0.00    -0.153 OA
BRANCH  13  16
ATOM     16  N   UNL     1      -6.805  -1.335  -2.356  0.00  0.00    -0.204 NA
ATOM     17  H   UNL     1      -6.407  -0.594  -2.840  0.00  0.00    +0.144 HD
ATOM     18  H   UNL     1      -7.622  -1.743  -2.682  0.00  0.00    +0.144 HD
ENDBRANCH  13  16
ENDBRANCH  10  13
ENDBRANCH   5   7
BRANCH   2  19
ATOM     19  C   UNL     1       2.379   0.863   0.410  0.00  0.00    +0.145 C 
BRANCH  19  20
ATOM     20  C   UNL     1       2.924   0.459  -0.935  0.00  0.00    -0.016 A 
ATOM     21  C   UNL     1       2.700  -0.817  -1.417  0.00  0.00    +0.006 A 
ATOM     22  C   UNL     1       3.196  -1.187  -2.653  0.00  0.00    +0.000 A 
ATOM     23  C   UNL     1       3.926  -0.283  -3.404  0.00  0.00    +0.001 A 
ATOM     24  C   UNL     1       4.155   0.991  -2.921  0.00  0.00    +0.015 A 
ATOM     25  C   UNL     1       3.654   1.363  -1.686  0.00  0.00    +0.023 A 
ATOM     26 BR   UNL     1       3.967   3.107  -1.024  0.00  0.00    -0.050 Br
ENDBRANCH  19  20
ENDBRANCH   2  19
TORSDOF 5
