REMARK  Name = ZINC13064972
REMARK  13 active torsions:
REMARK  status: ('A' for Active; 'I' for Inactive)
REMARK    1  A    between atoms: C_1  and  C_2
REMARK    2  A    between atoms: C_2  and  C_3
REMARK    3  A    between atoms: C_3  and  C_5
REMARK    4  A    between atoms: C_3  and  N_69
REMARK    5  A    between atoms: N_9  and  C_10
REMARK    6  A    between atoms: C_10  and  C_11
REMARK    7  A    between atoms: C_16  and  C_17
REMARK    8  A    between atoms: C_16  and  N_69
REMARK    9  A    between atoms: C_17  and  C_18
REMARK   10  A    between atoms: C_24  and  C_25
REMARK   11  A    between atoms: C_24  and  N_69
REMARK   12  A    between atoms: C_28  and  C_38
REMARK   13  A    between atoms: C_30  and  C_37
REMARK                            x       y       z     vdW  Elec       q    Type
REMARK                         _______ _______ _______ _____ _____    ______ ____
ROOT
ATOM      1  N   UNL     1       5.012   4.954  -0.914  0.00  0.00    +0.389 N 
ATOM      2  H   UNL     1       5.036   3.936  -0.779  0.00  0.00    -0.080 HD
ENDROOT
BRANCH   1   3
ATOM      3  C   UNL     1       6.200   5.363  -1.693  0.00  0.00    +0.003 C 
BRANCH   3   4
ATOM      4  C   UNL     1       6.217   6.858  -1.884  0.00  0.00    +0.139 A 
ATOM      5  N   UNL     1       5.736   7.758  -1.061  0.00  0.00    -0.115 NA
ATOM      6  N   UNL     1       5.942   8.920  -1.577  0.00  0.00    -0.023 NA
ATOM      7  N   UNL     1       6.542   8.785  -2.708  0.00  0.00    -0.044 NA
ATOM      8  N   UNL     1       6.734   7.529  -2.930  0.00  0.00    -0.223 N 
BRANCH   8   9
ATOM      9  C   UNL     1       7.388   6.942  -4.102  0.00  0.00    +0.221 C 
BRANCH   9  10
ATOM     10  C   UNL     1       6.380   6.776  -5.210  0.00  0.00    +0.126 A 
ATOM     11  C   UNL     1       6.076   7.697  -6.141  0.00  0.00    +0.046 A 
ATOM     12  C   UNL     1       5.089   7.125  -6.977  0.00  0.00    +0.041 A 
ATOM     13  C   UNL     1       4.843   5.891  -6.501  0.00  0.00    +0.195 A 
ATOM     14  O   UNL     1       5.628   5.685  -5.431  0.00  0.00    -0.466 OA
ENDBRANCH   9  10
ENDBRANCH   8   9
ENDBRANCH   3   4
BRANCH   3  16
ATOM     15  C   UNL     1       7.506   3.404  -0.859  0.00  0.00    +0.002 C 
ATOM     16  C   UNL     1       7.459   4.931  -0.940  0.00  0.00    -0.011 C 
ENDBRANCH   3  16
ENDBRANCH   1   3
BRANCH   1  17
ATOM     17  C   UNL     1       3.779   5.311  -1.648  0.00  0.00    -0.073 C 
BRANCH  17  18
ATOM     18  C   UNL     1       3.756   4.552  -2.977  0.00  0.00    +0.016 C 
BRANCH  18  19
ATOM     19  C   UNL     1       2.435   4.785  -3.665  0.00  0.00    -0.049 A 
ATOM     20  C   UNL     1       1.374   3.930  -3.430  0.00  0.00    +0.003 A 
ATOM     21  C   UNL     1       0.161   4.146  -4.057  0.00  0.00    +0.000 A 
ATOM     22  C   UNL     1       0.013   5.210  -4.927  0.00  0.00    +0.000 A 
ATOM     23  C   UNL     1       1.076   6.061  -5.166  0.00  0.00    +0.000 A 
ATOM     24  C   UNL     1       2.287   5.848  -4.535  0.00  0.00    +0.003 A 
ENDBRANCH  18  19
ENDBRANCH  17  18
ENDBRANCH   1  17
BRANCH   1  25
ATOM     25  C   UNL     1       5.022   5.614   0.408  0.00  0.00    -0.037 C 
BRANCH  25  26
ATOM     26  C   UNL     1       4.089   4.869   1.327  0.00  0.00    +0.001 A 
ATOM     27  C   UNL     1       4.575   3.900   2.142  0.00  0.00    +0.017 A 
ATOM     28  C   UNL     1       3.643   3.194   3.023  0.00  0.00    +0.002 A 
ATOM     29  C   UNL     1       4.085   2.185   3.885  0.00  0.00    -0.041 A 
ATOM     30  C   UNL     1       3.189   1.545   4.694  0.00  0.00    +0.007 A 
ATOM     31  C   UNL     1       1.844   1.888   4.668  0.00  0.00    -0.048 A 
ATOM     32  C   UNL     1       1.386   2.879   3.828  0.00  0.00    +0.029 A 
ATOM     33  C   UNL     1       2.280   3.545   2.994  0.00  0.00    +0.050 A 
ATOM     34  N   UNL     1       1.849   4.540   2.143  0.00  0.00    -0.322 N 
ATOM     35  H   UNL     1       0.910   4.780   2.125  0.00  0.00    +0.169 HD
ATOM     36  C   UNL     1       2.713   5.182   1.337  0.00  0.00    +0.251 A 
ATOM     37  O   UNL     1       2.297   6.057   0.598  0.00  0.00    -0.268 OA
ATOM     38  C   UNL     1       0.874   1.168   5.570  0.00  0.00    +0.044 C 
ATOM     39  C   UNL     1       5.543   1.806   3.921  0.00  0.00    +0.044 C 
ENDBRANCH  25  26
ENDBRANCH   1  25
TORSDOF 10
