REMARK  Name = ZINC38249306
REMARK  10 active torsions:
REMARK  status: ('A' for Active; 'I' for Inactive)
REMARK    1  A    between atoms: C_1  and  C_2
REMARK    2  A    between atoms: C_4  and  C_13
REMARK    3  A    between atoms: C_20  and  C_38
REMARK    4  A    between atoms: C_21  and  C_34
REMARK    5  A    between atoms: C_22  and  C_24
REMARK    6  A    between atoms: C_27  and  O_30
REMARK    7  A    between atoms: O_30  and  C_31
REMARK    8  A    between atoms: C_31  and  C_33
REMARK    9  A    between atoms: C_34  and  O_36
REMARK   10  A    between atoms: O_36  and  C_37
REMARK                            x       y       z     vdW  Elec       q    Type
REMARK                         _______ _______ _______ _____ _____    ______ ____
ROOT
ATOM      1  C   UNL     1      -1.189   1.108  -1.333  0.00  0.00    +0.027 C 
ATOM      2  C   UNL     1      -2.441   0.644  -1.665  0.00  0.00    +0.080 A 
ATOM      3  C   UNL     1      -2.887  -0.046  -2.879  0.00  0.00    +0.268 A 
ATOM      4  O   UNL     1      -2.109  -0.290  -3.783  0.00  0.00    -0.266 OA
ATOM      5  N   UNL     1      -4.176  -0.401  -2.965  0.00  0.00    -0.275 N 
ATOM      6  C   UNL     1      -5.014  -0.102  -1.916  0.00  0.00    +0.178 A 
ATOM      7  N   UNL     1      -6.289  -0.399  -1.888  0.00  0.00    -0.228 NA
ATOM      8  C   UNL     1      -6.942  -1.022  -2.860  0.00  0.00    +0.053 C 
ATOM      9  C   UNL     1      -6.292  -1.409  -3.998  0.00  0.00    +0.085 C 
ATOM     10  C   UNL     1      -4.815  -1.106  -4.112  0.00  0.00    +0.162 C 
ATOM     11  C   UNL     1      -8.414  -1.308  -2.707  0.00  0.00    +0.066 C 
ATOM     12  S   UNL     1      -3.961   0.713  -0.731  0.00  0.00    -0.046 S 
ENDROOT
BRANCH   1  15
ATOM     13  C   UNL     1      -2.860   2.756   1.018  0.00  0.00    +0.057 C 
ATOM     14  C   UNL     1      -2.000   1.491   1.028  0.00  0.00    +0.201 C 
ATOM     15  C   UNL     1      -0.941   1.599  -0.039  0.00  0.00    -0.006 C 
ATOM     16  C   UNL     1       0.257   2.175   0.258  0.00  0.00    +0.018 C 
ATOM     17  C   UNL     1       0.468   2.652   1.632  0.00  0.00    +0.017 A 
ATOM     18  C   UNL     1       1.502   3.534   1.946  0.00  0.00    +0.011 A 
ATOM     19  C   UNL     1       1.663   3.955   3.250  0.00  0.00    +0.001 A 
ATOM     20  C   UNL     1       0.806   3.506   4.242  0.00  0.00    +0.004 A 
ATOM     21  C   UNL     1      -0.223   2.631   3.942  0.00  0.00    +0.046 A 
ATOM     22  C   UNL     1      -0.401   2.198   2.640  0.00  0.00    +0.128 A 
ATOM     23  O   UNL     1      -1.395   1.342   2.313  0.00  0.00    -0.484 OA
ENDBRANCH   1  15
BRANCH  10  24
ATOM     24  C   UNL     1      -4.609  -0.265  -5.346  0.00  0.00    -0.020 A 
ATOM     25  C   UNL     1      -4.716   1.111  -5.268  0.00  0.00    +0.009 A 
ATOM     26  C   UNL     1      -4.528   1.884  -6.398  0.00  0.00    +0.047 A 
ATOM     27  C   UNL     1      -4.232   1.278  -7.610  0.00  0.00    +0.132 A 
ATOM     28  C   UNL     1      -4.125  -0.103  -7.685  0.00  0.00    +0.047 A 
ATOM     29  C   UNL     1      -4.309  -0.871  -6.551  0.00  0.00    +0.009 A 
BRANCH  27  30
ATOM     30  O   UNL     1      -4.047   2.037  -8.723  0.00  0.00    -0.426 OA
BRANCH  30  31
ATOM     31  C   UNL     1      -2.789   2.239  -9.146  0.00  0.00    +0.309 C 
ATOM     32  O   UNL     1      -1.858   1.833  -8.491  0.00  0.00    -0.251 OA
ATOM     33  C   UNL     1      -2.537   2.973 -10.438  0.00  0.00    +0.136 C 
ENDBRANCH  30  31
ENDBRANCH  27  30
ENDBRANCH  10  24
BRANCH   9  34
ATOM     34  C   UNL     1      -6.975  -2.070  -5.032  0.00  0.00    +0.339 C 
ATOM     35  O   UNL     1      -8.165  -2.306  -4.922  0.00  0.00    -0.245 OA
BRANCH  34  36
ATOM     36  O   UNL     1      -6.313  -2.443  -6.149  0.00  0.00    -0.465 OA
ATOM     37  C   UNL     1      -7.070  -3.111  -7.160  0.00  0.00    +0.280 C 
ENDBRANCH  34  36
ENDBRANCH   9  34
TORSDOF 6
