REMARK  Name = ZINC00804115
REMARK  9 active torsions:
REMARK  status: ('A' for Active; 'I' for Inactive)
REMARK    1  A    between atoms: C_1  and  C_2
REMARK    2  A    between atoms: C_2  and  O_3
REMARK    3  A    between atoms: O_3  and  C_4
REMARK    4  A    between atoms: C_13  and  C_25
REMARK    5  A    between atoms: C_15  and  C_21
REMARK    6  A    between atoms: C_15  and  C_23
REMARK    7  A    between atoms: C_16  and  N_20
REMARK    8  A    between atoms: C_17  and  C_18
REMARK    9  A    between atoms: C_25  and  C_26
REMARK                            x       y       z     vdW  Elec       q    Type
REMARK                         _______ _______ _______ _____ _____    ______ ____
ROOT
ATOM      1  C   UNL     1      -3.903   7.511  -1.163  0.00  0.00    +0.403 C 
ATOM      2  O   UNL     1      -4.034   6.673  -0.292  0.00  0.00    -0.226 OA
ATOM      3  N   UNL     1      -2.704   8.094  -1.361  0.00  0.00    -0.263 N 
ATOM      4  C   UNL     1      -2.509   9.113  -2.408  0.00  0.00    +0.138 C 
ATOM      5  C   UNL     1      -1.387   8.630  -3.295  0.00  0.00    -0.003 C 
ATOM      6  C   UNL     1      -0.443   7.836  -2.831  0.00  0.00    -0.026 C 
ATOM      7  C   UNL     1      -0.354   7.371  -1.408  0.00  0.00    +0.044 C 
ATOM      8  C   UNL     1      -1.538   7.741  -0.544  0.00  0.00    +0.120 C 
ATOM      9  C   UNL     1      -0.090   5.865  -1.409  0.00  0.00    +0.042 C 
ATOM     10  C   UNL     1       1.264   5.599  -2.068  0.00  0.00    +0.184 C 
ATOM     11  C   UNL     1       1.383   6.293  -3.391  0.00  0.00    +0.054 C 
ATOM     12  C   UNL     1       0.608   7.343  -3.762  0.00  0.00    +0.074 C 
ENDROOT
BRANCH  11  13
ATOM     13  N   UNL     1       2.326   5.844  -4.272  0.00  0.00    -0.358 N 
ATOM     14  H   UNL     1       2.439   6.331  -5.252  0.00  0.00    +0.142 HD
ATOM     15  H   UNL     1       2.971   4.995  -4.002  0.00  0.00    +0.142 HD
ENDBRANCH  11  13
BRANCH  12  16
ATOM     16  C   UNL     1       0.799   7.969  -5.035  0.00  0.00    +0.101 C 
ATOM     17  N   UNL     1       0.951   8.466  -6.045  0.00  0.00    -0.191 NA
ENDBRANCH  12  16
BRANCH  10  18
ATOM     18  C   UNL     1       2.334   6.077  -1.177  0.00  0.00    +0.091 C 
ATOM     19  N   UNL     1       3.159   6.447  -0.489  0.00  0.00    -0.195 NA
ENDBRANCH  10  18
BRANCH  10  20
ATOM     20  C   UNL     1       1.422   4.150  -2.272  0.00  0.00    +0.091 C 
ATOM     21  N   UNL     1       1.544   3.031  -2.429  0.00  0.00    -0.195 NA
ENDBRANCH  10  20
BRANCH   1  22
ATOM     22  O   UNL     1      -4.954   7.856  -1.929  0.00  0.00    -0.451 OA
BRANCH  22  24
ATOM     23  C   UNL     1      -7.284   7.706  -2.623  0.00  0.00    +0.048 C 
ATOM     24  C   UNL     1      -6.215   7.187  -1.659  0.00  0.00    +0.230 C 
ENDBRANCH  22  24
ENDBRANCH   1  22
BRANCH   9  25
ATOM     25  C   UNL     1      -0.070   5.347   0.031  0.00  0.00    +0.042 C 
BRANCH  25  26
ATOM     26  C   UNL     1       0.050   3.845   0.023  0.00  0.00    -0.047 A 
ATOM     27  C   UNL     1       1.299   3.252   0.037  0.00  0.00    +0.003 A 
ATOM     28  C   UNL     1       1.410   1.874   0.030  0.00  0.00    +0.000 A 
ATOM     29  C   UNL     1       0.272   1.089   0.009  0.00  0.00    +0.000 A 
ATOM     30  C   UNL     1      -0.976   1.682  -0.011  0.00  0.00    +0.000 A 
ATOM     31  C   UNL     1      -1.087   3.060   0.001  0.00  0.00    +0.003 A 
ENDBRANCH  25  26
ENDBRANCH   9  25
TORSDOF 8
