REMARK  Name = ZINC04687727
REMARK  5 active torsions:
REMARK  status: ('A' for Active; 'I' for Inactive)
REMARK    1  A    between atoms: C_1  and  C_2
REMARK    2  A    between atoms: C_5  and  C_11
REMARK    3  A    between atoms: C_7  and  N_8
REMARK    4  A    between atoms: C_21  and  C_31
REMARK    5  A    between atoms: C_22  and  C_23
REMARK                            x       y       z     vdW  Elec       q    Type
REMARK                         _______ _______ _______ _____ _____    ______ ____
ROOT
ATOM      1  C   UNL     1       1.359  -0.567   0.128  0.00  0.00    +0.090 C 
ATOM      2  C   UNL     1       2.374   0.510   0.419  0.00  0.00    +0.024 C 
ATOM      3  C   UNL     1       2.094   1.807   0.170  0.00  0.00    +0.015 C 
ATOM      4  C   UNL     1       3.103   2.890   0.461  0.00  0.00    +0.051 C 
ATOM      5  C   UNL     1       4.518   2.332   0.296  0.00  0.00    +0.014 C 
ATOM      6  C   UNL     1       4.685   1.143   1.248  0.00  0.00    +0.080 C 
ATOM      7  C   UNL     1       3.616   0.126   0.953  0.00  0.00    +0.162 C 
ATOM      8  O   UNL     1       3.831  -1.048   1.180  0.00  0.00    -0.292 OA
ATOM      9  N   UNL     1       0.880   2.168  -0.352  0.00  0.00    -0.321 N 
ATOM     10  C   UNL     1      -0.194   1.326  -0.261  0.00  0.00    +0.014 C 
ATOM     11  C   UNL     1      -0.015   0.016  -0.029  0.00  0.00    +0.043 C 
ATOM     12  C   UNL     1      -1.589   1.873  -0.429  0.00  0.00    +0.061 C 
ATOM     13  H   UNL     1       0.763   3.142  -0.850  0.00  0.00    +0.152 HD
ENDROOT
BRANCH  11  14
ATOM     14  C   UNL     1      -1.145  -0.833   0.070  0.00  0.00    +0.245 C 
ATOM     15  O   UNL     1      -1.501  -1.487  -0.893  0.00  0.00    -0.270 OA
ATOM     16  N   UNL     1      -1.826  -0.917   1.230  0.00  0.00    -0.298 N 
ATOM     17  C   UNL     1      -1.471  -0.060   2.370  0.00  0.00    +0.108 C 
ATOM     18  C   UNL     1      -2.733   0.681   2.835  0.00  0.00    +0.019 C 
ATOM     19  C   UNL     1      -3.836  -0.337   3.134  0.00  0.00    +0.003 C 
ATOM     20  C   UNL     1      -4.176  -1.113   1.859  0.00  0.00    +0.019 C 
ATOM     21  C   UNL     1      -2.933  -1.871   1.381  0.00  0.00    +0.108 C 
ENDBRANCH  11  14
BRANCH   1  26
ATOM     22  C   UNL     1       2.834  -3.290  -4.750  0.00  0.00    +0.046 C 
ATOM     23  C   UNL     1       2.449  -2.580  -3.478  0.00  0.00    -0.020 A 
ATOM     24  C   UNL     1       2.112  -1.239  -3.510  0.00  0.00    +0.006 A 
ATOM     25  C   UNL     1       1.759  -0.588  -2.342  0.00  0.00    +0.005 A 
ATOM     26  C   UNL     1       1.743  -1.277  -1.144  0.00  0.00    -0.033 A 
ATOM     27  C   UNL     1       2.085  -2.616  -1.112  0.00  0.00    +0.037 A 
ATOM     28  C   UNL     1       2.434  -3.268  -2.280  0.00  0.00    +0.129 A 
BRANCH  28  29
ATOM     29  N   UNL     1       2.796  -4.703  -2.246  0.00  0.00    +0.057 N 
ATOM     30  O   UNL     1       2.686  -5.335  -1.210  0.00  0.00    -0.126 OA
ATOM     31  O   UNL     1       3.203  -5.252  -3.254  0.00  0.00    -0.126 OA
ENDBRANCH  28  29
ENDBRANCH   1  26
TORSDOF 3
