REMARK  Name = ZINC23555208
REMARK  10 active torsions:
REMARK  status: ('A' for Active; 'I' for Inactive)
REMARK    1  A    between atoms: C_1  and  C_2
REMARK    2  A    between atoms: C_2  and  C_3
REMARK    3  A    between atoms: C_3  and  C_4
REMARK    4  A    between atoms: C_4  and  C_5
REMARK    5  A    between atoms: C_5  and  N_6
REMARK    6  A    between atoms: C_15  and  S_16
REMARK    7  A    between atoms: S_16  and  C_17
REMARK    8  A    between atoms: C_17  and  C_18
REMARK    9  A    between atoms: N_20  and  C_21
REMARK   10  A    between atoms: C_24  and  C_27
REMARK                            x       y       z     vdW  Elec       q    Type
REMARK                         _______ _______ _______ _____ _____    ______ ____
ROOT
ATOM      1  N   UNL     1      -1.018   1.816   0.887  0.00  0.00    -0.287 N 
ATOM      2  C   UNL     1      -1.967   1.035   1.436  0.00  0.00    +0.263 A 
ATOM      3  O   UNL     1      -2.364   0.042   0.851  0.00  0.00    -0.267 OA
ATOM      4  C   UNL     1      -2.502   1.387   2.716  0.00  0.00    +0.076 A 
ATOM      5  C   UNL     1      -3.529   0.689   3.492  0.00  0.00    -0.023 A 
ATOM      6  C   UNL     1      -3.865   1.224   4.682  0.00  0.00    -0.004 A 
ATOM      7  S   UNL     1      -2.851   2.669   4.841  0.00  0.00    -0.073 S 
ATOM      8  C   UNL     1      -1.974   2.549   3.302  0.00  0.00    +0.117 A 
ATOM      9  N   UNL     1      -1.037   3.277   2.707  0.00  0.00    -0.216 NA
ATOM     10  C   UNL     1      -0.557   2.929   1.530  0.00  0.00    +0.173 A 
ATOM     11  C   UNL     1      -4.879   0.705   5.657  0.00  0.00    +0.043 C 
ATOM     12  C   UNL     1      -5.755  -0.331   4.939  0.00  0.00    +0.005 C 
ATOM     13  C   UNL     1      -4.846  -1.302   4.181  0.00  0.00    +0.005 C 
ATOM     14  C   UNL     1      -4.200  -0.588   2.993  0.00  0.00    +0.037 C 
ENDROOT
BRANCH   1  15
ATOM     15  C   UNL     1      -0.465   1.462  -0.422  0.00  0.00    +0.127 C 
BRANCH  15  16
ATOM     16  C   UNL     1      -1.294   2.127  -1.523  0.00  0.00    +0.022 C 
BRANCH  16  17
ATOM     17  C   UNL     1      -0.716   1.757  -2.890  0.00  0.00    +0.001 C 
BRANCH  17  19
ATOM     18  C   UNL     1      -0.967   2.053  -5.359  0.00  0.00    +0.004 C 
ATOM     19  C   UNL     1      -1.545   2.422  -3.991  0.00  0.00    -0.003 C 
ENDBRANCH  17  19
ENDBRANCH  16  17
ENDBRANCH  15  16
ENDBRANCH   1  15
BRANCH  10  20
ATOM     20  S   UNL     1       0.691   3.915   0.773  0.00  0.00    -0.078 S 
BRANCH  20  21
ATOM     21  C   UNL     1       0.889   5.196   2.038  0.00  0.00    +0.173 C 
BRANCH  21  22
ATOM     22  C   UNL     1       1.939   6.182   1.594  0.00  0.00    +0.227 C 
ATOM     23  O   UNL     1       2.498   6.033   0.528  0.00  0.00    -0.275 OA
ATOM     24  N   UNL     1       2.256   7.228   2.381  0.00  0.00    -0.285 N 
ATOM     25  H   UNL     1       1.690   7.412   3.306  0.00  0.00    +0.155 HD
BRANCH  24  26
ATOM     26  C   UNL     1       3.302   8.078   2.024  0.00  0.00    +0.033 A 
ATOM     27  C   UNL     1       4.414   7.569   1.360  0.00  0.00    +0.024 A 
ATOM     28  C   UNL     1       5.446   8.406   1.001  0.00  0.00    +0.015 A 
ATOM     29  C   UNL     1       5.382   9.766   1.314  0.00  0.00    +0.037 A 
ATOM     30  C   UNL     1       4.266  10.273   1.986  0.00  0.00    +0.015 A 
ATOM     31  C   UNL     1       3.235   9.432   2.337  0.00  0.00    +0.024 A 
BRANCH  29  32
ATOM     32  C   UNL     1       6.489  10.666   0.936  0.00  0.00    +0.242 C 
ATOM     33  O   UNL     1       6.431  11.849   1.209  0.00  0.00    -0.270 OA
ATOM     34  N   UNL     1       7.564  10.175   0.288  0.00  0.00    -0.325 N 
ATOM     35  H   UNL     1       8.389  10.846   0.006  0.00  0.00    +0.145 HD
ATOM     36  H   UNL     1       7.616   9.105   0.041  0.00  0.00    +0.145 HD
ENDBRANCH  29  32
ENDBRANCH  24  26
ENDBRANCH  21  22
ENDBRANCH  20  21
ENDBRANCH  10  20
TORSDOF 9
