REMARK  Name = ZINC00921272
REMARK  9 active torsions:
REMARK  status: ('A' for Active; 'I' for Inactive)
REMARK    1  A    between atoms: N_9  and  C_10
REMARK    2  A    between atoms: C_10  and  C_11
REMARK    3  A    between atoms: N_13  and  C_14
REMARK    4  A    between atoms: N_13  and  C_24
REMARK    5  A    between atoms: C_14  and  C_15
REMARK    6  A    between atoms: C_24  and  C_26
REMARK    7  A    between atoms: C_24  and  C_33
REMARK    8  A    between atoms: C_29  and  O_32
REMARK    9  A    between atoms: N_35  and  C_36
REMARK                            x       y       z     vdW  Elec       q    Type
REMARK                         _______ _______ _______ _____ _____    ______ ____
ROOT
ATOM      1  C   UNL     1       5.465  -0.654   0.893  0.00  0.00    +0.238 C 
ATOM      2  O   UNL     1       4.728  -0.599   1.855  0.00  0.00    -0.274 OA
ATOM      3  N   UNL     1       6.432   0.271   0.732  0.00  0.00    -0.280 N 
ENDROOT
BRANCH   1   4
ATOM      4  C   UNL     1       5.299  -1.755  -0.122  0.00  0.00    +0.241 C 
BRANCH   4  13
ATOM      5  C   UNL     1       0.260  -3.262   0.143  0.00  0.00    +0.002 A 
ATOM      6  C   UNL     1       0.761  -2.142  -0.508  0.00  0.00    +0.002 A 
ATOM      7  C   UNL     1       2.101  -1.872  -0.495  0.00  0.00    +0.029 A 
ATOM      8  C   UNL     1       2.971  -2.724   0.177  0.00  0.00    +0.090 A 
ATOM      9  C   UNL     1       2.470  -3.858   0.839  0.00  0.00    +0.113 A 
ATOM     10  C   UNL     1       1.093  -4.113   0.809  0.00  0.00    +0.032 A 
ATOM     11  N   UNL     1       3.515  -4.500   1.399  0.00  0.00    -0.129 NA
ATOM     12  N   UNL     1       4.610  -3.873   1.149  0.00  0.00    -0.064 NA
ATOM     13  N   UNL     1       4.331  -2.736   0.376  0.00  0.00    -0.235 N 
ENDBRANCH   4  13
ENDBRANCH   1   4
BRANCH   3  14
ATOM     14  C   UNL     1       7.244   0.277  -0.487  0.00  0.00    +0.144 C 
BRANCH  14  15
ATOM     15  C   UNL     1       7.113   1.613  -1.172  0.00  0.00    -0.026 A 
ATOM     16  C   UNL     1       5.902   1.990  -1.722  0.00  0.00    +0.009 A 
ATOM     17  C   UNL     1       5.777   3.215  -2.351  0.00  0.00    +0.050 A 
ATOM     18  C   UNL     1       6.866   4.067  -2.431  0.00  0.00    +0.166 A 
ATOM     19  C   UNL     1       8.085   3.688  -1.877  0.00  0.00    +0.167 A 
ATOM     20  C   UNL     1       8.202   2.461  -1.243  0.00  0.00    +0.054 A 
ATOM     21  O   UNL     1       8.990   4.689  -2.084  0.00  0.00    -0.453 OA
ATOM     22  C   UNL     1       8.425   5.507  -3.126  0.00  0.00    +0.466 C 
ATOM     23  O   UNL     1       7.006   5.307  -2.986  0.00  0.00    -0.453 OA
ENDBRANCH  14  15
ENDBRANCH   3  14
BRANCH   3  24
ATOM     24  C   UNL     1       6.671   1.270   1.776  0.00  0.00    +0.193 C 
BRANCH  24  25
ATOM     25  C   UNL     1       6.501   0.632   3.131  0.00  0.00    -0.018 A 
ATOM     26  C   UNL     1       7.091  -0.590   3.397  0.00  0.00    +0.009 A 
ATOM     27  C   UNL     1       6.936  -1.178   4.638  0.00  0.00    +0.046 A 
ATOM     28  C   UNL     1       6.189  -0.540   5.617  0.00  0.00    +0.117 A 
ATOM     29  C   UNL     1       5.599   0.686   5.348  0.00  0.00    +0.046 A 
ATOM     30  C   UNL     1       5.761   1.272   4.107  0.00  0.00    +0.009 A 
BRANCH  28  31
ATOM     31  O   UNL     1       6.035  -1.116   6.838  0.00  0.00    -0.507 OA
ATOM     32  H   UNL     1       6.717  -0.871   7.478  0.00  0.00    +0.292 HD
ENDBRANCH  28  31
ENDBRANCH  24  25
BRANCH  24  33
ATOM     33  C   UNL     1       8.074   1.807   1.646  0.00  0.00    +0.238 C 
ATOM     34  O   UNL     1       8.847   1.299   0.862  0.00  0.00    -0.273 OA
ATOM     35  N   UNL     1       8.469   2.851   2.402  0.00  0.00    -0.311 N 
ATOM     36  H   UNL     1       7.850   3.257   3.029  0.00  0.00    +0.149 HD
BRANCH  35  37
ATOM     37  C   UNL     1       9.832   3.372   2.275  0.00  0.00    +0.073 C 
ATOM     38  C   UNL     1      10.773   2.560   3.167  0.00  0.00    +0.022 C 
ATOM     39  C   UNL     1      12.197   3.105   3.035  0.00  0.00    +0.002 C 
ATOM     40  C   UNL     1      12.224   4.572   3.468  0.00  0.00    +0.000 C 
ATOM     41  C   UNL     1      11.282   5.384   2.577  0.00  0.00    +0.002 C 
ATOM     42  C   UNL     1       9.859   4.840   2.709  0.00  0.00    +0.022 C 
ENDBRANCH  35  37
ENDBRANCH  24  33
ENDBRANCH   3  24
TORSDOF 9
