REMARK  Name = ZINC35316521
REMARK  8 active torsions:
REMARK  status: ('A' for Active; 'I' for Inactive)
REMARK    1  A    between atoms: C_1  and  C_2
REMARK    2  A    between atoms: C_2  and  C_3
REMARK    3  A    between atoms: C_2  and  C_4
REMARK    4  A    between atoms: C_2  and  C_5
REMARK    5  A    between atoms: N_12  and  C_14
REMARK    6  A    between atoms: N_23  and  C_25
REMARK    7  A    between atoms: C_25  and  N_27
REMARK    8  A    between atoms: N_27  and  C_28
REMARK                            x       y       z     vdW  Elec       q    Type
REMARK                         _______ _______ _______ _____ _____    ______ ____
ROOT
ATOM      1  C   UNL     1       0.707  -0.490  -1.238  0.00  0.00    +0.078 A 
ATOM      2  C   UNL     1       0.927  -1.882  -1.613  0.00  0.00    +0.043 A 
ATOM      3  C   UNL     1       0.593  -3.116  -1.044  0.00  0.00    +0.024 A 
ATOM      4  C   UNL     1       0.980  -4.261  -1.688  0.00  0.00    +0.032 A 
ATOM      5  C   UNL     1       1.701  -4.188  -2.878  0.00  0.00    +0.222 A 
ATOM      6  N   UNL     1       1.984  -3.001  -3.409  0.00  0.00    -0.193 NA
ATOM      7  C   UNL     1       1.631  -1.863  -2.833  0.00  0.00    +0.167 A 
ATOM      8  N   UNL     1       1.801  -0.542  -3.163  0.00  0.00    -0.214 N 
ATOM      9  N   UNL     1       1.226   0.258  -2.171  0.00  0.00    -0.168 NA
ATOM     10  O   UNL     1       2.192  -5.268  -3.545  0.00  0.00    -0.475 OA
ATOM     11  C   UNL     1       1.503  -6.516  -3.479  0.00  0.00    +0.249 C 
ATOM     12  C   UNL     1       2.012  -7.304  -2.254  0.00  0.00    +0.148 C 
ATOM     13  N   UNL     1       1.759  -6.475  -1.079  0.00  0.00    -0.305 N 
ATOM     14  C   UNL     1       0.594  -5.590  -1.103  0.00  0.00    +0.147 C 
ENDROOT
BRANCH   8  15
ATOM     15  C   UNL     1       2.445  -0.070  -4.313  0.00  0.00    +0.068 A 
ATOM     16  C   UNL     1       3.533  -0.758  -4.834  0.00  0.00    +0.028 A 
ATOM     17  C   UNL     1       4.165  -0.290  -5.969  0.00  0.00    +0.002 A 
ATOM     18  C   UNL     1       3.716   0.863  -6.587  0.00  0.00    +0.000 A 
ATOM     19  C   UNL     1       2.633   1.551  -6.071  0.00  0.00    +0.002 A 
ATOM     20  C   UNL     1       1.993   1.084  -4.939  0.00  0.00    +0.028 A 
ENDBRANCH   8  15
BRANCH   1  22
ATOM     21  C   UNL     1      -0.019   1.526   0.010  0.00  0.00    +0.017 C 
ATOM     22  C   UNL     1       0.002  -0.004   0.002  0.00  0.00    +0.007 C 
ATOM     23  C   UNL     1       0.742  -0.511   1.242  0.00  0.00    +0.017 C 
ATOM     24  C   UNL     1      -1.433  -0.534   0.013  0.00  0.00    +0.017 C 
ENDBRANCH   1  22
BRANCH  13  25
ATOM     25  C   UNL     1       2.574  -6.524  -0.006  0.00  0.00    +0.133 C 
ATOM     26  S   UNL     1       2.252  -5.540   1.357  0.00  0.00    -0.019 S 
BRANCH  25  27
ATOM     27  N   UNL     1       3.641  -7.346  -0.007  0.00  0.00    -0.329 N 
ATOM     28  C   UNL     1       4.526  -7.399   1.159  0.00  0.00    +0.127 C 
ATOM     29  H   UNL     1       3.823  -7.904  -0.780  0.00  0.00    +0.147 HD
ENDBRANCH  25  27
ENDBRANCH  13  25
TORSDOF 4
