REMARK  Name = ZINC16205643
REMARK  10 active torsions:
REMARK  status: ('A' for Active; 'I' for Inactive)
REMARK    1  A    between atoms: C_1  and  C_2
REMARK    2  A    between atoms: C_2  and  C_4
REMARK    3  A    between atoms: C_2  and  O_27
REMARK    4  A    between atoms: N_6  and  N_7
REMARK    5  A    between atoms: C_8  and  C_10
REMARK    6  A    between atoms: C_10  and  C_12
REMARK    7  A    between atoms: C_10  and  N_15
REMARK    8  A    between atoms: C_12  and  C_13
REMARK    9  A    between atoms: C_12  and  C_14
REMARK   10  A    between atoms: O_27  and  C_28
REMARK                            x       y       z     vdW  Elec       q    Type
REMARK                         _______ _______ _______ _____ _____    ______ ____
ROOT
ATOM      1  N   UNL     1       0.440  -1.370  -3.599  0.00  0.00    -0.233 N 
ATOM      2  C   UNL     1       0.190  -1.333  -4.923  0.00  0.00    +0.250 C 
ATOM      3  O   UNL     1      -0.806  -0.780  -5.337  0.00  0.00    -0.272 OA
ATOM      4  H   UNL     1       1.273  -1.746  -3.273  0.00  0.00    +0.173 HD
ENDROOT
BRANCH   1   7
ATOM      5  C   UNL     1      -0.252  -0.901  -1.371  0.00  0.00    +0.270 C 
ATOM      6  O   UNL     1       0.789  -1.371  -0.963  0.00  0.00    -0.270 OA
ATOM      7  N   UNL     1      -0.502  -0.864  -2.694  0.00  0.00    -0.231 N 
ATOM      8  H   UNL     1      -1.335  -0.489  -3.021  0.00  0.00    +0.173 HD
BRANCH   5  10
ATOM      9  C   UNL     1      -1.415   1.151  -0.605  0.00  0.00    +0.062 C 
ATOM     10  C   UNL     1      -1.266  -0.357  -0.397  0.00  0.00    +0.257 C 
BRANCH  10  11
ATOM     11  O   UNL     1      -0.828  -0.612   0.939  0.00  0.00    -0.480 OA
BRANCH  11  12
ATOM     12  C   UNL     1      -1.786  -0.687   1.899  0.00  0.00    +0.122 A 
ATOM     13  C   UNL     1      -3.117  -0.414   1.568  0.00  0.00    +0.046 A 
ATOM     14  C   UNL     1      -4.099  -0.480   2.506  0.00  0.00    +0.012 A 
ATOM     15  C   UNL     1      -3.776  -0.829   3.830  0.00  0.00    -0.018 A 
ATOM     16  C   UNL     1      -4.766  -0.907   4.824  0.00  0.00    +0.008 A 
ATOM     17  C   UNL     1      -4.418  -1.248   6.095  0.00  0.00    +0.001 A 
ATOM     18  C   UNL     1      -3.092  -1.521   6.428  0.00  0.00    +0.001 A 
ATOM     19  C   UNL     1      -2.107  -1.455   5.491  0.00  0.00    +0.008 A 
ATOM     20  C   UNL     1      -2.428  -1.106   4.168  0.00  0.00    -0.014 A 
ATOM     21  C   UNL     1      -1.439  -1.033   3.174  0.00  0.00    +0.054 A 
ENDBRANCH  11  12
ENDBRANCH  10  11
ENDBRANCH   5  10
ENDBRANCH   1   7
BRANCH   2  22
ATOM     22  C   UNL     1       1.149  -1.980  -5.889  0.00  0.00    +0.162 C 
BRANCH  22  23
ATOM     23  N   UNL     1       0.438  -2.336  -7.120  0.00  0.00    -0.316 N 
ATOM     24  C   UNL     1       0.909  -3.355  -7.918  0.00  0.00    +0.150 C 
ATOM     25  N   UNL     1       1.977  -4.007  -7.585  0.00  0.00    -0.113 NA
ATOM     26  S   UNL     1       2.214  -5.143  -8.792  0.00  0.00    +0.101 S 
ATOM     27  O   UNL     1       3.395  -4.786  -9.496  0.00  0.00    -0.146 OA
ATOM     28  O   UNL     1       1.997  -6.428  -8.225  0.00  0.00    -0.146 OA
ATOM     29  C   UNL     1       0.830  -4.771  -9.834  0.00  0.00    +0.123 A 
ATOM     30  C   UNL     1       0.201  -3.718  -9.155  0.00  0.00    +0.043 A 
ATOM     31  C   UNL     1      -0.962  -3.182  -9.730  0.00  0.00    +0.013 A 
ATOM     32  C   UNL     1      -1.449  -3.690 -10.914  0.00  0.00    +0.001 A 
ATOM     33  C   UNL     1      -0.809  -4.733 -11.559  0.00  0.00    +0.002 A 
ATOM     34  C   UNL     1       0.347  -5.270 -11.009  0.00  0.00    +0.030 A 
ATOM     35  H   UNL     1      -0.365  -1.853  -7.372  0.00  0.00    +0.148 HD
ENDBRANCH  22  23
BRANCH  22  36
ATOM     36  C   UNL     1       2.279  -1.003  -6.218  0.00  0.00    +0.012 C 
ATOM     37  C   UNL     1       1.685   0.311  -6.730  0.00  0.00    +0.009 C 
ATOM     38  C   UNL     1       3.103  -0.733  -4.957  0.00  0.00    +0.009 C 
ENDBRANCH  22  36
ENDBRANCH   2  22
TORSDOF 7
