REMARK  Name = ZINC40723081
REMARK  8 active torsions:
REMARK  status: ('A' for Active; 'I' for Inactive)
REMARK    1  A    between atoms: C_6  and  S_7
REMARK    2  A    between atoms: S_7  and  C_8
REMARK    3  A    between atoms: C_9  and  N_28
REMARK    4  A    between atoms: C_10  and  N_14
REMARK    5  A    between atoms: N_14  and  N_15
REMARK    6  A    between atoms: C_16  and  C_18
REMARK    7  A    between atoms: C_18  and  O_19
REMARK    8  A    between atoms: O_19  and  C_20
REMARK                            x       y       z     vdW  Elec       q    Type
REMARK                         _______ _______ _______ _____ _____    ______ ____
ROOT
ATOM      1  C   UNL     1      -1.005  -2.587  -0.151  0.00  0.00    +0.127 A 
ATOM      2  C   UNL     1      -1.953  -3.603  -0.292  0.00  0.00    +0.099 A 
ATOM      3  C   UNL     1      -1.498  -4.917  -0.417  0.00  0.00    +0.160 A 
ATOM      4  N   UNL     1      -0.188  -5.150  -0.398  0.00  0.00    -0.218 NA
ATOM      5  C   UNL     1       0.674  -4.162  -0.263  0.00  0.00    +0.224 A 
ATOM      6  N   UNL     1       0.287  -2.908  -0.147  0.00  0.00    -0.227 NA
ENDROOT
BRANCH   2   7
ATOM      7  N   UNL     1      -3.326  -3.311  -0.306  0.00  0.00    -0.353 N 
ATOM      8  H   UNL     1      -3.628  -2.393  -0.218  0.00  0.00    +0.142 HD
ATOM      9  H   UNL     1      -3.974  -4.027  -0.405  0.00  0.00    +0.142 HD
ENDBRANCH   2   7
BRANCH   3  10
ATOM     10  N   UNL     1      -2.400  -5.965  -0.560  0.00  0.00    -0.247 N 
ATOM     11  H   UNL     1      -3.353  -5.787  -0.573  0.00  0.00    +0.172 HD
BRANCH  10  12
ATOM     12  N   UNL     1      -1.931  -7.279  -0.685  0.00  0.00    -0.232 N 
ATOM     13  C   UNL     1      -2.805  -8.296  -0.823  0.00  0.00    +0.267 C 
ATOM     14  O   UNL     1      -3.997  -8.073  -0.839  0.00  0.00    -0.271 OA
ATOM     15  H   UNL     1      -0.978  -7.458  -0.672  0.00  0.00    +0.173 HD
BRANCH  13  16
ATOM     16  C   UNL     1      -2.301  -9.710  -0.957  0.00  0.00    +0.326 C 
BRANCH  16  17
ATOM     17  O   UNL     1      -3.411 -10.601  -1.090  0.00  0.00    -0.481 OA
BRANCH  17  18
ATOM     18  C   UNL     1      -3.128 -11.924  -1.222  0.00  0.00    +0.140 A 
ATOM     19  C   UNL     1      -1.810 -12.356  -1.218  0.00  0.00    +0.048 A 
ATOM     20  C   UNL     1      -1.524 -13.701  -1.353  0.00  0.00    +0.023 A 
ATOM     21  C   UNL     1      -2.552 -14.617  -1.491  0.00  0.00    +0.043 A 
ATOM     22  C   UNL     1      -3.867 -14.189  -1.495  0.00  0.00    +0.043 A 
ATOM     23  C   UNL     1      -4.158 -12.845  -1.355  0.00  0.00    +0.084 A 
ATOM     24 CL   UNL     1      -5.809 -12.308  -1.353  0.00  0.00    -0.080 Cl
ATOM     25 CL   UNL     1      -2.189 -16.306  -1.661  0.00  0.00    -0.083 Cl
ENDBRANCH  17  18
ENDBRANCH  16  17
ENDBRANCH  13  16
ENDBRANCH  10  12
ENDBRANCH   3  10
BRANCH   1  26
ATOM     26  S   UNL     1      -1.511  -0.907   0.012  0.00  0.00    -0.068 S 
BRANCH  26  32
ATOM     27  C   UNL     1       0.592   0.360  -1.197  0.00  0.00    +0.016 A 
ATOM     28  C   UNL     1       1.777   1.068  -1.197  0.00  0.00    +0.021 A 
ATOM     29  C   UNL     1       2.378   1.415   0.000  0.00  0.00    +0.041 A 
ATOM     30  C   UNL     1       1.794   1.052   1.201  0.00  0.00    +0.021 A 
ATOM     31  C   UNL     1       0.609   0.344   1.208  0.00  0.00    +0.016 A 
ATOM     32  C   UNL     1       0.002  -0.004   0.007  0.00  0.00    +0.014 A 
ATOM     33 CL   UNL     1       3.869   2.305  -0.004  0.00  0.00    -0.084 Cl
ENDBRANCH  26  32
ENDBRANCH   1  26
TORSDOF 8
