REMARK  Name = ZINC58066525
REMARK  8 active torsions:
REMARK  status: ('A' for Active; 'I' for Inactive)
REMARK    1  A    between atoms: C_1  and  C_2
REMARK    2  A    between atoms: C_6  and  C_8
REMARK    3  A    between atoms: C_6  and  N_23
REMARK    4  A    between atoms: C_8  and  N_9
REMARK    5  A    between atoms: C_10  and  C_12
REMARK    6  A    between atoms: C_12  and  C_13
REMARK    7  A    between atoms: N_23  and  C_24
REMARK    8  A    between atoms: N_23  and  C_25
REMARK                            x       y       z     vdW  Elec       q    Type
REMARK                         _______ _______ _______ _____ _____    ______ ____
ROOT
ATOM      1  N   UNL     1      -0.700  -4.079   0.966  0.00  0.00    -0.316 N 
ATOM      2  C   UNL     1      -1.875  -4.698   0.732  0.00  0.00    +0.217 C 
ATOM      3  O   UNL     1      -2.843  -4.053   0.393  0.00  0.00    -0.275 OA
ATOM      4  H   UNL     1       0.075  -4.596   1.238  0.00  0.00    +0.149 HD
ENDROOT
BRANCH   1   5
ATOM      5  C   UNL     1      -0.595  -2.626   0.811  0.00  0.00    +0.092 C 
BRANCH   5  11
ATOM      6  C   UNL     1       0.647   1.336  -0.408  0.00  0.00    +0.007 C 
ATOM      7  C   UNL     1       0.561  -0.190  -0.335  0.00  0.00    -0.015 C 
ATOM      8  C   UNL     1       1.543  -0.805  -1.333  0.00  0.00    +0.003 C 
ATOM      9  C   UNL     1       1.456  -2.331  -1.260  0.00  0.00    -0.001 C 
ATOM     10  C   UNL     1       1.810  -2.794   0.154  0.00  0.00    -0.010 C 
ATOM     11  C   UNL     1       0.828  -2.179   1.153  0.00  0.00    -0.050 C 
ATOM     12  C   UNL     1       0.914  -0.653   1.080  0.00  0.00    -0.007 C 
BRANCH  11  13
ATOM     13  N   UNL     1       1.168  -2.624   2.511  0.00  0.00    +0.381 N 
ATOM     14  C   UNL     1       2.504  -2.129   2.869  0.00  0.00    -0.096 C 
ATOM     15  C   UNL     1       0.179  -2.096   3.461  0.00  0.00    -0.096 C 
ATOM     16  H   UNL     1       1.163  -3.632   2.546  0.00  0.00    -0.082 HD
ENDBRANCH  11  13
ENDBRANCH   5  11
ENDBRANCH   1   5
BRANCH   2  17
ATOM     17  C   UNL     1      -1.983  -6.193   0.892  0.00  0.00    +0.133 C 
BRANCH  17  18
ATOM     18  C   UNL     1      -3.389  -6.631   0.573  0.00  0.00    -0.014 A 
ATOM     19  C   UNL     1      -4.387  -6.817   1.452  0.00  0.00    +0.087 A 
ATOM     20  N   UNL     1      -5.519  -7.215   0.796  0.00  0.00    -0.360 N 
ATOM     21  H   UNL     1      -6.370  -7.410   1.220  0.00  0.00    +0.165 HD
ATOM     22  C   UNL     1      -5.273  -7.297  -0.556  0.00  0.00    +0.047 A 
ATOM     23  C   UNL     1      -3.929  -6.929  -0.756  0.00  0.00    +0.003 A 
ATOM     24  C   UNL     1      -3.396  -6.915  -2.045  0.00  0.00    +0.010 A 
ATOM     25  C   UNL     1      -4.183  -7.255  -3.109  0.00  0.00    +0.001 A 
ATOM     26  C   UNL     1      -5.510  -7.615  -2.918  0.00  0.00    +0.002 A 
ATOM     27  C   UNL     1      -6.054  -7.645  -1.653  0.00  0.00    +0.026 A 
ENDBRANCH  17  18
ENDBRANCH   2  17
TORSDOF 5
