REMARK  Name = ZINC00781557
REMARK  6 active torsions:
REMARK  status: ('A' for Active; 'I' for Inactive)
REMARK    1  A    between atoms: C_9  and  O_35
REMARK    2  A    between atoms: C_10  and  C_11
REMARK    3  A    between atoms: C_13  and  N_18
REMARK    4  A    between atoms: C_16  and  O_17
REMARK    5  A    between atoms: N_18  and  S_19
REMARK    6  A    between atoms: S_19  and  C_22
REMARK                            x       y       z     vdW  Elec       q    Type
REMARK                         _______ _______ _______ _____ _____    ______ ____
ROOT
ATOM      1  C   UNL     1      -1.566   6.147   0.368  0.00  0.00    +0.029 A 
ATOM      2  C   UNL     1      -2.094   6.465  -0.882  0.00  0.00    +0.036 A 
ATOM      3  C   UNL     1      -3.333   7.080  -0.971  0.00  0.00    +0.049 A 
ATOM      4  C   UNL     1      -4.047   7.380   0.183  0.00  0.00    +0.028 A 
ATOM      5  C   UNL     1      -3.526   7.068   1.425  0.00  0.00    +0.048 A 
ATOM      6  C   UNL     1      -2.292   6.448   1.526  0.00  0.00    +0.125 A 
ENDROOT
BRANCH   1  16
ATOM      7  C   UNL     1       0.100   1.317   0.477  0.00  0.00    +0.001 A 
ATOM      8  C   UNL     1      -1.155   1.915   0.375  0.00  0.00    +0.001 A 
ATOM      9  C   UNL     1      -1.286   3.270   0.377  0.00  0.00    +0.009 A 
ATOM     10  C   UNL     1      -0.144   4.079   0.473  0.00  0.00    -0.007 A 
ATOM     11  C   UNL     1       1.132   3.473   0.571  0.00  0.00    -0.017 A 
ATOM     12  C   UNL     1       1.229   2.070   0.572  0.00  0.00    +0.008 A 
ATOM     13  C   UNL     1       2.279   4.280   0.667  0.00  0.00    +0.012 A 
ATOM     14  C   UNL     1       2.162   5.636   0.665  0.00  0.00    +0.046 A 
ATOM     15  C   UNL     1       0.914   6.252   0.568  0.00  0.00    +0.125 A 
ATOM     16  C   UNL     1      -0.243   5.490   0.471  0.00  0.00    +0.035 A 
BRANCH  15  17
ATOM     17  O   UNL     1       0.830   7.608   0.568  0.00  0.00    -0.506 OA
ATOM     18  H   UNL     1       0.876   8.005  -0.313  0.00  0.00    +0.292 HD
ENDBRANCH  15  17
ENDBRANCH   1  16
BRANCH   6  19
ATOM     19  O   UNL     1      -1.785   6.136   2.748  0.00  0.00    -0.506 OA
ATOM     20  H   UNL     1      -1.248   6.837   3.142  0.00  0.00    +0.292 HD
ENDBRANCH   6  19
BRANCH   3  21
ATOM     21  N   UNL     1      -3.866   7.399  -2.225  0.00  0.00    -0.216 N 
ATOM     22  H   UNL     1      -3.310   7.832  -2.892  0.00  0.00    +0.174 HD
BRANCH  21  23
ATOM     23  S   UNL     1      -5.444   7.038  -2.570  0.00  0.00    +0.073 S 
ATOM     24  O   UNL     1      -6.227   7.594  -1.522  0.00  0.00    -0.150 OA
ATOM     25  O   UNL     1      -5.649   7.376  -3.935  0.00  0.00    -0.150 OA
BRANCH  23  26
ATOM     26  C   UNL     1      -5.616   5.288  -2.454  0.00  0.00    +0.116 A 
ATOM     27  C   UNL     1      -6.424   4.726  -1.503  0.00  0.00    +0.031 A 
ATOM     28  C   UNL     1      -6.603   3.350  -1.368  0.00  0.00    +0.026 A 
ATOM     29  C   UNL     1      -5.937   2.481  -2.212  0.00  0.00    +0.042 A 
ATOM     30  C   UNL     1      -5.115   3.066  -3.169  0.00  0.00    +0.017 A 
ATOM     31  C   UNL     1      -4.922   4.439  -3.330  0.00  0.00    +0.011 A 
ATOM     32  C   UNL     1      -4.051   4.849  -4.355  0.00  0.00    +0.010 A 
ATOM     33  C   UNL     1      -3.446   3.897  -5.130  0.00  0.00    +0.001 A 
ATOM     34  C   UNL     1      -3.650   2.528  -4.956  0.00  0.00    +0.014 A 
ATOM     35  C   UNL     1      -4.500   2.083  -3.958  0.00  0.00    +0.047 A 
ATOM     36  C   UNL     1      -5.005   0.817  -3.416  0.00  0.00    +0.249 C 
ATOM     37  O   UNL     1      -4.721  -0.297  -3.816  0.00  0.00    -0.270 OA
ATOM     38  N   UNL     1      -5.848   1.106  -2.389  0.00  0.00    -0.281 N 
ATOM     39  H   UNL     1      -6.319   0.447  -1.857  0.00  0.00    +0.155 HD
ENDBRANCH  23  26
ENDBRANCH  21  23
ENDBRANCH   3  21
TORSDOF 6
