REMARK  Name = ZINC06196307
REMARK  15 active torsions:
REMARK  status: ('A' for Active; 'I' for Inactive)
REMARK    1  A    between atoms: C_1  and  C_2
REMARK    2  A    between atoms: C_2  and  O_3
REMARK    3  A    between atoms: O_3  and  C_4
REMARK    4  A    between atoms: C_7  and  C_10
REMARK    5  A    between atoms: C_10  and  N_73
REMARK    6  A    between atoms: C_11  and  C_12
REMARK    7  A    between atoms: C_11  and  N_73
REMARK    8  A    between atoms: C_17  and  C_19
REMARK    9  A    between atoms: C_17  and  C_32
REMARK   10  A    between atoms: C_17  and  N_73
REMARK   11  A    between atoms: C_24  and  C_31
REMARK   12  A    between atoms: N_36  and  C_37
REMARK   13  A    between atoms: C_37  and  C_38
REMARK   14  A    between atoms: C_37  and  C_39
REMARK   15  A    between atoms: C_37  and  C_40
REMARK                            x       y       z     vdW  Elec       q    Type
REMARK                         _______ _______ _______ _____ _____    ______ ____
ROOT
ATOM      1  C   UNL     1      -4.224   1.143   0.513  0.00  0.00    +0.040 C 
ENDROOT
BRANCH   1   2
ATOM      2  C   UNL     1      -3.083   2.101   0.741  0.00  0.00    +0.011 A 
ATOM      3  C   UNL     1      -1.845   1.623   1.020  0.00  0.00    +0.017 A 
ATOM      4  C   UNL     1      -0.757   2.580   1.232  0.00  0.00    -0.001 A 
ATOM      5  C   UNL     1       0.540   2.147   1.528  0.00  0.00    +0.010 A 
ATOM      6  C   UNL     1       1.532   3.065   1.724  0.00  0.00    +0.004 A 
ATOM      7  C   UNL     1       1.263   4.425   1.638  0.00  0.00    -0.048 A 
ATOM      8  C   UNL     1      -0.008   4.874   1.352  0.00  0.00    +0.029 A 
ATOM      9  C   UNL     1      -1.034   3.957   1.148  0.00  0.00    +0.049 A 
ATOM     10  N   UNL     1      -2.315   4.379   0.861  0.00  0.00    -0.322 N 
ATOM     11  H   UNL     1      -2.510   5.357   0.799  0.00  0.00    +0.169 HD
ATOM     12  C   UNL     1      -3.307   3.492   0.664  0.00  0.00    +0.251 A 
ATOM     13  O   UNL     1      -4.427   3.901   0.411  0.00  0.00    -0.268 OA
ATOM     14  C   UNL     1       2.373   5.420   1.858  0.00  0.00    +0.044 C 
ENDBRANCH   1   2
BRANCH   1  15
ATOM     15  C   UNL     1      -4.702   1.261  -0.911  0.00  0.00    +0.143 A 
ATOM     16  N   UNL     1      -5.452   2.214  -1.408  0.00  0.00    -0.115 NA
ATOM     17  N   UNL     1      -5.642   1.960  -2.657  0.00  0.00    -0.023 NA
ATOM     18  N   UNL     1      -5.033   0.870  -2.969  0.00  0.00    -0.043 NA
ATOM     19  N   UNL     1      -4.437   0.412  -1.921  0.00  0.00    -0.225 N 
BRANCH  19  20
ATOM     20  C   UNL     1      -3.626  -0.806  -1.843  0.00  0.00    +0.059 C 
ATOM     21  C   UNL     1      -4.283  -1.795  -0.878  0.00  0.00    +0.036 C 
ATOM     22  C   UNL     1      -3.524  -1.440  -3.232  0.00  0.00    +0.036 C 
ATOM     23  C   UNL     1      -2.225  -0.455  -1.338  0.00  0.00    +0.036 C 
ENDBRANCH  19  20
ENDBRANCH   1  15
BRANCH   1  24
ATOM     24  N   UNL     1      -5.339   1.491   1.418  0.00  0.00    +0.397 N 
ATOM     25  H   UNL     1      -5.816   2.325   1.055  0.00  0.00    -0.079 HD
BRANCH  24  26
ATOM     26  C   UNL     1      -6.306   0.374   1.482  0.00  0.00    -0.041 C 
BRANCH  26  30
ATOM     27  C   UNL     1      -9.133   0.840  -1.689  0.00  0.00    +0.121 A 
ATOM     28  C   UNL     1      -8.059  -0.025  -1.837  0.00  0.00    +0.046 A 
ATOM     29  C   UNL     1      -7.146  -0.174  -0.811  0.00  0.00    +0.005 A 
ATOM     30  C   UNL     1      -7.303   0.539   0.364  0.00  0.00    -0.064 A 
ATOM     31  C   UNL     1      -8.376   1.398   0.516  0.00  0.00    +0.005 A 
ATOM     32  C   UNL     1      -9.288   1.554  -0.509  0.00  0.00    +0.046 A 
BRANCH  27  33
ATOM     33  O   UNL     1     -10.032   0.989  -2.697  0.00  0.00    -0.492 OA
BRANCH  33  35
ATOM     34  C   UNL     1     -11.998   1.955  -3.719  0.00  0.00    +0.048 C 
ATOM     35  C   UNL     1     -11.048   1.978  -2.520  0.00  0.00    +0.225 C 
ENDBRANCH  33  35
ENDBRANCH  27  33
ENDBRANCH  26  30
ENDBRANCH  24  26
BRANCH  24  36
ATOM     36  C   UNL     1      -4.820   1.786   2.770  0.00  0.00    -0.001 C 
BRANCH  36  37
ATOM     37  C   UNL     1      -5.916   2.426   3.582  0.00  0.00    +0.089 A 
ATOM     38  C   UNL     1      -6.735   1.789   4.439  0.00  0.00    +0.042 A 
ATOM     39  C   UNL     1      -7.604   2.765   4.977  0.00  0.00    +0.041 A 
ATOM     40  C   UNL     1      -7.266   3.941   4.417  0.00  0.00    +0.195 A 
ATOM     41  O   UNL     1      -6.239   3.730   3.577  0.00  0.00    -0.470 OA
ENDBRANCH  36  37
ENDBRANCH  24  36
ENDBRANCH   1  24
TORSDOF 10
