REMARK  Name = ZINC58850529
REMARK  5 active torsions:
REMARK  status: ('A' for Active; 'I' for Inactive)
REMARK    1  A    between atoms: C_3  and  C_6
REMARK    2  A    between atoms: C_6  and  C_8
REMARK    3  A    between atoms: C_6  and  N_21
REMARK    4  A    between atoms: C_8  and  N_9
REMARK    5  A    between atoms: N_12  and  C_13
REMARK                            x       y       z     vdW  Elec       q    Type
REMARK                         _______ _______ _______ _____ _____    ______ ____
ROOT
ATOM      1  N   UNL     1       3.492   1.630  -2.267  0.00  0.00    -0.300 N 
ATOM      2  C   UNL     1       3.673   1.704  -3.600  0.00  0.00    +0.304 C 
ATOM      3  O   UNL     1       4.258   0.812  -4.185  0.00  0.00    -0.253 OA
ATOM      4  N   UNL     1       3.204   2.765  -4.287  0.00  0.00    -0.268 N 
ATOM      5  H   UNL     1       3.025   2.341  -1.801  0.00  0.00    +0.150 HD
ATOM      6  H   UNL     1       2.676   3.441  -3.833  0.00  0.00    +0.156 HD
ENDROOT
BRANCH   4   7
ATOM      7  C   UNL     1       3.480   2.892  -5.653  0.00  0.00    +0.049 A 
ATOM      8  C   UNL     1       3.581   1.760  -6.451  0.00  0.00    +0.025 A 
ATOM      9  C   UNL     1       3.853   1.888  -7.799  0.00  0.00    +0.017 A 
ATOM     10  C   UNL     1       4.025   3.143  -8.355  0.00  0.00    +0.019 A 
ATOM     11  C   UNL     1       3.925   4.273  -7.564  0.00  0.00    +0.032 A 
ATOM     12  C   UNL     1       3.648   4.151  -6.215  0.00  0.00    +0.040 A 
ATOM     13 BR   UNL     1       3.505   5.697  -5.135  0.00  0.00    -0.048 Br
ATOM     14 BR   UNL     1       4.397   3.314 -10.201  0.00  0.00    -0.050 Br
ENDBRANCH   4   7
BRANCH   1  15
ATOM     15  C   UNL     1       4.001   0.476  -1.521  0.00  0.00    +0.098 C 
BRANCH  15  16
ATOM     16  C   UNL     1       3.556   0.576  -0.061  0.00  0.00    +0.016 C 
BRANCH  16  17
ATOM     17  N   UNL     1       4.166  -0.513   0.713  0.00  0.00    +0.387 N 
ATOM     18  C   UNL     1       5.636  -0.319   0.799  0.00  0.00    -0.078 C 
ATOM     19  C   UNL     1       6.031  -1.151   2.045  0.00  0.00    -0.020 C 
ATOM     20  C   UNL     1       4.846  -0.914   3.009  0.00  0.00    -0.020 C 
ATOM     21  C   UNL     1       3.673  -0.487   2.107  0.00  0.00    -0.078 C 
ATOM     22  H   UNL     1       3.956  -1.403   0.287  0.00  0.00    -0.081 HD
ENDBRANCH  16  17
BRANCH  16  25
ATOM     23  C   UNL     1      -0.104   0.940   0.174  0.00  0.00    +0.041 A 
ATOM     24  C   UNL     1       1.196   1.494   0.145  0.00  0.00    +0.043 A 
ATOM     25  C   UNL     1       2.054   0.466   0.015  0.00  0.00    +0.093 A 
ATOM     26  O   UNL     1       1.347  -0.674  -0.036  0.00  0.00    -0.469 OA
ATOM     27  C   UNL     1       0.037  -0.393   0.060  0.00  0.00    +0.195 A 
ENDBRANCH  16  25
ENDBRANCH  15  16
ENDBRANCH   1  15
TORSDOF 5
