REMARK  Name = ZINC63022810
REMARK  5 active torsions:
REMARK  status: ('A' for Active; 'I' for Inactive)
REMARK    1  A    between atoms: C_1  and  S_2
REMARK    2  A    between atoms: S_2  and  C_3
REMARK    3  A    between atoms: C_5  and  N_21
REMARK    4  A    between atoms: N_11  and  C_12
REMARK    5  A    between atoms: C_12  and  C_13
REMARK                            x       y       z     vdW  Elec       q    Type
REMARK                         _______ _______ _______ _____ _____    ______ ____
ROOT
ATOM      1  C   UNL     1      -1.702  -0.454   0.016  0.00  0.00    +0.018 A 
ATOM      2  C   UNL     1      -2.679   0.525   0.025  0.00  0.00    +0.038 A 
ATOM      3  C   UNL     1      -4.026   0.170   0.036  0.00  0.00    +0.028 A 
ATOM      4  C   UNL     1      -4.404  -1.162   0.038  0.00  0.00    +0.049 A 
ATOM      5  C   UNL     1      -3.434  -2.160   0.029  0.00  0.00    +0.052 A 
ATOM      6  C   UNL     1      -2.075  -1.806   0.012  0.00  0.00    +0.013 A 
ATOM      7  C   UNL     1      -1.326  -3.066  -0.002  0.00  0.00    +0.029 A 
ATOM      8  C   UNL     1      -2.228  -4.059   0.002  0.00  0.00    +0.087 A 
ATOM      9  N   UNL     1      -3.496  -3.536   0.029  0.00  0.00    -0.342 N 
ENDROOT
BRANCH   3  10
ATOM     10  N   UNL     1      -5.005   1.168   0.046  0.00  0.00    -0.358 N 
ATOM     11  H   UNL     1      -4.745   2.103   0.045  0.00  0.00    +0.142 HD
ATOM     12  H   UNL     1      -5.944   0.926   0.054  0.00  0.00    +0.142 HD
ENDBRANCH   3  10
BRANCH   1  14
ATOM     13  C   UNL     1      -0.022   1.810   0.012  0.00  0.00    +0.090 C 
ATOM     14  S   UNL     1       0.002  -0.004   0.002  0.00  0.00    -0.128 S 
ENDBRANCH   1  14
BRANCH   9  15
ATOM     15  C   UNL     1      -4.731  -4.323   0.039  0.00  0.00    +0.158 C 
BRANCH  15  16
ATOM     16  C   UNL     1      -5.234  -4.488  -1.373  0.00  0.00    -0.014 A 
ATOM     17  C   UNL     1      -6.179  -3.613  -1.876  0.00  0.00    +0.009 A 
ATOM     18  C   UNL     1      -6.640  -3.762  -3.170  0.00  0.00    +0.039 A 
ATOM     19  C   UNL     1      -6.155  -4.789  -3.963  0.00  0.00    +0.124 A 
ATOM     20  C   UNL     1      -5.209  -5.665  -3.459  0.00  0.00    +0.054 A 
ATOM     21  C   UNL     1      -4.745  -5.510  -2.166  0.00  0.00    +0.025 A 
ATOM     22 BR   UNL     1      -3.447  -6.702  -1.479  0.00  0.00    -0.050 Br
ATOM     23  F   UNL     1      -6.606  -4.936  -5.228  0.00  0.00    -0.205 F 
ENDBRANCH  15  16
ENDBRANCH   9  15
TORSDOF 4
