REMARK  Name = ZINC14196819
REMARK  6 active torsions:
REMARK  status: ('A' for Active; 'I' for Inactive)
REMARK    1  A    between atoms: C_1  and  C_2
REMARK    2  A    between atoms: C_7  and  N_12
REMARK    3  A    between atoms: C_9  and  C_11
REMARK    4  A    between atoms: C_16  and  C_18
REMARK    5  A    between atoms: C_18  and  N_19
REMARK    6  A    between atoms: C_27  and  C_29
REMARK                            x       y       z     vdW  Elec       q    Type
REMARK                         _______ _______ _______ _____ _____    ______ ____
ROOT
ATOM      1  N   UNL     1      -0.612  -2.548   1.244  0.00  0.00    -0.296 N 
ATOM      2  C   UNL     1      -0.873  -3.776   1.733  0.00  0.00    +0.306 C 
ATOM      3  O   UNL     1       0.032  -4.463   2.165  0.00  0.00    -0.252 OA
ATOM      4  N   UNL     1      -2.137  -4.243   1.742  0.00  0.00    -0.239 N 
ATOM      5  C   UNL     1      -2.399  -5.471   2.232  0.00  0.00    +0.234 C 
ATOM      6  O   UNL     1      -1.497  -6.156   2.663  0.00  0.00    -0.274 OA
ATOM      7  H   UNL     1      -1.333  -2.000   0.898  0.00  0.00    +0.151 HD
ATOM      8  H   UNL     1      -2.859  -3.694   1.397  0.00  0.00    +0.159 HD
ENDROOT
BRANCH   1  14
ATOM      9  C   UNL     1      -0.019   1.526   0.010  0.00  0.00    +0.008 C 
ATOM     10  C   UNL     1       0.002  -0.004   0.002  0.00  0.00    -0.009 C 
ATOM     11  C   UNL     1       0.718  -0.497  -1.257  0.00  0.00    +0.003 C 
ATOM     12  C   UNL     1       0.739  -2.027  -1.265  0.00  0.00    +0.002 C 
ATOM     13  C   UNL     1       1.479  -2.534  -0.026  0.00  0.00    +0.022 C 
ATOM     14  C   UNL     1       0.763  -2.041   1.233  0.00  0.00    +0.078 C 
ATOM     15  C   UNL     1       0.742  -0.511   1.242  0.00  0.00    +0.009 C 
ATOM     16  C   UNL     1       0.026  -0.018   2.500  0.00  0.00    +0.009 C 
ENDBRANCH   1  14
BRANCH   5  17
ATOM     17  C   UNL     1      -3.813  -5.993   2.242  0.00  0.00    +0.181 C 
BRANCH  17  18
ATOM     18  N   UNL     1      -3.832  -7.343   2.821  0.00  0.00    -0.284 NA
ATOM     19  C   UNL     1      -3.455  -7.313   4.241  0.00  0.00    +0.107 C 
ATOM     20  C   UNL     1      -3.112  -8.730   4.716  0.00  0.00    +0.137 C 
ATOM     21  N   UNL     1      -4.204  -9.626   4.316  0.00  0.00    -0.348 N 
ATOM     22  C   UNL     1      -4.476 -10.872   4.780  0.00  0.00    +0.086 A 
ATOM     23  C   UNL     1      -5.573 -11.329   4.140  0.00  0.00    +0.019 A 
ATOM     24  C   UNL     1      -5.993 -10.322   3.245  0.00  0.00    +0.024 A 
ATOM     25  C   UNL     1      -5.140  -9.295   3.372  0.00  0.00    +0.036 A 
ATOM     26  C   UNL     1      -5.148  -7.979   2.633  0.00  0.00    +0.101 C 
ATOM     27  C   UNL     1      -5.396  -8.224   1.143  0.00  0.00    +0.031 C 
ENDBRANCH  17  18
ENDBRANCH   5  17
TORSDOF 3
