REMARK  Name = ZINC65298522
REMARK  6 active torsions:
REMARK  status: ('A' for Active; 'I' for Inactive)
REMARK    1  A    between atoms: C_1  and  C_2
REMARK    2  A    between atoms: C_2  and  O_3
REMARK    3  A    between atoms: O_3  and  C_4
REMARK    4  A    between atoms: C_13  and  C_25
REMARK    5  A    between atoms: C_16  and  C_18
REMARK    6  A    between atoms: C_23  and  O_24
REMARK                            x       y       z     vdW  Elec       q    Type
REMARK                         _______ _______ _______ _____ _____    ______ ____
ROOT
ATOM      1  C   UNL     1       0.776  -1.798  -1.335  0.00  0.00    +0.403 C 
ATOM      2  O   UNL     1       0.312  -2.549  -0.500  0.00  0.00    -0.226 OA
ATOM      3  N   UNL     1       1.395  -2.298  -2.422  0.00  0.00    -0.267 N 
ATOM      4  C   UNL     1       1.966  -1.403  -3.438  0.00  0.00    +0.111 C 
ATOM      5  C   UNL     1       1.405  -1.791  -4.809  0.00  0.00    +0.029 C 
ATOM      6  C   UNL     1       1.674  -3.278  -5.064  0.00  0.00    +0.032 C 
ATOM      7  C   UNL     1       0.957  -4.111  -3.996  0.00  0.00    +0.029 C 
ATOM      8  C   UNL     1       1.518  -3.750  -2.612  0.00  0.00    +0.111 C 
ATOM      9  N   UNL     1       1.152  -3.641  -6.388  0.00  0.00    +0.400 N 
ATOM     10  C   UNL     1       1.550  -5.024  -6.695  0.00  0.00    -0.032 C 
ATOM     11  C   UNL     1       3.066  -5.051  -6.912  0.00  0.00    +0.044 C 
ATOM     12  C   UNL     1       3.741  -4.308  -5.792  0.00  0.00    +0.044 C 
ATOM     13  N   UNL     1       3.110  -3.531  -4.994  0.00  0.00    -0.300 NA
ATOM     14  H   UNL     1       0.146  -3.571  -6.385  0.00  0.00    -0.081 HD
ATOM     15  H   UNL     1       1.533  -3.017  -7.084  0.00  0.00    -0.081 HD
ENDROOT
BRANCH  10  16
ATOM     16  C   UNL     1       0.848  -5.489  -7.945  0.00  0.00    -0.061 A 
ATOM     17  C   UNL     1       0.700  -4.628  -9.015  0.00  0.00    +0.003 A 
ATOM     18  C   UNL     1       0.057  -5.053 -10.162  0.00  0.00    +0.020 A 
ATOM     19  C   UNL     1      -0.440  -6.343 -10.238  0.00  0.00    +0.041 A 
ATOM     20  C   UNL     1      -0.291  -7.205  -9.166  0.00  0.00    +0.020 A 
ATOM     21  C   UNL     1       0.357  -6.780  -8.023  0.00  0.00    +0.003 A 
ATOM     22 CL   UNL     1      -1.248  -6.878 -11.678  0.00  0.00    -0.084 Cl
ENDBRANCH  10  16
BRANCH  12  23
ATOM     23  C   UNL     1       5.193  -4.483  -5.605  0.00  0.00    +0.037 A 
ATOM     24  C   UNL     1       5.916  -5.319  -6.460  0.00  0.00    +0.013 A 
ATOM     25  C   UNL     1       7.273  -5.478  -6.279  0.00  0.00    +0.001 A 
ATOM     26  C   UNL     1       7.924  -4.812  -5.254  0.00  0.00    +0.004 A 
ATOM     27  C   UNL     1       7.221  -3.983  -4.402  0.00  0.00    +0.046 A 
ATOM     28  C   UNL     1       5.857  -3.807  -4.572  0.00  0.00    +0.126 A 
BRANCH  28  29
ATOM     29  O   UNL     1       5.166  -2.989  -3.739  0.00  0.00    -0.506 OA
ATOM     30  H   UNL     1       4.814  -3.432  -2.954  0.00  0.00    +0.292 HD
ENDBRANCH  28  29
ENDBRANCH  12  23
BRANCH   1  31
ATOM     31  O   UNL     1       0.671  -0.465  -1.174  0.00  0.00    -0.451 OA
BRANCH  31  33
ATOM     32  C   UNL     1      -0.019   1.526   0.010  0.00  0.00    +0.048 C 
ATOM     33  C   UNL     1       0.002  -0.004   0.002  0.00  0.00    +0.230 C 
ENDBRANCH  31  33
ENDBRANCH   1  31
TORSDOF 5
