REMARK  Name = ZINC24631192
REMARK  9 active torsions:
REMARK  status: ('A' for Active; 'I' for Inactive)
REMARK    1  A    between atoms: C_4  and  C_7
REMARK    2  A    between atoms: C_8  and  S_9
REMARK    3  A    between atoms: S_9  and  N_12
REMARK    4  A    between atoms: N_12  and  C_13
REMARK    5  A    between atoms: C_16  and  C_19
REMARK    6  A    between atoms: N_21  and  C_22
REMARK    7  A    between atoms: C_22  and  C_23
REMARK    8  A    between atoms: C_23  and  C_25
REMARK    9  A    between atoms: C_23  and  N_30
REMARK                            x       y       z     vdW  Elec       q    Type
REMARK                         _______ _______ _______ _____ _____    ______ ____
ROOT
ATOM      1  C   UNL     1       1.537  -2.462  -5.658  0.00  0.00    +0.048 A 
ATOM      2  C   UNL     1       0.472  -1.637  -6.008  0.00  0.00    +0.025 A 
ATOM      3  C   UNL     1      -0.086  -0.797  -5.071  0.00  0.00    +0.015 A 
ATOM      4  C   UNL     1       0.418  -0.773  -3.768  0.00  0.00    +0.037 A 
ATOM      5  C   UNL     1       1.492  -1.598  -3.421  0.00  0.00    +0.015 A 
ATOM      6  C   UNL     1       2.042  -2.440  -4.360  0.00  0.00    +0.025 A 
ENDROOT
BRANCH   4   7
ATOM      7  C   UNL     1      -0.178   0.127  -2.761  0.00  0.00    +0.244 C 
ATOM      8  O   UNL     1      -1.108   0.848  -3.065  0.00  0.00    -0.270 OA
ATOM      9  N   UNL     1       0.310   0.149  -1.505  0.00  0.00    -0.313 N 
ATOM     10  H   UNL     1       1.152  -0.503  -1.230  0.00  0.00    +0.149 HD
BRANCH   9  11
ATOM     11  C   UNL     1      -0.282   1.043  -0.506  0.00  0.00    +0.094 C 
BRANCH  11  12
ATOM     12  C   UNL     1       0.550   0.994   0.778  0.00  0.00    -0.013 C 
BRANCH  12  13
ATOM     13  N   UNL     1       1.905   1.491   0.502  0.00  0.00    +0.386 N 
ATOM     14  C   UNL     1       2.674   1.665   1.761  0.00  0.00    -0.078 C 
ATOM     15  C   UNL     1       4.147   1.663   1.279  0.00  0.00    -0.020 C 
ATOM     16  C   UNL     1       4.139   0.611   0.147  0.00  0.00    -0.020 C 
ATOM     17  C   UNL     1       2.671   0.520  -0.308  0.00  0.00    -0.078 C 
ATOM     18  H   UNL     1       1.772   2.445  -0.030  0.00  0.00    -0.081 HD
ENDBRANCH  12  13
BRANCH  12  19
ATOM     19  C   UNL     1      -0.098   1.858   1.829  0.00  0.00    -0.022 A 
ATOM     20  C   UNL     1      -0.780   1.484   2.939  0.00  0.00    +0.009 A 
ATOM     21  C   UNL     1      -1.293   2.462   3.771  0.00  0.00    +0.008 A 
ATOM     22  C   UNL     1      -1.097   3.765   3.453  0.00  0.00    +0.045 A 
ATOM     23  S   UNL     1      -0.158   3.639   1.940  0.00  0.00    -0.103 S 
ENDBRANCH  12  19
ENDBRANCH  11  12
ENDBRANCH   9  11
ENDBRANCH   4   7
BRANCH   1  24
ATOM     24  N   UNL     1       2.099  -3.309  -6.606  0.00  0.00    -0.217 N 
ATOM     25  H   UNL     1       1.451  -3.938  -7.235  0.00  0.00    +0.174 HD
BRANCH  24  26
ATOM     26  S   UNL     1       3.744  -3.372  -6.790  0.00  0.00    +0.066 S 
ATOM     27  O   UNL     1       4.288  -3.596  -5.497  0.00  0.00    -0.151 OA
ATOM     28  O   UNL     1       3.997  -4.242  -7.884  0.00  0.00    -0.151 OA
BRANCH  26  30
ATOM     29  C   UNL     1       5.064  -1.056  -6.498  0.00  0.00    +0.028 C 
ATOM     30  C   UNL     1       4.274  -1.768  -7.289  0.00  0.00    +0.157 C 
BRANCH  29  34
ATOM     31  C   UNL     1       6.343   2.812  -7.701  0.00  0.00    +0.000 A 
ATOM     32  C   UNL     1       6.753   2.299  -6.484  0.00  0.00    +0.001 A 
ATOM     33  C   UNL     1       6.341   1.043  -6.087  0.00  0.00    +0.008 A 
ATOM     34  C   UNL     1       5.509   0.290  -6.917  0.00  0.00    -0.024 A 
ATOM     35  C   UNL     1       5.104   0.812  -8.146  0.00  0.00    +0.008 A 
ATOM     36  C   UNL     1       5.518   2.071  -8.528  0.00  0.00    +0.001 A 
ENDBRANCH  29  34
ENDBRANCH  26  30
ENDBRANCH  24  26
ENDBRANCH   1  24
TORSDOF 9
