REMARK  Name = ZINC40377282
REMARK  5 active torsions:
REMARK  status: ('A' for Active; 'I' for Inactive)
REMARK    1  A    between atoms: C_4  and  S_7
REMARK    2  A    between atoms: S_7  and  N_10
REMARK    3  A    between atoms: N_10  and  C_11
REMARK    4  A    between atoms: C_11  and  C_18
REMARK    5  A    between atoms: N_19  and  O_20
REMARK                            x       y       z     vdW  Elec       q    Type
REMARK                         _______ _______ _______ _____ _____    ______ ____
ROOT
ATOM      1  C   UNL     1       3.720  -1.893   2.417  0.00  0.00    +0.098 C 
ATOM      2  C   UNL     1       3.750  -3.367   1.965  0.00  0.00    +0.031 C 
ATOM      3  C   UNL     1       5.111  -3.665   1.396  0.00  0.00    +0.002 C 
ATOM      4  C   UNL     1       6.069  -4.264   2.443  0.00  0.00    +0.000 C 
ATOM      5  C   UNL     1       5.965  -3.570   3.814  0.00  0.00    +0.000 C 
ATOM      6  C   UNL     1       5.849  -2.075   3.697  0.00  0.00    +0.002 C 
ATOM      7  C   UNL     1       4.354  -1.696   3.711  0.00  0.00    +0.031 C 
ENDROOT
BRANCH   1   8
ATOM      8  C   UNL     1       2.285  -1.440   2.503  0.00  0.00    +0.153 C 
ATOM      9  N   UNL     1       2.011  -0.189   2.667  0.00  0.00    -0.075 NA
ATOM     10  N   UNL     1       1.265  -2.361   2.406  0.00  0.00    -0.342 N 
ATOM     11  H   UNL     1       1.470  -3.308   2.359  0.00  0.00    +0.144 HD
ATOM     12  H   UNL     1       0.343  -2.063   2.384  0.00  0.00    +0.144 HD
BRANCH   9  13
ATOM     13  O   UNL     1       3.055   0.768   2.689  0.00  0.00    -0.408 OA
ATOM     14  H   UNL     1       2.753   1.677   2.817  0.00  0.00    +0.328 HD
ENDBRANCH   9  13
ENDBRANCH   1   8
BRANCH   1  15
ATOM     15  N   UNL     1       4.415  -1.077   1.418  0.00  0.00    -0.177 NA
ATOM     16  H   UNL     1       5.181  -0.542   1.677  0.00  0.00    +0.149 HD
BRANCH  15  17
ATOM     17  S   UNL     1       3.892  -1.068  -0.153  0.00  0.00    +0.059 S 
ATOM     18  O   UNL     1       3.694  -2.425  -0.523  0.00  0.00    -0.153 OA
ATOM     19  O   UNL     1       4.766  -0.204  -0.867  0.00  0.00    -0.153 OA
BRANCH  17  23
ATOM     20  C   UNL     1      -0.187   0.894  -0.198  0.00  0.00    +0.000 A 
ATOM     21  C   UNL     1       0.955   1.673  -0.215  0.00  0.00    +0.002 A 
ATOM     22  C   UNL     1       2.200   1.074  -0.201  0.00  0.00    +0.028 A 
ATOM     23  C   UNL     1       2.304  -0.304  -0.170  0.00  0.00    +0.105 A 
ATOM     24  C   UNL     1       1.163  -1.083  -0.152  0.00  0.00    +0.028 A 
ATOM     25  C   UNL     1      -0.083  -0.484  -0.168  0.00  0.00    +0.002 A 
ENDBRANCH  17  23
ENDBRANCH  15  17
ENDBRANCH   1  15
TORSDOF 5
