REMARK  Name = ZINC38582778
REMARK  8 active torsions:
REMARK  status: ('A' for Active; 'I' for Inactive)
REMARK    1  A    between atoms: C_1  and  O_2
REMARK    2  A    between atoms: O_2  and  C_3
REMARK    3  A    between atoms: C_3  and  C_4
REMARK    4  A    between atoms: C_4  and  O_5
REMARK    5  A    between atoms: O_5  and  C_6
REMARK    6  A    between atoms: C_6  and  C_8
REMARK    7  A    between atoms: C_9  and  N_32
REMARK    8  A    between atoms: C_23  and  C_25
REMARK                            x       y       z     vdW  Elec       q    Type
REMARK                         _______ _______ _______ _____ _____    ______ ____
ROOT
ATOM      1  C   UNL     1       0.254  -4.372   2.545  0.00  0.00    +0.102 C 
ATOM      2  C   UNL     1       0.374  -5.712   2.699  0.00  0.00    +0.194 C 
ATOM      3  O   UNL     1       0.952  -6.255   3.796  0.00  0.00    -0.445 OA
ATOM      4  C   UNL     1       1.568  -5.412   4.628  0.00  0.00    +0.129 C 
ATOM      5  C   UNL     1       2.778  -5.693   5.242  0.00  0.00    +0.035 A 
ATOM      6  C   UNL     1       3.433  -6.926   5.042  0.00  0.00    +0.013 A 
ATOM      7  C   UNL     1       4.615  -7.170   5.671  0.00  0.00    +0.001 A 
ATOM      8  C   UNL     1       5.196  -6.225   6.511  0.00  0.00    +0.002 A 
ATOM      9  C   UNL     1       4.615  -5.014   6.740  0.00  0.00    +0.024 A 
ATOM     10  C   UNL     1       3.395  -4.692   6.122  0.00  0.00    +0.044 A 
ATOM     11  N   UNL     1       2.828  -3.499   6.341  0.00  0.00    -0.284 N 
ATOM     12  C   UNL     1       1.676  -3.126   5.820  0.00  0.00    +0.229 C 
ATOM     13  O   UNL     1       1.228  -2.020   6.062  0.00  0.00    -0.275 OA
ATOM     14  C   UNL     1       0.913  -4.072   4.920  0.00  0.00    +0.154 C 
ATOM     15  C   UNL     1       0.770  -3.385   3.556  0.00  0.00    +0.082 C 
ATOM     16  H   UNL     1       3.293  -2.872   6.917  0.00  0.00    +0.155 HD
ENDROOT
BRANCH  15  17
ATOM     17  C   UNL     1      -0.198  -2.237   3.674  0.00  0.00    -0.020 A 
ATOM     18  C   UNL     1      -1.501  -2.469   4.075  0.00  0.00    +0.006 A 
ATOM     19  C   UNL     1      -2.389  -1.415   4.184  0.00  0.00    +0.000 A 
ATOM     20  C   UNL     1      -1.975  -0.129   3.892  0.00  0.00    +0.001 A 
ATOM     21  C   UNL     1      -0.674   0.105   3.491  0.00  0.00    +0.020 A 
ATOM     22  C   UNL     1       0.218  -0.949   3.388  0.00  0.00    +0.045 A 
ATOM     23 CL   UNL     1       1.855  -0.655   2.890  0.00  0.00    -0.083 Cl
ENDBRANCH  15  17
BRANCH   2  24
ATOM     24  N   UNL     1      -0.103  -6.540   1.719  0.00  0.00    -0.329 N 
ATOM     25  H   UNL     1      -0.438  -6.167   0.889  0.00  0.00    +0.145 HD
ATOM     26  H   UNL     1      -0.105  -7.501   1.855  0.00  0.00    +0.145 HD
ENDBRANCH   2  24
BRANCH   1  27
ATOM     27  C   UNL     1      -0.375  -3.883   1.388  0.00  0.00    +0.341 C 
ATOM     28  O   UNL     1       0.292  -3.405   0.488  0.00  0.00    -0.245 OA
BRANCH  27  29
ATOM     29  O   UNL     1      -1.719  -3.942   1.274  0.00  0.00    -0.459 OA
BRANCH  29  30
ATOM     30  C   UNL     1      -2.291  -3.426   0.070  0.00  0.00    +0.260 C 
BRANCH  30  31
ATOM     31  C   UNL     1      -3.813  -3.578   0.123  0.00  0.00    +0.200 C 
BRANCH  31  33
ATOM     32  C   UNL     1      -5.758  -2.830   1.306  0.00  0.00    +0.194 C 
ATOM     33  O   UNL     1      -4.337  -2.761   1.171  0.00  0.00    -0.380 OA
ENDBRANCH  31  33
ENDBRANCH  30  31
ENDBRANCH  29  30
ENDBRANCH  27  29
ENDBRANCH   1  27
TORSDOF 7
