REMARK  Name = ZINC66375499
REMARK  7 active torsions:
REMARK  status: ('A' for Active; 'I' for Inactive)
REMARK    1  A    between atoms: C_1  and  C_2
REMARK    2  A    between atoms: C_8  and  N_10
REMARK    3  A    between atoms: C_14  and  C_16
REMARK    4  A    between atoms: C_16  and  N_17
REMARK    5  A    between atoms: N_17  and  C_18
REMARK    6  A    between atoms: C_20  and  N_26
REMARK    7  A    between atoms: C_27  and  C_29
REMARK                            x       y       z     vdW  Elec       q    Type
REMARK                         _______ _______ _______ _____ _____    ______ ____
ROOT
ATOM      1  C   UNL     1       0.076   1.175   7.089  0.00  0.00    +0.198 C 
ENDROOT
BRANCH   1   6
ATOM      2  N   UNL     1       0.036   0.008   2.426  0.00  0.00    -0.296 N 
ATOM      3  C   UNL     1       0.722   0.139   3.579  0.00  0.00    +0.306 C 
ATOM      4  O   UNL     1       1.907  -0.127   3.615  0.00  0.00    -0.252 OA
ATOM      5  N   UNL     1       0.093   0.566   4.692  0.00  0.00    -0.239 N 
ATOM      6  C   UNL     1       0.779   0.698   5.845  0.00  0.00    +0.237 C 
ATOM      7  O   UNL     1       1.961   0.432   5.880  0.00  0.00    -0.274 OA
ATOM      8  H   UNL     1      -0.910   0.220   2.398  0.00  0.00    +0.151 HD
ATOM      9  H   UNL     1      -0.853   0.779   4.663  0.00  0.00    +0.159 HD
BRANCH   2  16
ATOM     10  C   UNL     1      -0.059   1.580  -0.004  0.00  0.00    +0.009 C 
ATOM     11  C   UNL     1      -0.029   0.051  -0.018  0.00  0.00    +0.006 C 
ATOM     12  C   UNL     1       0.685  -0.434  -1.282  0.00  0.00    +0.005 C 
ATOM     13  C   UNL     1       0.714  -1.964  -1.296  0.00  0.00    +0.000 C 
ATOM     14  C   UNL     1       1.463  -2.471  -0.061  0.00  0.00    +0.002 C 
ATOM     15  C   UNL     1       0.749  -1.986   1.202  0.00  0.00    +0.022 C 
ATOM     16  C   UNL     1       0.719  -0.456   1.216  0.00  0.00    +0.077 C 
ENDBRANCH   2  16
ENDBRANCH   1   6
BRANCH   1  17
ATOM     17  N   UNL     1       1.031   1.233   8.198  0.00  0.00    -0.333 N 
ATOM     18  H   UNL     1       1.957   0.982   8.054  0.00  0.00    +0.147 HD
BRANCH  17  19
ATOM     19  C   UNL     1       0.609   1.651   9.466  0.00  0.00    +0.065 A 
ATOM     20  C   UNL     1      -0.717   2.005   9.673  0.00  0.00    +0.052 A 
ATOM     21  C   UNL     1      -1.133   2.418  10.930  0.00  0.00    +0.071 A 
ATOM     22  C   UNL     1      -0.222   2.477  11.979  0.00  0.00    +0.147 A 
ATOM     23  C   UNL     1       1.099   2.123  11.770  0.00  0.00    +0.080 A 
ATOM     24  C   UNL     1       1.515   1.706  10.518  0.00  0.00    +0.147 A 
ATOM     25  F   UNL     1       2.805   1.356  10.318  0.00  0.00    -0.203 F 
ATOM     26  F   UNL     1      -0.627   2.880  13.203  0.00  0.00    -0.203 F 
BRANCH  21  27
ATOM     27  N   UNL     1      -2.471   2.777  11.143  0.00  0.00    -0.283 N 
ATOM     28  C   UNL     1      -3.437   2.278  10.347  0.00  0.00    +0.214 C 
ATOM     29  O   UNL     1      -3.163   1.442   9.512  0.00  0.00    -0.276 OA
ATOM     30  C   UNL     1      -4.858   2.759  10.494  0.00  0.00    +0.109 C 
ATOM     31  H   UNL     1      -2.702   3.385  11.863  0.00  0.00    +0.155 HD
ENDBRANCH  21  27
ENDBRANCH  17  19
ENDBRANCH   1  17
TORSDOF 5
