REMARK  Name = ZINC36688706
REMARK  8 active torsions:
REMARK  status: ('A' for Active; 'I' for Inactive)
REMARK    1  A    between atoms: C_1  and  C_2
REMARK    2  A    between atoms: C_2  and  C_4
REMARK    3  A    between atoms: C_2  and  N_20
REMARK    4  A    between atoms: N_6  and  C_7
REMARK    5  A    between atoms: C_21  and  C_23
REMARK    6  A    between atoms: C_24  and  C_25
REMARK    7  A    between atoms: C_28  and  O_31
REMARK    8  A    between atoms: O_31  and  C_32
REMARK                            x       y       z     vdW  Elec       q    Type
REMARK                         _______ _______ _______ _____ _____    ______ ____
ROOT
ATOM      1  C   UNL     1      -1.474  -0.391   0.094  0.00  0.00    +0.237 C 
ATOM      2  O   UNL     1      -1.913  -0.968   1.067  0.00  0.00    -0.273 OA
ATOM      3  N   UNL     1      -2.256  -0.206  -0.988  0.00  0.00    -0.284 N 
ATOM      4  H   UNL     1      -1.932   0.321  -1.736  0.00  0.00    +0.155 HD
ENDROOT
BRANCH   3   5
ATOM      5  C   UNL     1      -3.535  -0.774  -1.034  0.00  0.00    +0.037 A 
ATOM      6  C   UNL     1      -4.562  -0.118  -1.700  0.00  0.00    +0.027 A 
ATOM      7  C   UNL     1      -5.826  -0.677  -1.746  0.00  0.00    +0.051 A 
ATOM      8  C   UNL     1      -6.070  -1.891  -1.130  0.00  0.00    +0.167 A 
ATOM      9  C   UNL     1      -5.040  -2.553  -0.461  0.00  0.00    +0.169 A 
ATOM     10  C   UNL     1      -3.775  -1.996  -0.418  0.00  0.00    +0.073 A 
ATOM     11  O   UNL     1      -5.540  -3.721   0.052  0.00  0.00    -0.447 OA
ATOM     12  C   UNL     1      -6.956  -3.495   0.105  0.00  0.00    +0.254 C 
ATOM     13  O   UNL     1      -7.207  -2.651  -1.028  0.00  0.00    -0.448 OA
ATOM     14  C   UNL     1      -7.361  -2.808   1.413  0.00  0.00    +0.093 C 
ATOM     15  C   UNL     1      -8.751  -3.413   1.740  0.00  0.00    +0.008 C 
ATOM     16  C   UNL     1      -8.601  -4.888   1.287  0.00  0.00    +0.008 C 
ATOM     17  C   UNL     1      -7.736  -4.807   0.009  0.00  0.00    +0.093 C 
ENDBRANCH   3   5
BRANCH   1  19
ATOM     18  C   UNL     1      -0.058   1.635  -0.103  0.00  0.00    +0.038 C 
ATOM     19  C   UNL     1      -0.056   0.118   0.096  0.00  0.00    +0.156 C 
BRANCH  19  20
ATOM     20  N   UNL     1       0.578  -0.206   1.377  0.00  0.00    -0.301 N 
ATOM     21  C   UNL     1       1.918  -0.323   1.455  0.00  0.00    +0.237 C 
ATOM     22  O   UNL     1       2.602  -0.160   0.461  0.00  0.00    -0.271 OA
ATOM     23  H   UNL     1       0.032  -0.335   2.168  0.00  0.00    +0.150 HD
BRANCH  21  24
ATOM     24  C   UNL     1       2.550  -0.646   2.733  0.00  0.00    +0.068 C 
ATOM     25  C   UNL     1       3.893  -0.764   2.812  0.00  0.00    +0.013 C 
BRANCH  25  26
ATOM     26  C   UNL     1       4.528  -1.088   4.097  0.00  0.00    -0.025 A 
ATOM     27  C   UNL     1       3.744  -1.282   5.239  0.00  0.00    +0.011 A 
ATOM     28  C   UNL     1       4.344  -1.585   6.440  0.00  0.00    +0.046 A 
ATOM     29  C   UNL     1       5.727  -1.700   6.519  0.00  0.00    +0.120 A 
ATOM     30  C   UNL     1       6.511  -1.509   5.388  0.00  0.00    +0.046 A 
ATOM     31  C   UNL     1       5.920  -1.211   4.181  0.00  0.00    +0.011 A 
BRANCH  29  32
ATOM     32  O   UNL     1       6.314  -2.000   7.706  0.00  0.00    -0.495 OA
ATOM     33  C   UNL     1       7.739  -2.103   7.717  0.00  0.00    +0.277 C 
ENDBRANCH  29  32
ENDBRANCH  25  26
ENDBRANCH  21  24
ENDBRANCH  19  20
ENDBRANCH   1  19
TORSDOF 6
