REMARK  Name = ZINC45555407
REMARK  7 active torsions:
REMARK  status: ('A' for Active; 'I' for Inactive)
REMARK    1  A    between atoms: C_1  and  C_2
REMARK    2  A    between atoms: C_11  and  N_32
REMARK    3  A    between atoms: C_13  and  S_15
REMARK    4  A    between atoms: S_15  and  C_16
REMARK    5  A    between atoms: C_16  and  C_17
REMARK    6  A    between atoms: C_26  and  S_28
REMARK    7  A    between atoms: S_28  and  N_31
REMARK                            x       y       z     vdW  Elec       q    Type
REMARK                         _______ _______ _______ _____ _____    ______ ____
ROOT
ATOM      1  S   UNL     1      -0.503  -8.313   2.590  0.00  0.00    -0.077 S 
ENDROOT
BRANCH   1  13
ATOM      2  C   UNL     1       0.559   1.283  -0.694  0.00  0.00    +0.008 C 
ATOM      3  C   UNL     1       0.440  -0.235  -0.549  0.00  0.00    -0.009 C 
ATOM      4  C   UNL     1      -1.037  -0.626  -0.433  0.00  0.00    +0.008 C 
ATOM      5  C   UNL     1      -1.180  -2.144  -0.537  0.00  0.00    +0.037 C 
ATOM      6  C   UNL     1      -0.249  -2.800   0.478  0.00  0.00    -0.025 A 
ATOM      7  C   UNL     1       0.784  -2.109   1.010  0.00  0.00    -0.004 A 
ATOM      8  S   UNL     1       1.583  -3.241   2.119  0.00  0.00    -0.073 S 
ATOM      9  C   UNL     1       0.535  -4.638   1.872  0.00  0.00    +0.115 A 
ATOM     10  C   UNL     1      -0.412  -4.175   0.924  0.00  0.00    +0.051 A 
ATOM     11  C   UNL     1      -1.418  -5.097   0.513  0.00  0.00    +0.129 A 
ATOM     12  N   UNL     1      -1.361  -6.306   1.065  0.00  0.00    -0.207 NA
ATOM     13  C   UNL     1      -0.444  -6.673   1.948  0.00  0.00    +0.191 A 
ATOM     14  N   UNL     1       0.523  -5.857   2.374  0.00  0.00    -0.214 NA
ATOM     15  C   UNL     1       1.173  -0.691   0.721  0.00  0.00    +0.046 C 
BRANCH  11  16
ATOM     16  N   UNL     1      -2.394  -4.756  -0.406  0.00  0.00    -0.343 N 
ATOM     17  H   UNL     1      -2.277  -3.975  -0.970  0.00  0.00    +0.144 HD
ATOM     18  H   UNL     1      -3.195  -5.297  -0.486  0.00  0.00    +0.144 HD
ENDBRANCH  11  16
ENDBRANCH   1  13
BRANCH   1  19
ATOM     19  C   UNL     1      -1.936  -9.056   1.763  0.00  0.00    +0.173 C 
BRANCH  19  20
ATOM     20  C   UNL     1      -2.102 -10.479   2.229  0.00  0.00    +0.230 C 
ATOM     21  O   UNL     1      -1.329 -10.947   3.039  0.00  0.00    -0.274 OA
ATOM     22  N   UNL     1      -3.109 -11.234   1.745  0.00  0.00    -0.270 N 
ATOM     23  C   UNL     1      -4.098 -10.784   0.762  0.00  0.00    +0.118 C 
ATOM     24  C   UNL     1      -5.023 -11.992   0.539  0.00  0.00    +0.056 C 
ATOM     25  C   UNL     1      -4.467 -13.069   1.443  0.00  0.00    -0.023 A 
ATOM     26  C   UNL     1      -3.360 -12.562   2.104  0.00  0.00    +0.040 A 
ATOM     27  C   UNL     1      -2.669 -13.382   2.998  0.00  0.00    +0.026 A 
ATOM     28  C   UNL     1      -3.084 -14.680   3.213  0.00  0.00    +0.030 A 
ATOM     29  C   UNL     1      -4.188 -15.177   2.545  0.00  0.00    +0.105 A 
ATOM     30  C   UNL     1      -4.882 -14.368   1.665  0.00  0.00    +0.034 A 
BRANCH  29  31
ATOM     31  S   UNL     1      -4.714 -16.836   2.823  0.00  0.00    +0.056 S 
ATOM     32  O   UNL     1      -5.443 -17.229   1.669  0.00  0.00    -0.153 OA
ATOM     33  O   UNL     1      -3.577 -17.551   3.286  0.00  0.00    -0.153 OA
BRANCH  31  34
ATOM     34  N   UNL     1      -5.795 -16.802   4.077  0.00  0.00    -0.204 NA
ATOM     35  H   UNL     1      -6.019 -15.960   4.503  0.00  0.00    +0.144 HD
ATOM     36  H   UNL     1      -6.205 -17.626   4.386  0.00  0.00    +0.144 HD
ENDBRANCH  31  34
ENDBRANCH  29  31
ENDBRANCH  19  20
ENDBRANCH   1  19
TORSDOF 6
