REMARK  Name = ZINC21056835
REMARK  14 active torsions:
REMARK  status: ('A' for Active; 'I' for Inactive)
REMARK    1  A    between atoms: C_1  and  C_2
REMARK    2  A    between atoms: C_2  and  C_4
REMARK    3  A    between atoms: C_2  and  O_25
REMARK    4  A    between atoms: N_6  and  C_7
REMARK    5  A    between atoms: N_6  and  C_11
REMARK    6  A    between atoms: C_7  and  C_8
REMARK    7  A    between atoms: C_8  and  C_9
REMARK    8  A    between atoms: C_8  and  C_10
REMARK    9  A    between atoms: C_12  and  N_24
REMARK   10  A    between atoms: N_13  and  C_20
REMARK   11  A    between atoms: C_20  and  C_21
REMARK   12  A    between atoms: C_21  and  C_22
REMARK   13  A    between atoms: C_21  and  C_23
REMARK   14  A    between atoms: O_25  and  C_26
REMARK                            x       y       z     vdW  Elec       q    Type
REMARK                         _______ _______ _______ _____ _____    ______ ____
ROOT
ATOM      1  C   UNL     1       0.672  -0.912  -1.850  0.00  0.00    +0.260 C 
ATOM      2  O   UNL     1       0.040  -0.553  -0.879  0.00  0.00    -0.271 OA
ATOM      3  N   UNL     1       0.315  -0.490  -3.081  0.00  0.00    -0.261 N 
ENDROOT
BRANCH   3   4
ATOM      4  C   UNL     1       1.108  -0.825  -4.199  0.00  0.00    +0.140 A 
ATOM      5  C   UNL     1       0.582  -1.571  -5.234  0.00  0.00    +0.127 A 
ATOM      6  N   UNL     1       1.380  -1.881  -6.311  0.00  0.00    -0.280 N 
ATOM      7  C   UNL     1       2.658  -1.462  -6.355  0.00  0.00    +0.331 A 
ATOM      8  O   UNL     1       3.346  -1.746  -7.316  0.00  0.00    -0.246 OA
ATOM      9  N   UNL     1       3.187  -0.733  -5.356  0.00  0.00    -0.273 N 
ATOM     10  H   UNL     1       4.110  -0.442  -5.412  0.00  0.00    +0.173 HD
ATOM     11  C   UNL     1       2.447  -0.398  -4.281  0.00  0.00    +0.277 A 
ATOM     12  O   UNL     1       2.935   0.267  -3.383  0.00  0.00    -0.266 OA
BRANCH   5  13
ATOM     13  N   UNL     1      -0.723  -2.001  -5.189  0.00  0.00    -0.343 N 
ATOM     14  H   UNL     1      -1.295  -1.735  -4.452  0.00  0.00    +0.144 HD
ATOM     15  H   UNL     1      -1.071  -2.569  -5.893  0.00  0.00    +0.144 HD
ENDBRANCH   5  13
BRANCH   6  16
ATOM     16  C   UNL     1       0.835  -2.674  -7.416  0.00  0.00    +0.131 C 
BRANCH  16  17
ATOM     17  C   UNL     1       0.225  -1.738  -8.462  0.00  0.00    +0.003 C 
ATOM     18  C   UNL     1       1.327  -0.880  -9.084  0.00  0.00    +0.009 C 
ATOM     19  C   UNL     1      -0.454  -2.568  -9.554  0.00  0.00    +0.009 C 
ENDBRANCH  16  17
ENDBRANCH   6  16
ENDBRANCH   3   4
BRANCH   1  21
ATOM     20  C   UNL     1       1.507  -3.218  -2.220  0.00  0.00    +0.062 C 
ATOM     21  C   UNL     1       1.856  -1.829  -1.682  0.00  0.00    +0.256 C 
BRANCH  21  22
ATOM     22  O   UNL     1       2.191  -1.925  -0.296  0.00  0.00    -0.478 OA
BRANCH  22  23
ATOM     23  C   UNL     1       3.465  -2.291   0.007  0.00  0.00    +0.140 A 
ATOM     24  C   UNL     1       4.354  -2.615  -1.006  0.00  0.00    +0.048 A 
ATOM     25  C   UNL     1       5.648  -2.987  -0.696  0.00  0.00    +0.023 A 
ATOM     26  C   UNL     1       6.058  -3.036   0.625  0.00  0.00    +0.043 A 
ATOM     27  C   UNL     1       5.172  -2.714   1.638  0.00  0.00    +0.043 A 
ATOM     28  C   UNL     1       3.878  -2.336   1.332  0.00  0.00    +0.084 A 
ATOM     29 CL   UNL     1       2.769  -1.925   2.603  0.00  0.00    -0.080 Cl
ATOM     30 CL   UNL     1       7.684  -3.504   1.012  0.00  0.00    -0.083 Cl
ENDBRANCH  22  23
ENDBRANCH  21  22
ENDBRANCH   1  21
BRANCH   3  31
ATOM     31  C   UNL     1      -0.896   0.315  -3.257  0.00  0.00    +0.117 C 
BRANCH  31  32
ATOM     32  C   UNL     1      -0.563   1.792  -3.033  0.00  0.00    +0.001 C 
ATOM     33  C   UNL     1       0.388   2.272  -4.130  0.00  0.00    +0.009 C 
ATOM     34  C   UNL     1      -1.851   2.617  -3.076  0.00  0.00    +0.009 C 
ENDBRANCH  31  32
ENDBRANCH   3  31
TORSDOF 9
