REMARK  Name = ZINC36627144
REMARK  9 active torsions:
REMARK  status: ('A' for Active; 'I' for Inactive)
REMARK    1  A    between atoms: C_1  and  C_2
REMARK    2  A    between atoms: C_2  and  O_3
REMARK    3  A    between atoms: O_3  and  C_4
REMARK    4  A    between atoms: C_4  and  C_6
REMARK    5  A    between atoms: C_7  and  C_20
REMARK    6  A    between atoms: C_12  and  C_14
REMARK    7  A    between atoms: C_20  and  S_21
REMARK    8  A    between atoms: S_21  and  C_22
REMARK    9  A    between atoms: C_25  and  C_28
REMARK                            x       y       z     vdW  Elec       q    Type
REMARK                         _______ _______ _______ _____ _____    ______ ____
ROOT
ATOM      1  C   UNL     1       1.330  -2.340  -2.530  0.00  0.00    +0.079 C 
ATOM      2  C   UNL     1       1.628  -3.654  -2.615  0.00  0.00    +0.034 C 
ATOM      3  N   UNL     1       2.352  -4.147  -3.663  0.00  0.00    -0.272 N 
ATOM      4  C   UNL     1       2.815  -3.390  -4.666  0.00  0.00    +0.304 C 
ATOM      5  O   UNL     1       3.451  -3.920  -5.556  0.00  0.00    -0.252 OA
ATOM      6  N   UNL     1       2.599  -2.061  -4.720  0.00  0.00    -0.288 N 
ATOM      7  C   UNL     1       1.822  -1.432  -3.639  0.00  0.00    +0.144 C 
ATOM      8  H   UNL     1       2.541  -5.098  -3.682  0.00  0.00    +0.156 HD
ATOM      9  H   UNL     1       2.945  -1.532  -5.456  0.00  0.00    +0.151 HD
ENDROOT
BRANCH   7  10
ATOM     10  C   UNL     1       2.682  -0.362  -3.017  0.00  0.00    -0.023 A 
ATOM     11  C   UNL     1       3.996  -0.637  -2.687  0.00  0.00    +0.006 A 
ATOM     12  C   UNL     1       4.785   0.344  -2.116  0.00  0.00    +0.000 A 
ATOM     13  C   UNL     1       4.261   1.600  -1.876  0.00  0.00    +0.000 A 
ATOM     14  C   UNL     1       2.947   1.875  -2.207  0.00  0.00    +0.000 A 
ATOM     15  C   UNL     1       2.159   0.895  -2.781  0.00  0.00    +0.006 A 
ENDBRANCH   7  10
BRANCH   1  16
ATOM     16  C   UNL     1       0.580  -1.828  -1.445  0.00  0.00    +0.339 C 
ATOM     17  O   UNL     1      -0.605  -1.590  -1.584  0.00  0.00    -0.245 OA
BRANCH  16  18
ATOM     18  O   UNL     1       1.179  -1.605  -0.257  0.00  0.00    -0.462 OA
BRANCH  18  20
ATOM     19  C   UNL     1       1.207  -0.901   2.055  0.00  0.00    +0.048 C 
ATOM     20  C   UNL     1       0.360  -1.087   0.794  0.00  0.00    +0.229 C 
ENDBRANCH  18  20
ENDBRANCH  16  18
ENDBRANCH   1  16
BRANCH   2  21
ATOM     21  C   UNL     1       1.153  -4.593  -1.536  0.00  0.00    +0.128 C 
BRANCH  21  22
ATOM     22  S   UNL     1      -0.251  -5.562  -2.152  0.00  0.00    -0.081 S 
BRANCH  22  23
ATOM     23  C   UNL     1      -0.684  -6.596  -0.793  0.00  0.00    +0.185 A 
ATOM     24  N   UNL     1      -0.091  -6.619   0.381  0.00  0.00    -0.201 NA
ATOM     25  H   UNL     1      -2.303  -7.703  -1.494  0.00  0.00    +0.191 HD
ATOM     26  C   UNL     1      -0.685  -7.527   1.169  0.00  0.00    +0.185 A 
ATOM     27  N   UNL     1      -1.666  -8.092   0.502  0.00  0.00    -0.151 NA
ATOM     28  N   UNL     1      -1.689  -7.500  -0.771  0.00  0.00    -0.253 N 
BRANCH  26  29
ATOM     29  C   UNL     1      -0.298  -7.842   2.566  0.00  0.00    +0.056 A 
ATOM     30  C   UNL     1       0.762  -7.166   3.167  0.00  0.00    +0.014 A 
ATOM     31  C   UNL     1       1.118  -7.463   4.467  0.00  0.00    +0.001 A 
ATOM     32  C   UNL     1       0.425  -8.429   5.175  0.00  0.00    +0.003 A 
ATOM     33  C   UNL     1      -0.628  -9.104   4.585  0.00  0.00    +0.039 A 
ATOM     34  C   UNL     1      -0.998  -8.811   3.285  0.00  0.00    +0.134 A 
ATOM     35  F   UNL     1      -2.030  -9.466   2.711  0.00  0.00    -0.205 F 
ENDBRANCH  26  29
ENDBRANCH  22  23
ENDBRANCH  21  22
ENDBRANCH   2  21
TORSDOF 8
