REMARK  Name = ZINC12872903
REMARK  6 active torsions:
REMARK  status: ('A' for Active; 'I' for Inactive)
REMARK    1  A    between atoms: C_1  and  C_2
REMARK    2  A    between atoms: C_16  and  C_18
REMARK    3  A    between atoms: C_18  and  C_19
REMARK    4  A    between atoms: N_27  and  C_30
REMARK    5  A    between atoms: C_33  and  C_36
REMARK    6  A    between atoms: C_36  and  C_38
REMARK                            x       y       z     vdW  Elec       q    Type
REMARK                         _______ _______ _______ _____ _____    ______ ____
ROOT
ATOM      1  C   UNL     1       9.945   2.550   1.665  0.00  0.00    +0.047 C 
ATOM      2  C   UNL     1       9.078   1.371   1.300  0.00  0.00    -0.011 A 
ATOM      3  C   UNL     1       9.662   0.186   0.899  0.00  0.00    +0.046 A 
ATOM      4  C   UNL     1       8.874  -0.901   0.562  0.00  0.00    +0.020 A 
ATOM      5  C   UNL     1       7.496  -0.799   0.629  0.00  0.00    +0.006 A 
ATOM      6  C   UNL     1       6.910   0.381   1.028  0.00  0.00    -0.027 A 
ATOM      7  C   UNL     1       7.692   1.482   1.369  0.00  0.00    +0.040 A 
ATOM      8  N   UNL     1       6.879   2.555   1.738  0.00  0.00    -0.286 N 
ATOM      9  C   UNL     1       5.569   2.248   1.668  0.00  0.00    +0.211 C 
ATOM     10  O   UNL     1       4.639   2.981   1.929  0.00  0.00    -0.277 OA
ATOM     11  C   UNL     1       5.484   0.820   1.204  0.00  0.00    +0.050 C 
ATOM     12  C   UNL     1       4.693   0.700  -0.104  0.00  0.00    +0.088 C 
ATOM     13  C   UNL     1       3.933  -0.650   0.023  0.00  0.00    +0.074 C 
ATOM     14  C   UNL     1       4.351  -1.213   1.398  0.00  0.00    -0.053 C 
ATOM     15  C   UNL     1       2.482  -0.231   0.075  0.00  0.00    +0.228 C 
ATOM     16  O   UNL     1       1.538  -0.985   0.180  0.00  0.00    -0.275 OA
ATOM     17  N   UNL     1       2.401   1.101  -0.015  0.00  0.00    -0.210 N 
ATOM     18  C   UNL     1       3.580   1.724  -0.126  0.00  0.00    +0.229 C 
ATOM     19  O   UNL     1       3.733   2.922  -0.226  0.00  0.00    -0.275 OA
ATOM     20 CL   UNL     1      11.391   0.058   0.817  0.00  0.00    -0.083 Cl
ATOM     21  H   UNL     1       7.218   3.422   2.014  0.00  0.00    +0.155 HD
ATOM     22  N   UNL     1       4.783  -0.032   2.148  0.00  0.00    +0.394 N 
ATOM     23  H   UNL     1       3.968   0.461   2.534  0.00  0.00    -0.083 HD
ATOM     24  H   UNL     1       5.410  -0.306   2.913  0.00  0.00    -0.083 HD
ENDROOT
BRANCH  17  25
ATOM     25  C   UNL     1       1.183   1.787   0.000  0.00  0.00    +0.044 A 
ATOM     26  C   UNL     1       0.410   1.802   1.157  0.00  0.00    +0.024 A 
ATOM     27  C   UNL     1      -0.792   2.471   1.175  0.00  0.00    +0.013 A 
ATOM     28  C   UNL     1      -1.232   3.147   0.031  0.00  0.00    +0.017 A 
ATOM     29  C   UNL     1      -0.451   3.128  -1.131  0.00  0.00    +0.013 A 
ATOM     30  C   UNL     1       0.748   2.452  -1.141  0.00  0.00    +0.024 A 
BRANCH  28  31
ATOM     31  C   UNL     1      -2.512   3.867   0.047  0.00  0.00    +0.160 C 
ATOM     32  O   UNL     1      -2.893   4.448  -0.947  0.00  0.00    -0.292 OA
ATOM     33  C   UNL     1      -3.351   3.885   1.299  0.00  0.00    +0.091 C 
ENDBRANCH  28  31
ENDBRANCH  17  25
BRANCH  14  34
ATOM     34  C   UNL     1       3.164  -1.902   2.074  0.00  0.00    +0.020 C 
BRANCH  34  35
ATOM     35  C   UNL     1       3.622  -2.549   3.356  0.00  0.00    -0.049 A 
ATOM     36  C   UNL     1       4.072  -3.856   3.347  0.00  0.00    +0.003 A 
ATOM     37  C   UNL     1       4.496  -4.449   4.522  0.00  0.00    +0.000 A 
ATOM     38  C   UNL     1       4.463  -3.737   5.706  0.00  0.00    +0.000 A 
ATOM     39  C   UNL     1       4.008  -2.432   5.716  0.00  0.00    +0.000 A 
ATOM     40  C   UNL     1       3.588  -1.838   4.540  0.00  0.00    +0.003 A 
ENDBRANCH  34  35
ENDBRANCH  14  34
TORSDOF 4
