REMARK  Name = ZINC31849682
REMARK  6 active torsions:
REMARK  status: ('A' for Active; 'I' for Inactive)
REMARK    1  A    between atoms: C_1  and  O_2
REMARK    2  A    between atoms: O_2  and  C_3
REMARK    3  A    between atoms: C_8  and  O_9
REMARK    4  A    between atoms: O_9  and  C_10
REMARK    5  A    between atoms: C_10  and  C_11
REMARK    6  A    between atoms: C_16  and  C_19
REMARK                            x       y       z     vdW  Elec       q    Type
REMARK                         _______ _______ _______ _____ _____    ______ ____
ROOT
ATOM      1  C   UNL     1       1.125  -4.812  -0.034  0.00  0.00    +0.256 C 
ATOM      2  O   UNL     1       2.117  -4.114  -0.040  0.00  0.00    -0.272 OA
ATOM      3  N   UNL     1       1.247  -6.154  -0.043  0.00  0.00    -0.262 N 
ATOM      4  C   UNL     1       2.508  -6.738  -0.058  0.00  0.00    +0.165 A 
ATOM      5  N   UNL     1       2.836  -8.016  -0.073  0.00  0.00    -0.225 NA
ATOM      6  C   UNL     1       4.104  -8.400  -0.087  0.00  0.00    +0.080 A 
ATOM      7  C   UNL     1       5.091  -7.455  -0.085  0.00  0.00    +0.076 A 
ATOM      8  S   UNL     1       4.115  -5.957  -0.070  0.00  0.00    -0.060 S 
ATOM      9  H   UNL     1       0.454  -6.713  -0.038  0.00  0.00    +0.157 HD
ENDROOT
BRANCH   6  10
ATOM     10  C   UNL     1       4.449  -9.843  -0.103  0.00  0.00    +0.003 A 
ATOM     11  C   UNL     1       5.785 -10.242  -0.111  0.00  0.00    +0.014 A 
ATOM     12  C   UNL     1       6.109 -11.582  -0.127  0.00  0.00    +0.049 A 
ATOM     13  C   UNL     1       5.106 -12.540  -0.135  0.00  0.00    +0.157 A 
ATOM     14  C   UNL     1       3.767 -12.146  -0.127  0.00  0.00    +0.088 A 
ATOM     15  C   UNL     1       3.438 -10.802  -0.105  0.00  0.00    +0.039 A 
ATOM     16  N   UNL     1       3.007 -13.316  -0.139  0.00  0.00    -0.288 N 
ATOM     17  H   UNL     1       2.039 -13.371  -0.137  0.00  0.00    +0.172 HD
ATOM     18  C   UNL     1       3.865 -14.355  -0.153  0.00  0.00    +0.419 A 
ATOM     19  O   UNL     1       3.546 -15.529  -0.166  0.00  0.00    -0.223 OA
ATOM     20  O   UNL     1       5.126 -13.896  -0.151  0.00  0.00    -0.408 OA
ENDBRANCH   6  10
BRANCH   1  21
ATOM     21  C   UNL     1      -0.242  -4.179  -0.018  0.00  0.00    +0.325 C 
BRANCH  21  22
ATOM     22  O   UNL     1      -0.108  -2.756  -0.012  0.00  0.00    -0.479 OA
BRANCH  22  28
ATOM     23  C   UNL     1      -1.201  -0.638   0.010  0.00  0.00    +0.162 A 
ATOM     24  C   UNL     1      -2.374   0.099   0.019  0.00  0.00    +0.049 A 
ATOM     25  C   UNL     1      -3.596  -0.546   0.027  0.00  0.00    +0.004 A 
ATOM     26  C   UNL     1      -3.652  -1.928   0.026  0.00  0.00    +0.004 A 
ATOM     27  C   UNL     1      -2.485  -2.669   0.017  0.00  0.00    +0.049 A 
ATOM     28  C   UNL     1      -1.257  -2.028   0.003  0.00  0.00    +0.163 A 
BRANCH  23  30
ATOM     29  C   UNL     1      -0.017   1.425   0.010  0.00  0.00    +0.277 C 
ATOM     30  O   UNL     1       0.002  -0.004   0.002  0.00  0.00    -0.491 OA
ENDBRANCH  23  30
ENDBRANCH  22  28
ENDBRANCH  21  22
ENDBRANCH   1  21
TORSDOF 5
