REMARK  Name = ZINC59147584
REMARK  9 active torsions:
REMARK  status: ('A' for Active; 'I' for Inactive)
REMARK    1  A    between atoms: C_1  and  C_2
REMARK    2  A    between atoms: C_2  and  C_4
REMARK    3  A    between atoms: C_2  and  S_31
REMARK    4  A    between atoms: N_6  and  N_7
REMARK    5  A    between atoms: N_15  and  C_18
REMARK    6  A    between atoms: C_18  and  C_19
REMARK    7  A    between atoms: C_19  and  N_20
REMARK    8  A    between atoms: S_31  and  C_32
REMARK    9  A    between atoms: C_32  and  C_33
REMARK                            x       y       z     vdW  Elec       q    Type
REMARK                         _______ _______ _______ _____ _____    ______ ____
ROOT
ATOM      1  N   UNL     1      -3.405  -1.142  -1.134  0.00  0.00    -0.174 NA
ATOM      2  C   UNL     1      -4.098  -1.178  -2.246  0.00  0.00    +0.153 C 
ATOM      3  C   UNL     1      -3.629  -0.854  -3.613  0.00  0.00    +0.028 A 
ATOM      4  C   UNL     1      -2.405  -0.440  -4.127  0.00  0.00    +0.012 A 
ATOM      5  C   UNL     1      -2.273  -0.211  -5.482  0.00  0.00    +0.001 A 
ATOM      6  C   UNL     1      -3.356  -0.394  -6.325  0.00  0.00    +0.002 A 
ATOM      7  C   UNL     1      -4.575  -0.804  -5.825  0.00  0.00    +0.024 A 
ATOM      8  C   UNL     1      -4.727  -1.040  -4.463  0.00  0.00    +0.046 A 
ATOM      9  N   UNL     1      -5.824  -1.451  -3.713  0.00  0.00    -0.264 N 
ATOM     10  C   UNL     1      -5.517  -1.557  -2.409  0.00  0.00    +0.271 C 
ATOM     11  O   UNL     1      -6.273  -1.901  -1.521  0.00  0.00    -0.268 OA
ENDROOT
BRANCH   1  14
ATOM     12  C   UNL     1      -1.362  -0.648  -0.015  0.00  0.00    +0.245 C 
ATOM     13  O   UNL     1      -1.795  -1.186   0.982  0.00  0.00    -0.273 OA
ATOM     14  N   UNL     1      -2.119  -0.586  -1.129  0.00  0.00    -0.205 N 
ATOM     15  H   UNL     1      -1.773  -0.156  -1.927  0.00  0.00    +0.177 HD
BRANCH  12  17
ATOM     16  C   UNL     1      -0.071   1.443   0.314  0.00  0.00    +0.029 C 
ATOM     17  C   UNL     1       0.021  -0.050  -0.009  0.00  0.00    +0.131 C 
BRANCH  17  18
ATOM     18  S   UNL     1       1.033  -0.879   1.247  0.00  0.00    -0.144 S 
BRANCH  18  19
ATOM     19  C   UNL     1       2.684  -0.161   1.025  0.00  0.00    +0.105 C 
BRANCH  19  20
ATOM     20  C   UNL     1       3.635  -0.771   2.021  0.00  0.00    -0.038 A 
ATOM     21  C   UNL     1       3.799  -0.193   3.266  0.00  0.00    +0.004 A 
ATOM     22  C   UNL     1       4.672  -0.753   4.179  0.00  0.00    +0.000 A 
ATOM     23  C   UNL     1       5.381  -1.892   3.849  0.00  0.00    +0.000 A 
ATOM     24  C   UNL     1       5.218  -2.471   2.604  0.00  0.00    +0.000 A 
ATOM     25  C   UNL     1       4.341  -1.913   1.692  0.00  0.00    +0.004 A 
ENDBRANCH  19  20
ENDBRANCH  18  19
ENDBRANCH  17  18
ENDBRANCH  12  17
ENDBRANCH   1  14
BRANCH   9  26
ATOM     26  C   UNL     1      -7.146  -1.740  -4.275  0.00  0.00    +0.133 C 
BRANCH  26  27
ATOM     27  C   UNL     1      -7.222  -3.217  -4.666  0.00  0.00    +0.136 C 
BRANCH  27  28
ATOM     28  N   UNL     1      -8.544  -3.506  -5.228  0.00  0.00    -0.233 N 
ATOM     29  C   UNL     1      -9.609  -3.899  -4.506  0.00  0.00    +0.254 C 
ATOM     30  O   UNL     1      -9.627  -4.068  -3.304  0.00  0.00    -0.270 OA
ATOM     31  C   UNL     1     -10.754  -4.090  -5.421  0.00  0.00    +0.049 A 
ATOM     32  C   UNL     1     -12.074  -4.477  -5.253  0.00  0.00    +0.014 A 
ATOM     33  C   UNL     1     -12.912  -4.558  -6.353  0.00  0.00    +0.001 A 
ATOM     34  C   UNL     1     -12.441  -4.255  -7.617  0.00  0.00    +0.001 A 
ATOM     35  C   UNL     1     -11.123  -3.865  -7.801  0.00  0.00    +0.014 A 
ATOM     36  C   UNL     1     -10.274  -3.780  -6.710  0.00  0.00    +0.049 A 
ATOM     37  C   UNL     1      -8.854  -3.407  -6.534  0.00  0.00    +0.254 C 
ATOM     38  O   UNL     1      -8.095  -3.070  -7.419  0.00  0.00    -0.270 OA
ENDBRANCH  27  28
ENDBRANCH  26  27
ENDBRANCH   9  26
TORSDOF 8
