REMARK  Name = ZINC09847511
REMARK  12 active torsions:
REMARK  status: ('A' for Active; 'I' for Inactive)
REMARK    1  A    between atoms: C_1  and  C_2
REMARK    2  A    between atoms: C_2  and  C_4
REMARK    3  A    between atoms: C_2  and  N_12
REMARK    4  A    between atoms: C_13  and  C_15
REMARK    5  A    between atoms: C_15  and  S_16
REMARK    6  A    between atoms: S_16  and  C_17
REMARK    7  A    between atoms: C_20  and  C_29
REMARK    8  A    between atoms: N_21  and  C_22
REMARK    9  A    between atoms: C_29  and  C_31
REMARK   10  A    between atoms: C_29  and  N_56
REMARK   11  A    between atoms: C_32  and  N_56
REMARK   12  A    between atoms: C_33  and  N_56
REMARK                            x       y       z     vdW  Elec       q    Type
REMARK                         _______ _______ _______ _____ _____    ______ ____
ROOT
ATOM      1  C   UNL     1       1.242  -0.434  -0.012  0.00  0.00    +0.197 A 
ATOM      2  N   UNL     1       0.002  -0.004   0.002  0.00  0.00    -0.122 NA
ATOM      3  N   UNL     1      -0.015   1.281   0.009  0.00  0.00    -0.135 NA
ATOM      4  C   UNL     1       1.202   1.746   0.000  0.00  0.00    +0.125 A 
ATOM      5  N   UNL     1       2.049   0.670  -0.014  0.00  0.00    -0.275 N 
ENDROOT
BRANCH   5   6
ATOM      6  C   UNL     1       3.452   0.696  -0.027  0.00  0.00    +0.050 A 
ATOM      7  C   UNL     1       4.148   1.216   1.055  0.00  0.00    +0.029 A 
ATOM      8  C   UNL     1       5.529   1.234   1.043  0.00  0.00    +0.040 A 
ATOM      9  C   UNL     1       6.219   0.746  -0.053  0.00  0.00    +0.124 A 
ATOM     10  C   UNL     1       5.526   0.232  -1.137  0.00  0.00    +0.040 A 
ATOM     11  C   UNL     1       4.146   0.206  -1.125  0.00  0.00    +0.029 A 
ATOM     12  F   UNL     1       7.570   0.770  -0.066  0.00  0.00    -0.205 F 
ENDBRANCH   5   6
BRANCH   4  13
ATOM     13  C   UNL     1       1.603   3.199   0.004  0.00  0.00    -0.003 C 
ATOM     14  C   UNL     1       1.365   3.797  -1.384  0.00  0.00    -0.005 C 
BRANCH  13  17
ATOM     15  C   UNL     1       0.930   3.319   2.327  0.00  0.00    -0.096 C 
ATOM     16  C   UNL     1       1.163   5.349   1.027  0.00  0.00    -0.096 C 
ATOM     17  N   UNL     1       0.771   3.924   0.987  0.00  0.00    +0.382 N 
ATOM     18  H   UNL     1      -0.213   3.857   0.706  0.00  0.00    -0.082 HD
ENDBRANCH  13  17
ENDBRANCH   4  13
BRANCH   1  19
ATOM     19  S   UNL     1       1.768  -2.116  -0.026  0.00  0.00    -0.076 S 
BRANCH  19  20
ATOM     20  C   UNL     1       0.161  -2.948  -0.015  0.00  0.00    +0.173 C 
BRANCH  20  22
ATOM     21  N   UNL     1      -0.696  -5.269  -0.019  0.00  0.00    -0.308 N 
ATOM     22  C   UNL     1       0.368  -4.441  -0.025  0.00  0.00    +0.224 C 
ATOM     23  O   UNL     1       1.491  -4.897  -0.037  0.00  0.00    -0.275 OA
ATOM     24  H   UNL     1      -1.595  -4.904  -0.009  0.00  0.00    +0.149 HD
BRANCH  21  26
ATOM     25  C   UNL     1      -0.314  -7.200  -1.470  0.00  0.00    +0.033 C 
ATOM     26  C   UNL     1      -0.495  -6.720  -0.029  0.00  0.00    +0.100 C 
BRANCH  26  27
ATOM     27  C   UNL     1      -1.696  -7.397   0.580  0.00  0.00    -0.026 A 
ATOM     28  C   UNL     1      -1.525  -8.485   1.416  0.00  0.00    +0.007 A 
ATOM     29  C   UNL     1      -2.626  -9.107   1.975  0.00  0.00    +0.022 A 
ATOM     30  C   UNL     1      -3.899  -8.642   1.696  0.00  0.00    +0.059 A 
ATOM     31  C   UNL     1      -4.069  -7.553   0.859  0.00  0.00    +0.060 A 
ATOM     32  C   UNL     1      -2.966  -6.928   0.305  0.00  0.00    +0.027 A 
ATOM     33 CL   UNL     1      -5.666  -6.968   0.509  0.00  0.00    -0.082 Cl
ATOM     34 CL   UNL     1      -5.282  -9.423   2.397  0.00  0.00    -0.082 Cl
ENDBRANCH  26  27
ENDBRANCH  21  26
ENDBRANCH  20  22
ENDBRANCH  19  20
ENDBRANCH   1  19
TORSDOF 8
