REMARK  Name = ZINC40360892
REMARK  16 active torsions:
REMARK  status: ('A' for Active; 'I' for Inactive)
REMARK    1  A    between atoms: C_1  and  C_2
REMARK    2  A    between atoms: C_2  and  O_3
REMARK    3  A    between atoms: O_3  and  C_4
REMARK    4  A    between atoms: C_9  and  N_10
REMARK    5  A    between atoms: C_20  and  C_21
REMARK    6  A    between atoms: C_21  and  C_23
REMARK    7  A    between atoms: C_21  and  N_24
REMARK    8  A    between atoms: N_24  and  C_25
REMARK    9  A    between atoms: C_25  and  C_26
REMARK   10  A    between atoms: C_26  and  C_27
REMARK   11  A    between atoms: C_26  and  C_28
REMARK   12  A    between atoms: C_29  and  C_31
REMARK   13  A    between atoms: C_34  and  C_37
REMARK   14  A    between atoms: C_37  and  C_38
REMARK   15  A    between atoms: C_37  and  C_39
REMARK   16  A    between atoms: C_37  and  C_40
REMARK                            x       y       z     vdW  Elec       q    Type
REMARK                         _______ _______ _______ _____ _____    ______ ____
ROOT
ATOM      1  N   UNL     1       2.555  -2.156  -4.161  0.00  0.00    -0.259 N 
ATOM      2  C   UNL     1       3.888  -2.213  -3.932  0.00  0.00    +0.266 A 
ATOM      3  O   UNL     1       4.411  -3.221  -3.493  0.00  0.00    -0.267 OA
ATOM      4  C   UNL     1       4.679  -1.012  -4.235  0.00  0.00    +0.065 A 
ATOM      5  C   UNL     1       6.058  -0.968  -4.035  0.00  0.00    +0.015 A 
ATOM      6  C   UNL     1       6.750   0.184  -4.336  0.00  0.00    +0.001 A 
ATOM      7  C   UNL     1       6.087   1.298  -4.835  0.00  0.00    +0.002 A 
ATOM      8  C   UNL     1       4.726   1.275  -5.039  0.00  0.00    +0.028 A 
ATOM      9  C   UNL     1       4.001   0.119  -4.742  0.00  0.00    +0.078 A 
ATOM     10  N   UNL     1       2.659   0.053  -4.929  0.00  0.00    -0.231 NA
ATOM     11  C   UNL     1       1.986  -1.024  -4.657  0.00  0.00    +0.138 A 
ENDROOT
BRANCH   1  17
ATOM     12  C   UNL     1       1.246  -3.475  -2.609  0.00  0.00    +0.144 A 
ATOM     13  C   UNL     1       0.451  -4.580  -2.348  0.00  0.00    +0.048 A 
ATOM     14  C   UNL     1       0.169  -5.482  -3.356  0.00  0.00    +0.004 A 
ATOM     15  C   UNL     1       0.679  -5.287  -4.627  0.00  0.00    +0.002 A 
ATOM     16  C   UNL     1       1.472  -4.188  -4.896  0.00  0.00    +0.030 A 
ATOM     17  C   UNL     1       1.755  -3.274  -3.890  0.00  0.00    +0.093 A 
BRANCH  12  18
ATOM     18  O   UNL     1       1.524  -2.586  -1.618  0.00  0.00    -0.490 OA
BRANCH  18  20
ATOM     19  C   UNL     1       1.387  -1.755   0.647  0.00  0.00    +0.048 C 
ATOM     20  C   UNL     1       0.968  -2.856  -0.330  0.00  0.00    +0.226 C 
ENDBRANCH  18  20
ENDBRANCH  12  18
ENDBRANCH   1  17
BRANCH  11  21
ATOM     21  C   UNL     1       0.499  -1.018  -4.899  0.00  0.00    +0.140 C 
ATOM     22  C   UNL     1      -0.218  -0.493  -3.653  0.00  0.00    +0.036 C 
BRANCH  21  23
ATOM     23  N   UNL     1       0.193  -0.152  -6.040  0.00  0.00    -0.287 N 
ATOM     24  C   UNL     1      -0.298  -0.684  -7.177  0.00  0.00    +0.247 C 
ATOM     25  O   UNL     1      -0.754  -1.811  -7.174  0.00  0.00    -0.270 OA
BRANCH  24  26
ATOM     26  C   UNL     1      -0.281   0.103  -8.429  0.00  0.00    +0.037 A 
ATOM     27  C   UNL     1      -0.525   1.477  -8.396  0.00  0.00    +0.013 A 
ATOM     28  C   UNL     1      -0.507   2.205  -9.567  0.00  0.00    +0.005 A 
ATOM     29  C   UNL     1      -0.250   1.577 -10.773  0.00  0.00    -0.042 A 
ATOM     30  C   UNL     1      -0.008   0.215 -10.812  0.00  0.00    +0.005 A 
ATOM     31  C   UNL     1      -0.016  -0.524  -9.647  0.00  0.00    +0.013 A 
BRANCH  29  32
ATOM     32  C   UNL     1      -0.233   2.379 -12.048  0.00  0.00    -0.013 C 
ATOM     33  C   UNL     1       0.845   3.462 -11.956  0.00  0.00    +0.015 C 
ATOM     34  C   UNL     1       0.073   1.454 -13.228  0.00  0.00    +0.015 C 
ATOM     35  C   UNL     1      -1.599   3.036 -12.256  0.00  0.00    +0.015 C 
ENDBRANCH  29  32
ENDBRANCH  24  26
BRANCH  23  36
ATOM     36  C   UNL     1       0.420   1.292  -5.945  0.00  0.00    +0.111 C 
BRANCH  36  37
ATOM     37  C   UNL     1      -0.906   1.999  -5.658  0.00  0.00    +0.000 C 
ATOM     38  C   UNL     1      -1.183   1.972  -4.154  0.00  0.00    +0.009 C 
ATOM     39  C   UNL     1      -0.824   3.450  -6.136  0.00  0.00    +0.009 C 
ENDBRANCH  36  37
ENDBRANCH  23  36
ENDBRANCH  21  23
ENDBRANCH  11  21
TORSDOF 9
