REMARK  Name = ZINC06149312
REMARK  13 active torsions:
REMARK  status: ('A' for Active; 'I' for Inactive)
REMARK    1  A    between atoms: C_1  and  C_2
REMARK    2  A    between atoms: C_2  and  C_3
REMARK    3  A    between atoms: C_3  and  C_4
REMARK    4  A    between atoms: C_3  and  C_5
REMARK    5  A    between atoms: C_3  and  N_6
REMARK    6  A    between atoms: C_7  and  C_11
REMARK    7  A    between atoms: C_11  and  C_13
REMARK    8  A    between atoms: C_11  and  N_69
REMARK    9  A    between atoms: C_19  and  C_25
REMARK   10  A    between atoms: C_26  and  C_27
REMARK   11  A    between atoms: C_26  and  N_69
REMARK   12  A    between atoms: C_34  and  C_35
REMARK   13  A    between atoms: C_34  and  N_69
REMARK                            x       y       z     vdW  Elec       q    Type
REMARK                         _______ _______ _______ _____ _____    ______ ____
ROOT
ATOM      1  C   UNL     1      -0.109  -2.443   5.095  0.00  0.00    +0.040 C 
ENDROOT
BRANCH   1   2
ATOM      2  C   UNL     1       0.016  -1.246   4.188  0.00  0.00    +0.011 A 
ATOM      3  C   UNL     1       0.123  -1.423   2.848  0.00  0.00    +0.017 A 
ATOM      4  C   UNL     1       0.242  -0.240   1.994  0.00  0.00    -0.001 A 
ATOM      5  C   UNL     1       0.356  -0.358   0.605  0.00  0.00    +0.010 A 
ATOM      6  C   UNL     1       0.466   0.765  -0.164  0.00  0.00    +0.001 A 
ATOM      7  C   UNL     1       0.459   2.025   0.420  0.00  0.00    +0.005 A 
ATOM      8  C   UNL     1       0.355   2.165   1.787  0.00  0.00    -0.026 A 
ATOM      9  C   UNL     1       0.242   1.035   2.591  0.00  0.00    +0.052 A 
ATOM     10  N   UNL     1       0.130   1.147   3.960  0.00  0.00    -0.322 N 
ATOM     11  H   UNL     1       0.131   2.053   4.382  0.00  0.00    +0.169 HD
ATOM     12  C   UNL     1       0.021   0.054   4.736  0.00  0.00    +0.251 A 
ATOM     13  O   UNL     1      -0.076   0.191   5.944  0.00  0.00    -0.268 OA
ATOM     14  C   UNL     1       0.357   3.538   2.409  0.00  0.00    +0.046 C 
ENDBRANCH   1   2
BRANCH   1  16
ATOM     15  N   UNL     1      -2.465  -3.299   5.568  0.00  0.00    -0.225 N 
ATOM     16  C   UNL     1      -1.458  -2.427   5.766  0.00  0.00    +0.143 A 
ATOM     17  N   UNL     1      -1.878  -1.564   6.659  0.00  0.00    -0.115 NA
ATOM     18  N   UNL     1      -3.082  -1.885   6.987  0.00  0.00    -0.023 NA
ATOM     19  N   UNL     1      -3.439  -2.934   6.331  0.00  0.00    -0.043 NA
BRANCH  15  20
ATOM     20  C   UNL     1      -2.455  -4.446   4.658  0.00  0.00    +0.061 C 
ATOM     21  C   UNL     1      -2.165  -3.966   3.234  0.00  0.00    +0.036 C 
ATOM     22  C   UNL     1      -1.371  -5.434   5.093  0.00  0.00    +0.036 C 
BRANCH  20  24
ATOM     23  C   UNL     1      -3.809  -6.337   3.744  0.00  0.00    +0.006 C 
ATOM     24  C   UNL     1      -3.819  -5.138   4.694  0.00  0.00    +0.026 C 
ENDBRANCH  20  24
ENDBRANCH  15  20
ENDBRANCH   1  16
BRANCH   1  25
ATOM     25  N   UNL     1       0.942  -2.371   6.132  0.00  0.00    +0.397 N 
ATOM     26  H   UNL     1       0.802  -1.521   6.691  0.00  0.00    -0.079 HD
BRANCH  25  27
ATOM     27  C   UNL     1       0.855  -3.549   7.021  0.00  0.00    -0.039 C 
BRANCH  27  28
ATOM     28  C   UNL     1       1.650  -3.271   8.271  0.00  0.00    -0.046 A 
ATOM     29  C   UNL     1       2.670  -4.126   8.647  0.00  0.00    +0.003 A 
ATOM     30  C   UNL     1       3.402  -3.868   9.791  0.00  0.00    +0.000 A 
ATOM     31  C   UNL     1       3.108  -2.761  10.565  0.00  0.00    +0.001 A 
ATOM     32  C   UNL     1       2.086  -1.909  10.194  0.00  0.00    +0.020 A 
ATOM     33  C   UNL     1       1.356  -2.163   9.046  0.00  0.00    +0.042 A 
ATOM     34 CL   UNL     1       0.072  -1.093   8.579  0.00  0.00    -0.083 Cl
ENDBRANCH  27  28
ENDBRANCH  25  27
BRANCH  25  35
ATOM     35  C   UNL     1       2.275  -2.315   5.497  0.00  0.00    -0.001 C 
BRANCH  35  36
ATOM     36  C   UNL     1       3.276  -1.831   6.515  0.00  0.00    +0.089 A 
ATOM     37  C   UNL     1       4.218  -2.583   7.111  0.00  0.00    +0.042 A 
ATOM     38  C   UNL     1       4.929  -1.731   7.987  0.00  0.00    +0.041 A 
ATOM     39  C   UNL     1       4.378  -0.509   7.874  0.00  0.00    +0.195 A 
ATOM     40  O   UNL     1       3.381  -0.574   6.977  0.00  0.00    -0.470 OA
ENDBRANCH  35  36
ENDBRANCH  25  35
ENDBRANCH   1  25
TORSDOF 9
