REMARK  Name = ZINC47131910
REMARK  12 active torsions:
REMARK  status: ('A' for Active; 'I' for Inactive)
REMARK    1  A    between atoms: C_1  and  C_2
REMARK    2  A    between atoms: C_2  and  C_4
REMARK    3  A    between atoms: C_2  and  O_27
REMARK    4  A    between atoms: N_6  and  C_7
REMARK    5  A    between atoms: N_6  and  C_19
REMARK    6  A    between atoms: C_7  and  C_8
REMARK    7  A    between atoms: C_11  and  N_13
REMARK    8  A    between atoms: O_27  and  C_28
REMARK    9  A    between atoms: C_31  and  C_34
REMARK   10  A    between atoms: C_34  and  C_35
REMARK   11  A    between atoms: C_34  and  C_36
REMARK   12  A    between atoms: C_34  and  C_37
REMARK                            x       y       z     vdW  Elec       q    Type
REMARK                         _______ _______ _______ _____ _____    ______ ____
ROOT
ATOM      1  C   UNL     1      -1.333  -0.603   0.016  0.00  0.00    +0.257 C 
ATOM      2  O   UNL     1      -0.151  -0.364   0.147  0.00  0.00    -0.272 OA
ATOM      3  N   UNL     1      -1.986  -0.185  -1.086  0.00  0.00    -0.286 N 
ENDROOT
BRANCH   3   4
ATOM      4  C   UNL     1      -1.297   0.648  -2.075  0.00  0.00    +0.099 C 
ATOM      5  C   UNL     1      -0.119  -0.133  -2.681  0.00  0.00    +0.047 C 
ATOM      6  C   UNL     1       0.798   0.828  -3.475  0.00  0.00    +0.168 C 
ATOM      7  S   UNL     1       0.542   2.434  -2.615  0.00  0.00    -0.029 S 
ATOM      8  O   UNL     1      -0.040   3.357  -3.525  0.00  0.00    -0.174 OA
ATOM      9  O   UNL     1       1.735   2.786  -1.929  0.00  0.00    -0.174 OA
ATOM     10  C   UNL     1      -0.730   1.921  -1.385  0.00  0.00    +0.188 C 
ENDBRANCH   3   4
BRANCH   1  12
ATOM     11  C   UNL     1      -2.257  -2.819   0.638  0.00  0.00    +0.062 C 
ATOM     12  C   UNL     1      -2.071  -1.367   1.085  0.00  0.00    +0.256 C 
BRANCH  12  13
ATOM     13  O   UNL     1      -1.318  -1.335   2.299  0.00  0.00    -0.480 OA
BRANCH  13  14
ATOM     14  C   UNL     1      -2.010  -1.493   3.458  0.00  0.00    +0.122 A 
ATOM     15  C   UNL     1      -1.363  -1.355   4.678  0.00  0.00    +0.046 A 
ATOM     16  C   UNL     1      -2.068  -1.515   5.855  0.00  0.00    +0.008 A 
ATOM     17  C   UNL     1      -3.417  -1.815   5.818  0.00  0.00    -0.042 A 
ATOM     18  C   UNL     1      -4.064  -1.954   4.604  0.00  0.00    +0.008 A 
ATOM     19  C   UNL     1      -3.365  -1.788   3.424  0.00  0.00    +0.046 A 
BRANCH  17  20
ATOM     20  C   UNL     1      -4.184  -1.990   7.103  0.00  0.00    -0.013 C 
ATOM     21  C   UNL     1      -4.113  -0.698   7.920  0.00  0.00    +0.015 C 
ATOM     22  C   UNL     1      -5.645  -2.313   6.786  0.00  0.00    +0.015 C 
ATOM     23  C   UNL     1      -3.572  -3.137   7.910  0.00  0.00    +0.015 C 
ENDBRANCH  17  20
ENDBRANCH  13  14
ENDBRANCH  12  13
ENDBRANCH   1  12
BRANCH   3  24
ATOM     24  C   UNL     1      -3.386  -0.564  -1.296  0.00  0.00    +0.182 C 
BRANCH  24  25
ATOM     25  C   UNL     1      -4.285   0.537  -0.795  0.00  0.00    +0.125 A 
ATOM     26  C   UNL     1      -4.736   1.575  -1.522  0.00  0.00    +0.048 A 
ATOM     27  C   UNL     1      -5.541   2.359  -0.664  0.00  0.00    +0.066 A 
ATOM     28  C   UNL     1      -5.534   1.750   0.544  0.00  0.00    +0.189 A 
ATOM     29  O   UNL     1      -4.776   0.644   0.455  0.00  0.00    -0.445 OA
BRANCH  28  30
ATOM     30  N   UNL     1      -6.203   2.190   1.684  0.00  0.00    -0.301 N 
ATOM     31  C   UNL     1      -7.015   3.414   1.649  0.00  0.00    +0.108 C 
ATOM     32  C   UNL     1      -8.421   3.087   2.162  0.00  0.00    +0.019 C 
ATOM     33  C   UNL     1      -8.318   2.440   3.545  0.00  0.00    +0.003 C 
ATOM     34  C   UNL     1      -7.527   1.134   3.441  0.00  0.00    +0.019 C 
ATOM     35  C   UNL     1      -6.115   1.435   2.941  0.00  0.00    +0.108 C 
ENDBRANCH  28  30
ENDBRANCH  24  25
ENDBRANCH   3  24
TORSDOF 8
