REMARK  Name = ZINC36203543
REMARK  5 active torsions:
REMARK  status: ('A' for Active; 'I' for Inactive)
REMARK    1  A    between atoms: C_1  and  C_2
REMARK    2  A    between atoms: N_5  and  S_8
REMARK    3  A    between atoms: S_8  and  N_11
REMARK    4  A    between atoms: C_15  and  C_18
REMARK    5  A    between atoms: C_18  and  O_19
REMARK                            x       y       z     vdW  Elec       q    Type
REMARK                         _______ _______ _______ _____ _____    ______ ____
ROOT
ATOM      1  S   UNL     1       2.539  -3.606  -0.043  0.00  0.00    +0.100 S 
ATOM      2  O   UNL     1       2.499  -4.295   1.199  0.00  0.00    -0.141 OA
ATOM      3  O   UNL     1       2.474  -4.282  -1.291  0.00  0.00    -0.141 OA
ENDROOT
BRANCH   1   8
ATOM      4  C   UNL     1      -0.019   1.526   0.010  0.00  0.00    +0.007 C 
ATOM      5  C   UNL     1       0.002  -0.004   0.002  0.00  0.00    -0.012 C 
ATOM      6  C   UNL     1       0.717  -0.497  -1.258  0.00  0.00    +0.020 C 
ATOM      7  C   UNL     1       0.705  -2.029  -1.280  0.00  0.00    +0.111 C 
ATOM      8  N   UNL     1       1.285  -2.525  -0.025  0.00  0.00    -0.166 NA
ATOM      9  C   UNL     1       0.731  -2.043   1.248  0.00  0.00    +0.111 C 
ATOM     10  C   UNL     1       0.742  -0.511   1.242  0.00  0.00    +0.020 C 
ENDBRANCH   1   8
BRANCH   1  11
ATOM     11  N   UNL     1       3.943  -2.728  -0.053  0.00  0.00    -0.166 NA
ATOM     12  C   UNL     1       4.561  -2.320  -1.321  0.00  0.00    +0.110 C 
ATOM     13  C   UNL     1       6.021  -2.784  -1.330  0.00  0.00    +0.017 C 
ATOM     14  C   UNL     1       6.730  -2.248  -0.084  0.00  0.00    +0.008 C 
ATOM     15  C   UNL     1       6.053  -2.807   1.170  0.00  0.00    +0.030 C 
ATOM     16  C   UNL     1       4.591  -2.338   1.207  0.00  0.00    +0.116 C 
BRANCH  15  17
ATOM     17  C   UNL     1       6.783  -2.297   2.414  0.00  0.00    +0.160 C 
BRANCH  17  18
ATOM     18  O   UNL     1       8.112  -2.823   2.436  0.00  0.00    -0.395 OA
ATOM     19  H   UNL     1       8.634  -2.541   3.199  0.00  0.00    +0.209 HD
ENDBRANCH  17  18
ENDBRANCH  15  17
ENDBRANCH   1  11
TORSDOF 4
