REMARK  Name = ZINC33568791
REMARK  8 active torsions:
REMARK  status: ('A' for Active; 'I' for Inactive)
REMARK    1  A    between atoms: C_4  and  C_7
REMARK    2  A    between atoms: C_10  and  C_32
REMARK    3  A    between atoms: N_12  and  C_13
REMARK    4  A    between atoms: C_16  and  C_19
REMARK    5  A    between atoms: C_20  and  C_21
REMARK    6  A    between atoms: C_20  and  C_23
REMARK    7  A    between atoms: C_24  and  C_30
REMARK    8  A    between atoms: C_25  and  N_29
REMARK                            x       y       z     vdW  Elec       q    Type
REMARK                         _______ _______ _______ _____ _____    ______ ____
ROOT
ATOM      1  C   UNL     1       3.200  -1.910  -2.197  0.00  0.00    +0.052 A 
ATOM      2  C   UNL     1       2.853  -0.748  -2.883  0.00  0.00    +0.025 A 
ATOM      3  C   UNL     1       2.606  -0.792  -4.226  0.00  0.00    +0.010 A 
ATOM      4  C   UNL     1       2.702  -2.010  -4.913  0.00  0.00    -0.024 A 
ATOM      5  C   UNL     1       3.051  -3.176  -4.220  0.00  0.00    +0.010 A 
ATOM      6  C   UNL     1       3.302  -3.121  -2.878  0.00  0.00    +0.025 A 
ENDROOT
BRANCH   1  11
ATOM      7  C   UNL     1       3.381  -0.653   0.008  0.00  0.00    +0.134 C 
ATOM      8  C   UNL     1       3.748  -1.164   1.415  0.00  0.00    +0.087 C 
ATOM      9  C   UNL     1       3.990  -2.643   1.214  0.00  0.00    +0.069 C 
ATOM     10  N   UNL     1       3.810  -2.944  -0.027  0.00  0.00    -0.183 NA
ATOM     11  N   UNL     1       3.451  -1.859  -0.831  0.00  0.00    -0.216 N 
BRANCH   7  15
ATOM     12  C   UNL     1      -0.571   0.968  -0.020  0.00  0.00    +0.000 A 
ATOM     13  C   UNL     1       0.522   1.813   0.012  0.00  0.00    +0.000 A 
ATOM     14  C   UNL     1       1.801   1.289   0.021  0.00  0.00    +0.005 A 
ATOM     15  C   UNL     1       1.987  -0.081  -0.001  0.00  0.00    -0.025 A 
ATOM     16  C   UNL     1       0.893  -0.926  -0.031  0.00  0.00    +0.005 A 
ATOM     17  C   UNL     1      -0.386  -0.402  -0.042  0.00  0.00    +0.000 A 
ENDBRANCH   7  15
BRANCH   9  18
ATOM     18  C   UNL     1       4.375  -3.594   2.272  0.00  0.00    -0.002 A 
ATOM     19  C   UNL     1       4.538  -3.152   3.588  0.00  0.00    +0.010 A 
ATOM     20  C   UNL     1       4.898  -4.048   4.573  0.00  0.00    +0.001 A 
ATOM     21  C   UNL     1       5.098  -5.381   4.261  0.00  0.00    +0.000 A 
ATOM     22  C   UNL     1       4.938  -5.826   2.961  0.00  0.00    +0.001 A 
ATOM     23  C   UNL     1       4.573  -4.943   1.966  0.00  0.00    +0.010 A 
ENDBRANCH   9  18
ENDBRANCH   1  11
BRANCH   4  24
ATOM     24  C   UNL     1       2.436  -2.063  -6.355  0.00  0.00    +0.029 C 
ATOM     25  C   UNL     1       2.711  -0.982  -7.138  0.00  0.00    +0.081 C 
BRANCH  25  26
ATOM     26  C   UNL     1       2.301  -0.976  -8.560  0.00  0.00    +0.122 A 
ATOM     27  C   UNL     1       2.528   0.103  -9.528  0.00  0.00    +0.119 A 
ATOM     28  C   UNL     1       1.975  -0.329 -10.730  0.00  0.00    +0.130 A 
ATOM     29  N   UNL     1       1.457  -1.556 -10.522  0.00  0.00    -0.263 N 
ATOM     30  H   UNL     1       1.009  -2.094 -11.193  0.00  0.00    +0.190 HD
ATOM     31  N   UNL     1       1.669  -1.938  -9.194  0.00  0.00    -0.170 NA
BRANCH  28  32
ATOM     32  N   UNL     1       1.960   0.372 -11.920  0.00  0.00    -0.342 N 
ATOM     33  H   UNL     1       2.361   1.254 -11.969  0.00  0.00    +0.144 HD
ATOM     34  H   UNL     1       1.547  -0.017 -12.707  0.00  0.00    +0.144 HD
ENDBRANCH  28  32
BRANCH  27  35
ATOM     35  C   UNL     1       3.187   1.352  -9.285  0.00  0.00    +0.105 C 
ATOM     36  N   UNL     1       3.709   2.342  -9.092  0.00  0.00    -0.191 NA
ENDBRANCH  27  35
ENDBRANCH  25  26
BRANCH  25  37
ATOM     37  C   UNL     1       3.397   0.147  -6.586  0.00  0.00    +0.101 C 
ATOM     38  N   UNL     1       3.942   1.042  -6.148  0.00  0.00    -0.191 NA
ENDBRANCH  25  37
ENDBRANCH   4  24
TORSDOF 8
