REMARK  Name = ZINC22419722
REMARK  10 active torsions:
REMARK  status: ('A' for Active; 'I' for Inactive)
REMARK    1  A    between atoms: C_1  and  C_2
REMARK    2  A    between atoms: C_2  and  N_3
REMARK    3  A    between atoms: C_4  and  C_30
REMARK    4  A    between atoms: N_6  and  C_9
REMARK    5  A    between atoms: C_9  and  N_10
REMARK    6  A    between atoms: N_13  and  C_16
REMARK    7  A    between atoms: C_16  and  C_17
REMARK    8  A    between atoms: C_20  and  C_22
REMARK    9  A    between atoms: C_25  and  O_28
REMARK   10  A    between atoms: O_28  and  C_29
REMARK                            x       y       z     vdW  Elec       q    Type
REMARK                         _______ _______ _______ _____ _____    ______ ____
ROOT
ATOM      1  N   UNL     1      -0.723   1.572  -1.182  0.00  0.00    +0.394 N 
ATOM      2  C   UNL     1      -2.058   0.966  -1.283  0.00  0.00    -0.061 C 
ATOM      3  C   UNL     1      -2.794   1.557  -2.488  0.00  0.00    +0.066 C 
ATOM      4  N   UNL     1      -2.012   1.308  -3.707  0.00  0.00    -0.300 NA
ATOM      5  C   UNL     1      -0.677   1.914  -3.606  0.00  0.00    +0.066 C 
ATOM      6  C   UNL     1       0.059   1.323  -2.401  0.00  0.00    -0.061 C 
ATOM      7  H   UNL     1      -0.851   2.660  -1.077  0.00  0.00    -0.079 HD
ENDROOT
BRANCH   1   8
ATOM      8  C   UNL     1      -0.013   1.086   0.008  0.00  0.00    +0.072 C 
BRANCH   8  12
ATOM      9  N   UNL     1      -2.043   1.683   2.921  0.00  0.00    -0.301 N 
ATOM     10  C   UNL     1      -1.258   2.821   2.915  0.00  0.00    +0.198 A 
ATOM     11  N   UNL     1      -0.442   2.755   1.897  0.00  0.00    -0.149 NA
ATOM     12  N   UNL     1      -0.698   1.558   1.213  0.00  0.00    -0.257 N 
ATOM     13  C   UNL     1      -1.688   0.918   1.870  0.00  0.00    +0.177 A 
ATOM     14  S   UNL     1      -2.368  -0.594   1.445  0.00  0.00    -0.011 S 
BRANCH  10  15
ATOM     15  C   UNL     1      -1.325   3.919   3.894  0.00  0.00    +0.172 A 
ATOM     16  C   UNL     1      -0.385   4.887   4.075  0.00  0.00    +0.053 A 
ATOM     17  C   UNL     1      -0.858   5.724   5.104  0.00  0.00    +0.042 A 
ATOM     18  C   UNL     1      -2.046   5.227   5.503  0.00  0.00    +0.196 A 
ATOM     19  O   UNL     1      -2.325   4.137   4.770  0.00  0.00    -0.460 OA
ENDBRANCH  10  15
BRANCH   9  21
ATOM     20  C   UNL     1      -2.468   0.582   5.063  0.00  0.00    +0.027 C 
ATOM     21  C   UNL     1      -3.084   1.364   3.902  0.00  0.00    +0.122 C 
ENDBRANCH   9  21
ENDBRANCH   8  12
ENDBRANCH   1   8
BRANCH   4  22
ATOM     22  C   UNL     1      -2.723   1.794  -4.897  0.00  0.00    +0.140 C 
BRANCH  22  23
ATOM     23  C   UNL     1      -4.162   1.351  -4.839  0.00  0.00    +0.063 A 
ATOM     24  C   UNL     1      -5.109   2.179  -4.328  0.00  0.00    +0.071 A 
ATOM     25  S   UNL     1      -6.570   1.164  -4.511  0.00  0.00    -0.075 S 
ATOM     26  C   UNL     1      -5.759  -0.254  -5.239  0.00  0.00    +0.109 A 
ATOM     27  N   UNL     1      -4.500   0.161  -5.278  0.00  0.00    -0.243 NA
BRANCH  26  28
ATOM     28  C   UNL     1      -6.337  -1.542  -5.679  0.00  0.00    +0.007 A 
ATOM     29  C   UNL     1      -5.515  -2.524  -6.234  0.00  0.00    +0.014 A 
ATOM     30  C   UNL     1      -6.056  -3.725  -6.640  0.00  0.00    +0.046 A 
ATOM     31  C   UNL     1      -7.420  -3.955  -6.505  0.00  0.00    +0.120 A 
ATOM     32  C   UNL     1      -8.241  -2.978  -5.958  0.00  0.00    +0.046 A 
ATOM     33  C   UNL     1      -7.706  -1.776  -5.546  0.00  0.00    +0.014 A 
BRANCH  31  34
ATOM     34  O   UNL     1      -7.950  -5.138  -6.910  0.00  0.00    -0.495 OA
ATOM     35  C   UNL     1      -7.048  -6.098  -7.463  0.00  0.00    +0.277 C 
ENDBRANCH  31  34
ENDBRANCH  26  28
ENDBRANCH  22  23
ENDBRANCH   4  22
TORSDOF 8
