REMARK  Name = ZINC41602964
REMARK  7 active torsions:
REMARK  status: ('A' for Active; 'I' for Inactive)
REMARK    1  A    between atoms: C_1  and  C_2
REMARK    2  A    between atoms: C_2  and  C_3
REMARK    3  A    between atoms: C_2  and  N_4
REMARK    4  A    between atoms: C_9  and  C_12
REMARK    5  A    between atoms: C_12  and  C_13
REMARK    6  A    between atoms: C_12  and  C_14
REMARK    7  A    between atoms: C_12  and  C_15
REMARK                            x       y       z     vdW  Elec       q    Type
REMARK                         _______ _______ _______ _____ _____    ______ ____
ROOT
ATOM      1  N   UNL     1      -1.372  -0.511   0.012  0.00  0.00    -0.311 N 
ATOM      2  C   UNL     1      -1.648  -1.754  -0.493  0.00  0.00    +0.213 A 
ATOM      3  N   UNL     1      -0.666  -2.486  -0.981  0.00  0.00    -0.175 NA
ATOM      4  C   UNL     1      -0.909  -3.704  -1.480  0.00  0.00    +0.297 A 
ATOM      5  O   UNL     1       0.004  -4.378  -1.931  0.00  0.00    -0.264 OA
ATOM      6  C   UNL     1      -2.280  -4.221  -1.482  0.00  0.00    +0.133 A 
ATOM      7  N   UNL     1      -3.235  -3.477  -0.993  0.00  0.00    -0.170 NA
ATOM      8  N   UNL     1      -2.925  -2.212  -0.477  0.00  0.00    -0.248 N 
ATOM      9  H   UNL     1      -2.087   0.033   0.377  0.00  0.00    +0.149 HD
ATOM     10  H   UNL     1      -3.630  -1.657  -0.109  0.00  0.00    +0.192 HD
ENDROOT
BRANCH   6  11
ATOM     11  C   UNL     1      -2.582  -5.589  -2.038  0.00  0.00    +0.011 C 
ATOM     12  C   UNL     1      -4.081  -5.870  -1.914  0.00  0.00    +0.017 C 
ATOM     13  C   UNL     1      -2.174  -5.641  -3.512  0.00  0.00    +0.017 C 
ATOM     14  C   UNL     1      -1.798  -6.643  -1.254  0.00  0.00    +0.017 C 
ENDBRANCH   6  11
BRANCH   1  16
ATOM     15  C   UNL     1      -0.019   1.526   0.010  0.00  0.00    +0.027 C 
ATOM     16  C   UNL     1       0.002  -0.004   0.002  0.00  0.00    +0.067 C 
ATOM     17  C   UNL     1       0.742  -0.511   1.242  0.00  0.00    +0.027 C 
ENDBRANCH   1  16
TORSDOF 2
