REMARK  Name = ZINC39686091
REMARK  8 active torsions:
REMARK  status: ('A' for Active; 'I' for Inactive)
REMARK    1  A    between atoms: C_1  and  C_2
REMARK    2  A    between atoms: C_4  and  C_11
REMARK    3  A    between atoms: C_5  and  C_7
REMARK    4  A    between atoms: C_15  and  C_24
REMARK    5  A    between atoms: N_26  and  C_27
REMARK    6  A    between atoms: C_33  and  C_35
REMARK    7  A    between atoms: C_35  and  C_36
REMARK    8  A    between atoms: C_35  and  C_37
REMARK                            x       y       z     vdW  Elec       q    Type
REMARK                         _______ _______ _______ _____ _____    ______ ____
ROOT
ATOM      1  C   UNL     1      -2.283  -2.782   0.961  0.00  0.00    +0.250 C 
ATOM      2  O   UNL     1      -1.847  -3.913   1.052  0.00  0.00    -0.270 OA
ATOM      3  N   UNL     1      -3.614  -2.568   0.970  0.00  0.00    -0.296 N 
ATOM      4  C   UNL     1      -4.330  -1.288   0.759  0.00  0.00    +0.121 C 
ATOM      5  C   UNL     1      -5.564  -1.667  -0.090  0.00  0.00    +0.100 C 
ATOM      6  C   UNL     1      -5.797  -3.159   0.200  0.00  0.00    -0.004 C 
ATOM      7  C   UNL     1      -4.692  -3.563   1.186  0.00  0.00    +0.115 C 
ATOM      8  C   UNL     1      -5.673  -3.973  -1.085  0.00  0.00    -0.010 C 
ATOM      9  C   UNL     1      -5.965  -5.445  -0.781  0.00  0.00    -0.082 C 
ATOM     10  N   UNL     1      -7.318  -5.573  -0.225  0.00  0.00    +0.379 N 
ATOM     11  C   UNL     1      -7.402  -4.864   1.057  0.00  0.00    -0.082 C 
ATOM     12  C   UNL     1      -7.171  -3.367   0.831  0.00  0.00    -0.010 C 
ATOM     13  H   UNL     1      -7.984  -5.177  -0.872  0.00  0.00    -0.086 HD
ATOM     14  H   UNL     1      -7.531  -6.549  -0.083  0.00  0.00    -0.086 HD
ENDROOT
BRANCH   1  18
ATOM     15  C   UNL     1      -0.256   1.895   1.175  0.00  0.00    +0.086 C 
ATOM     16  C   UNL     1      -0.479   0.423   0.943  0.00  0.00    +0.103 A 
ATOM     17  C   UNL     1      -1.600  -0.250   1.242  0.00  0.00    +0.058 A 
ATOM     18  C   UNL     1      -1.355  -1.643   0.840  0.00  0.00    +0.087 A 
ATOM     19  C   UNL     1      -0.089  -1.661   0.332  0.00  0.00    +0.220 A 
ATOM     20  O   UNL     1       0.410  -0.423   0.399  0.00  0.00    -0.455 OA
BRANCH  19  21
ATOM     21  C   UNL     1       0.624  -2.870  -0.216  0.00  0.00    +0.451 C 
ATOM     22  F   UNL     1       0.366  -2.982  -1.587  0.00  0.00    -0.163 F 
ATOM     23  F   UNL     1       2.001  -2.733  -0.010  0.00  0.00    -0.163 F 
ATOM     24  F   UNL     1       0.166  -4.018   0.440  0.00  0.00    -0.163 F 
ENDBRANCH  19  21
ENDBRANCH   1  18
BRANCH   5  25
ATOM     25  C   UNL     1      -5.279  -1.453  -1.555  0.00  0.00    +0.218 C 
ATOM     26  O   UNL     1      -4.165  -1.649  -1.990  0.00  0.00    -0.275 OA
ATOM     27  N   UNL     1      -6.264  -1.045  -2.380  0.00  0.00    -0.312 N 
ATOM     28  H   UNL     1      -7.155  -0.889  -2.031  0.00  0.00    +0.149 HD
BRANCH  27  29
ATOM     29  C   UNL     1      -5.987  -0.837  -3.803  0.00  0.00    +0.076 C 
ATOM     30  C   UNL     1      -5.425   0.571  -4.013  0.00  0.00    +0.041 C 
ATOM     31  C   UNL     1      -5.104   0.772  -5.497  0.00  0.00    +0.109 C 
ATOM     32  N   UNL     1      -6.309   0.480  -6.285  0.00  0.00    -0.301 N 
ATOM     33  C   UNL     1      -6.983  -0.811  -6.094  0.00  0.00    +0.109 C 
ATOM     34  C   UNL     1      -7.282  -0.995  -4.603  0.00  0.00    +0.041 C 
ATOM     35  C   UNL     1      -6.789   1.381  -7.167  0.00  0.00    +0.218 C 
ATOM     36  O   UNL     1      -6.261   2.467  -7.271  0.00  0.00    -0.275 OA
BRANCH  35  37
ATOM     37  C   UNL     1      -7.980   1.036  -8.023  0.00  0.00    +0.069 C 
ATOM     38  C   UNL     1      -8.421   2.275  -8.806  0.00  0.00    +0.017 C 
ATOM     39  C   UNL     1      -7.601  -0.077  -9.001  0.00  0.00    +0.017 C 
ENDBRANCH  35  37
ENDBRANCH  27  29
ENDBRANCH   5  25
TORSDOF 5
