REMARK  Name = ZINC39360679
REMARK  7 active torsions:
REMARK  status: ('A' for Active; 'I' for Inactive)
REMARK    1  A    between atoms: C_1  and  C_2
REMARK    2  A    between atoms: C_2  and  C_36
REMARK    3  A    between atoms: C_6  and  C_26
REMARK    4  A    between atoms: C_12  and  S_16
REMARK    5  A    between atoms: S_16  and  C_17
REMARK    6  A    between atoms: C_17  and  C_18
REMARK    7  A    between atoms: C_30  and  O_32
REMARK                            x       y       z     vdW  Elec       q    Type
REMARK                         _______ _______ _______ _____ _____    ______ ____
ROOT
ATOM      1  C   UNL     1      -0.019   1.526   0.010  0.00  0.00    +0.011 C 
ATOM      2  C   UNL     1       0.002  -0.004   0.002  0.00  0.00    -0.023 C 
ATOM      3  C   UNL     1      -1.431  -0.539   0.041  0.00  0.00    +0.058 C 
ATOM      4  C   UNL     1      -1.408  -2.049   0.075  0.00  0.00    +0.017 C 
ATOM      5  C   UNL     1      -0.403  -2.715   0.675  0.00  0.00    +0.021 C 
ATOM      6  C   UNL     1      -0.367  -4.224   0.750  0.00  0.00    +0.073 C 
ATOM      7  C   UNL     1      -1.240  -4.831  -0.349  0.00  0.00    +0.152 C 
ATOM      8  C   UNL     1      -2.542  -4.065  -0.368  0.00  0.00    +0.115 C 
ATOM      9  N   UNL     1      -3.689  -4.652  -0.212  0.00  0.00    -0.213 NA
ATOM     10  C   UNL     1      -3.793  -5.969   0.006  0.00  0.00    +0.182 C 
ATOM     11  N   UNL     1      -2.726  -6.751   0.089  0.00  0.00    -0.154 NA
ATOM     12  C   UNL     1      -1.489  -6.284  -0.068  0.00  0.00    +0.250 C 
ATOM     13  O   UNL     1      -0.543  -7.042   0.023  0.00  0.00    -0.273 OA
ATOM     14  N   UNL     1      -2.448  -2.711  -0.540  0.00  0.00    -0.305 N 
ATOM     15  C   UNL     1       0.671  -2.018   1.267  0.00  0.00    +0.162 C 
ATOM     16  O   UNL     1       1.559  -2.646   1.809  0.00  0.00    -0.292 OA
ATOM     17  C   UNL     1       0.742  -0.517   1.242  0.00  0.00    +0.086 C 
ATOM     18  C   UNL     1       0.706  -0.503  -1.262  0.00  0.00    +0.011 C 
ATOM     19  H   UNL     1      -3.095  -2.231  -1.080  0.00  0.00    +0.153 HD
ENDROOT
BRANCH   6  20
ATOM     20  C   UNL     1       1.053  -4.697   0.573  0.00  0.00    -0.035 A 
ATOM     21  C   UNL     1       1.742  -4.396  -0.587  0.00  0.00    +0.004 A 
ATOM     22  C   UNL     1       3.045  -4.830  -0.752  0.00  0.00    +0.004 A 
ATOM     23  C   UNL     1       3.661  -5.565   0.242  0.00  0.00    +0.045 A 
ATOM     24  C   UNL     1       2.971  -5.869   1.407  0.00  0.00    +0.117 A 
ATOM     25  C   UNL     1       1.666  -5.428   1.573  0.00  0.00    +0.049 A 
BRANCH  24  26
ATOM     26  O   UNL     1       3.575  -6.592   2.386  0.00  0.00    -0.507 OA
ATOM     27  H   UNL     1       4.045  -6.055   3.039  0.00  0.00    +0.292 HD
ENDBRANCH  24  26
ENDBRANCH   6  20
BRANCH  10  28
ATOM     28  S   UNL     1      -5.394  -6.683   0.190  0.00  0.00    -0.084 S 
BRANCH  28  29
ATOM     29  C   UNL     1      -5.060  -8.445   0.462  0.00  0.00    +0.115 C 
BRANCH  29  30
ATOM     30  C   UNL     1      -6.363  -9.182   0.636  0.00  0.00    -0.002 A 
ATOM     31  C   UNL     1      -6.913  -9.323   1.896  0.00  0.00    +0.007 A 
ATOM     32  C   UNL     1      -8.109  -9.999   2.056  0.00  0.00    +0.000 A 
ATOM     33  C   UNL     1      -8.755 -10.534   0.957  0.00  0.00    +0.003 A 
ATOM     34  C   UNL     1      -8.206 -10.394  -0.303  0.00  0.00    +0.038 A 
ATOM     35  C   UNL     1      -7.011  -9.712  -0.466  0.00  0.00    +0.127 A 
ATOM     36  F   UNL     1      -6.477  -9.570  -1.698  0.00  0.00    -0.205 F 
ENDBRANCH  29  30
ENDBRANCH  28  29
ENDBRANCH  10  28
TORSDOF 5
