REMARK  Name = ZINC31057380
REMARK  7 active torsions:
REMARK  status: ('A' for Active; 'I' for Inactive)
REMARK    1  A    between atoms: C_1  and  C_2
REMARK    2  A    between atoms: C_2  and  C_34
REMARK    3  A    between atoms: C_4  and  N_13
REMARK    4  A    between atoms: C_14  and  C_16
REMARK    5  A    between atoms: N_21  and  C_23
REMARK    6  A    between atoms: C_23  and  C_24
REMARK    7  A    between atoms: C_26  and  C_29
REMARK                            x       y       z     vdW  Elec       q    Type
REMARK                         _______ _______ _______ _____ _____    ______ ____
ROOT
ATOM      1  C   UNL     1       4.389  -2.459  -2.940  0.00  0.00    +0.058 C 
ATOM      2  C   UNL     1       5.266  -1.473  -3.715  0.00  0.00    +0.009 C 
ATOM      3  C   UNL     1       5.921  -2.200  -4.892  0.00  0.00    -0.018 C 
ATOM      4  C   UNL     1       6.734  -3.385  -4.365  0.00  0.00    -0.078 C 
ATOM      5  N   UNL     1       5.850  -4.300  -3.632  0.00  0.00    +0.386 N 
ATOM      6  C   UNL     1       5.246  -3.636  -2.469  0.00  0.00    -0.065 C 
ATOM      7  H   UNL     1       5.035  -4.594  -4.310  0.00  0.00    -0.081 HD
ENDROOT
BRANCH   1   9
ATOM      8  N   UNL     1       2.993  -0.691  -1.919  0.00  0.00    -0.308 N 
ATOM      9  C   UNL     1       3.787  -1.766  -1.745  0.00  0.00    +0.215 C 
ATOM     10  O   UNL     1       4.018  -2.175  -0.626  0.00  0.00    -0.276 OA
ATOM     11  H   UNL     1       2.783  -0.320  -2.933  0.00  0.00    +0.149 HD
BRANCH   8  15
ATOM     12  C   UNL     1       1.009   3.528  -0.266  0.00  0.00    +0.055 C 
ATOM     13  C   UNL     1       1.237   2.039   0.001  0.00  0.00    +0.107 C 
ATOM     14  C   UNL     1       2.107   1.442  -1.112  0.00  0.00    +0.074 C 
ATOM     15  C   UNL     1       2.408  -0.017  -0.757  0.00  0.00    +0.110 C 
ATOM     16  C   UNL     1       1.132  -0.716  -0.361  0.00  0.00    +0.015 A 
ATOM     17  C   UNL     1       1.103  -2.101  -0.359  0.00  0.00    +0.009 A 
ATOM     18  C   UNL     1      -0.046  -2.774   0.006  0.00  0.00    +0.001 A 
ATOM     19  C   UNL     1      -1.175  -2.065   0.372  0.00  0.00    +0.004 A 
ATOM     20  C   UNL     1      -1.154  -0.686   0.370  0.00  0.00    +0.046 A 
ATOM     21  C   UNL     1       0.002  -0.004   0.002  0.00  0.00    +0.126 A 
ATOM     22  O   UNL     1      -0.016   1.354   0.009  0.00  0.00    -0.486 OA
ATOM     23  C   UNL     1       1.932   1.858   1.352  0.00  0.00    +0.055 C 
ENDBRANCH   8  15
ENDBRANCH   1   9
BRANCH   5  24
ATOM     24  C   UNL     1       6.567  -5.517  -3.230  0.00  0.00    +0.022 C 
BRANCH  24  25
ATOM     25  C   UNL     1       7.632  -5.163  -2.223  0.00  0.00    +0.211 A 
ATOM     26  N   UNL     1       7.488  -5.124  -0.922  0.00  0.00    -0.192 NA
ATOM     27  C   UNL     1       8.699  -4.764  -0.434  0.00  0.00    +0.209 A 
ATOM     28  N   UNL     1       9.495  -4.599  -1.461  0.00  0.00    -0.056 NA
ATOM     29  O   UNL     1       8.897  -4.824  -2.492  0.00  0.00    -0.340 OA
BRANCH  27  30
ATOM     30  C   UNL     1       9.053  -4.585   0.989  0.00  0.00    +0.060 A 
ATOM     31  C   UNL     1      10.252  -4.219   1.541  0.00  0.00    +0.019 A 
ATOM     32  C   UNL     1      10.347  -4.115   2.910  0.00  0.00    +0.008 A 
ATOM     33  C   UNL     1       9.253  -4.378   3.671  0.00  0.00    +0.046 A 
ATOM     34  S   UNL     1       8.027  -4.783   2.437  0.00  0.00    -0.093 S 
ENDBRANCH  27  30
ENDBRANCH  24  25
ENDBRANCH   5  24
TORSDOF 5
