REMARK  Name = ZINC63743535
REMARK  9 active torsions:
REMARK  status: ('A' for Active; 'I' for Inactive)
REMARK    1  A    between atoms: C_1  and  C_2
REMARK    2  A    between atoms: C_2  and  C_3
REMARK    3  A    between atoms: C_8  and  S_9
REMARK    4  A    between atoms: S_9  and  N_12
REMARK    5  A    between atoms: N_12  and  C_13
REMARK    6  A    between atoms: C_16  and  C_19
REMARK    7  A    between atoms: C_19  and  C_20
REMARK    8  A    between atoms: C_20  and  C_21
REMARK    9  A    between atoms: C_27  and  C_31
REMARK                            x       y       z     vdW  Elec       q    Type
REMARK                         _______ _______ _______ _____ _____    ______ ____
ROOT
ATOM      1  C   UNL     1       1.080   1.829   0.549  0.00  0.00    +0.048 A 
ATOM      2  C   UNL     1       0.093   1.313  -0.282  0.00  0.00    +0.025 A 
ATOM      3  C   UNL     1      -1.214   1.734  -0.143  0.00  0.00    +0.005 A 
ATOM      4  C   UNL     1      -1.543   2.669   0.822  0.00  0.00    -0.047 A 
ATOM      5  C   UNL     1      -0.563   3.185   1.650  0.00  0.00    +0.005 A 
ATOM      6  C   UNL     1       0.746   2.764   1.520  0.00  0.00    +0.025 A 
ENDROOT
BRANCH   1   7
ATOM      7  N   UNL     1       2.404   1.405   0.411  0.00  0.00    -0.216 N 
ATOM      8  H   UNL     1       3.124   2.055   0.417  0.00  0.00    +0.174 HD
BRANCH   7   9
ATOM      9  S   UNL     1       2.743  -0.206   0.237  0.00  0.00    +0.073 S 
ATOM     10  O   UNL     1       1.992  -0.889   1.232  0.00  0.00    -0.150 OA
ATOM     11  O   UNL     1       4.157  -0.315   0.141  0.00  0.00    -0.150 OA
BRANCH   9  17
ATOM     12  C   UNL     1       2.596  -0.169  -2.488  0.00  0.00    -0.021 A 
ATOM     13  C   UNL     1       2.089  -0.569  -3.711  0.00  0.00    +0.005 A 
ATOM     14  C   UNL     1       1.075  -1.507  -3.765  0.00  0.00    +0.000 A 
ATOM     15  C   UNL     1       0.568  -2.045  -2.597  0.00  0.00    +0.002 A 
ATOM     16  C   UNL     1       1.075  -1.645  -1.375  0.00  0.00    +0.029 A 
ATOM     17  C   UNL     1       2.092  -0.711  -1.321  0.00  0.00    +0.112 A 
BRANCH  12  19
ATOM     18  C   UNL     1       5.056   0.145  -2.506  0.00  0.00    +0.009 C 
ATOM     19  C   UNL     1       3.702   0.854  -2.429  0.00  0.00    +0.034 C 
ENDBRANCH  12  19
ENDBRANCH   9  17
ENDBRANCH   7   9
ENDBRANCH   1   7
BRANCH   4  20
ATOM     20  C   UNL     1      -2.971   3.126   0.970  0.00  0.00    +0.039 C 
BRANCH  20  21
ATOM     21  C   UNL     1      -3.696   2.220   1.966  0.00  0.00    +0.051 C 
BRANCH  21  22
ATOM     22  C   UNL     1      -5.146   2.684   2.117  0.00  0.00    +0.174 C 
ATOM     23  N   UNL     1      -5.184   4.049   2.657  0.00  0.00    -0.363 N 
ATOM     24  C   UNL     1      -5.824   4.003   3.790  0.00  0.00    +0.060 A 
ATOM     25  C   UNL     1      -6.178   5.029   4.780  0.00  0.00    +0.027 A 
ATOM     26  C   UNL     1      -6.862   4.677   5.887  0.00  0.00    +0.005 A 
ATOM     27  C   UNL     1      -7.260   3.353   6.144  0.00  0.00    -0.048 A 
ATOM     28  C   UNL     1      -6.987   2.336   5.302  0.00  0.00    +0.030 A 
ATOM     29  C   UNL     1      -6.245   2.601   4.061  0.00  0.00    +0.060 A 
ATOM     30  N   UNL     1      -5.850   1.834   3.085  0.00  0.00    -0.363 N 
ATOM     31  C   UNL     1      -8.022   3.059   7.410  0.00  0.00    +0.044 C 
ATOM     32  H   UNL     1      -4.803   4.840   2.245  0.00  0.00    +0.162 HD
ATOM     33  H   UNL     1      -5.994   0.878   3.011  0.00  0.00    +0.162 HD
ENDBRANCH  21  22
ENDBRANCH  20  21
ENDBRANCH   4  20
TORSDOF 7
