REMARK  Name = ZINC15970075
REMARK  6 active torsions:
REMARK  status: ('A' for Active; 'I' for Inactive)
REMARK    1  A    between atoms: C_1  and  O_2
REMARK    2  A    between atoms: O_2  and  C_3
REMARK    3  A    between atoms: C_3  and  C_4
REMARK    4  A    between atoms: C_4  and  N_5
REMARK    5  A    between atoms: C_10  and  C_28
REMARK    6  A    between atoms: C_28  and  C_29
REMARK                            x       y       z     vdW  Elec       q    Type
REMARK                         _______ _______ _______ _____ _____    ______ ____
ROOT
ATOM      1  N   UNL     1      -1.078  -2.107   1.939  0.00  0.00    -0.239 N 
ATOM      2  C   UNL     1       0.106  -2.729   1.914  0.00  0.00    +0.227 C 
ATOM      3  O   UNL     1       0.686  -3.092   0.913  0.00  0.00    -0.275 OA
ATOM      4  C   UNL     1       0.609  -2.907   3.328  0.00  0.00    +0.107 C 
ATOM      5  C   UNL     1       1.858  -2.027   3.540  0.00  0.00    +0.072 C 
ATOM      6  N   UNL     1       1.326  -0.700   3.950  0.00  0.00    -0.295 NA
ATOM      7  C   UNL     1       0.185  -1.026   4.826  0.00  0.00    +0.136 C 
ATOM      8  C   UNL     1      -0.508  -2.257   4.192  0.00  0.00    +0.122 C 
ATOM      9  C   UNL     1      -1.516  -1.794   3.164  0.00  0.00    +0.228 C 
ATOM     10  O   UNL     1      -2.560  -1.230   3.411  0.00  0.00    -0.275 OA
ATOM     11  C   UNL     1      -0.761   0.134   4.957  0.00  0.00    +0.005 A 
ATOM     12  C   UNL     1      -1.500   0.861   4.051  0.00  0.00    +0.027 A 
ATOM     13  C   UNL     1      -2.304   1.900   4.487  0.00  0.00    +0.041 A 
ATOM     14  C   UNL     1      -2.361   2.206   5.836  0.00  0.00    +0.022 A 
ATOM     15  C   UNL     1      -1.620   1.481   6.746  0.00  0.00    +0.025 A 
ATOM     16  C   UNL     1      -0.811   0.433   6.315  0.00  0.00    +0.039 A 
ATOM     17  N   UNL     1       0.018  -0.434   7.032  0.00  0.00    -0.283 N 
ATOM     18  C   UNL     1       0.638  -1.321   6.230  0.00  0.00    +0.243 C 
ATOM     19  O   UNL     1       1.411  -2.191   6.573  0.00  0.00    -0.273 OA
ATOM     20 CL   UNL     1      -3.238   2.817   3.347  0.00  0.00    -0.084 Cl
ATOM     21  H   UNL     1       2.024  -0.168   4.448  0.00  0.00    +0.124 HD
ATOM     22  H   UNL     1       0.133  -0.401   7.994  0.00  0.00    +0.155 HD
ENDROOT
BRANCH   1  23
ATOM     23  C   UNL     1      -1.831  -1.789   0.723  0.00  0.00    +0.144 C 
BRANCH  23  24
ATOM     24  C   UNL     1      -1.419  -0.405   0.216  0.00  0.00    +0.179 C 
BRANCH  24  26
ATOM     25  C   UNL     1       0.439   0.816  -0.679  0.00  0.00    +0.194 C 
ATOM     26  O   UNL     1      -0.048  -0.434  -0.186  0.00  0.00    -0.381 OA
ENDBRANCH  24  26
ENDBRANCH  23  24
ENDBRANCH   1  23
BRANCH   5  27
ATOM     27  C   UNL     1       2.742  -2.612   4.643  0.00  0.00    +0.056 C 
BRANCH  27  28
ATOM     28  C   UNL     1       3.773  -3.525   4.030  0.00  0.00    -0.021 A 
ATOM     29  C   UNL     1       3.676  -4.856   3.886  0.00  0.00    +0.087 A 
ATOM     30  N   UNL     1       4.806  -5.343   3.287  0.00  0.00    -0.360 N 
ATOM     31  H   UNL     1       4.967  -6.277   3.078  0.00  0.00    +0.165 HD
ATOM     32  C   UNL     1       5.679  -4.312   3.025  0.00  0.00    +0.047 A 
ATOM     33  C   UNL     1       5.068  -3.127   3.473  0.00  0.00    +0.003 A 
ATOM     34  C   UNL     1       5.728  -1.905   3.330  0.00  0.00    +0.010 A 
ATOM     35  C   UNL     1       6.966  -1.867   2.752  0.00  0.00    +0.001 A 
ATOM     36  C   UNL     1       7.571  -3.032   2.304  0.00  0.00    +0.002 A 
ATOM     37  C   UNL     1       6.941  -4.250   2.443  0.00  0.00    +0.026 A 
ENDBRANCH  27  28
ENDBRANCH   5  27
TORSDOF 5
