REMARK  Name = ZINC36660445
REMARK  10 active torsions:
REMARK  status: ('A' for Active; 'I' for Inactive)
REMARK    1  A    between atoms: C_1  and  C_2
REMARK    2  A    between atoms: C_2  and  C_3
REMARK    3  A    between atoms: C_2  and  N_4
REMARK    4  A    between atoms: C_10  and  N_16
REMARK    5  A    between atoms: C_11  and  C_12
REMARK    6  A    between atoms: C_12  and  O_14
REMARK    7  A    between atoms: O_14  and  C_15
REMARK    8  A    between atoms: C_17  and  C_19
REMARK    9  A    between atoms: N_24  and  S_25
REMARK   10  A    between atoms: S_25  and  C_28
REMARK                            x       y       z     vdW  Elec       q    Type
REMARK                         _______ _______ _______ _____ _____    ______ ____
ROOT
ATOM      1  N   UNL     1       2.160  -0.788   7.348  0.00  0.00    -0.278 N 
ATOM      2  C   UNL     1       1.513  -0.021   8.248  0.00  0.00    +0.236 C 
ATOM      3  O   UNL     1       0.624   0.720   7.886  0.00  0.00    -0.274 OA
ATOM      4  H   UNL     1       2.871  -1.380   7.638  0.00  0.00    +0.155 HD
ENDROOT
BRANCH   1  11
ATOM      5  N   UNL     1       0.818  -0.232   1.202  0.00  0.00    +0.384 N 
ATOM      6  C   UNL     1       1.166  -1.656   1.293  0.00  0.00    -0.073 C 
ATOM      7  C   UNL     1       2.261  -1.867   2.344  0.00  0.00    +0.018 C 
ATOM      8  C   UNL     1       1.806  -1.196   3.633  0.00  0.00    -0.025 A 
ATOM      9  C   UNL     1       0.806  -0.286   3.610  0.00  0.00    -0.021 A 
ATOM     10  S   UNL     1       0.618   0.215   5.293  0.00  0.00    -0.079 S 
ATOM     11  C   UNL     1       1.808  -0.731   6.009  0.00  0.00    +0.086 A 
ATOM     12  C   UNL     1       2.359  -1.441   4.951  0.00  0.00    +0.091 A 
ATOM     13  C   UNL     1       0.055   0.169   2.398  0.00  0.00    -0.035 C 
ATOM     14  H   UNL     1       1.663   0.316   1.143  0.00  0.00    -0.081 HD
BRANCH   5  16
ATOM     15  C   UNL     1      -0.448   1.458  -0.038  0.00  0.00    -0.014 C 
ATOM     16  C   UNL     1       0.002  -0.004   0.002  0.00  0.00    -0.074 C 
ATOM     17  C   UNL     1       0.831  -0.317  -1.246  0.00  0.00    -0.014 C 
ENDBRANCH   5  16
BRANCH  12  18
ATOM     18  C   UNL     1       3.449  -2.396   5.157  0.00  0.00    +0.342 C 
ATOM     19  O   UNL     1       4.605  -2.023   5.091  0.00  0.00    -0.245 OA
BRANCH  18  20
ATOM     20  O   UNL     1       3.172  -3.690   5.420  0.00  0.00    -0.464 OA
ATOM     21  C   UNL     1       4.285  -4.566   5.610  0.00  0.00    +0.280 C 
ENDBRANCH  18  20
ENDBRANCH  12  18
ENDBRANCH   1  11
BRANCH   2  22
ATOM     22  C   UNL     1       1.896  -0.083   9.705  0.00  0.00    +0.166 C 
ATOM     23  C   UNL     1       3.363   0.361   9.881  0.00  0.00    +0.031 C 
ATOM     24  C   UNL     1       3.228   1.852  10.288  0.00  0.00    +0.019 C 
ATOM     25  C   UNL     1       1.940   1.825  11.148  0.00  0.00    +0.110 C 
ATOM     26  N   UNL     1       1.059   0.843  10.481  0.00  0.00    -0.165 NA
BRANCH  26  27
ATOM     27  S   UNL     1      -0.593   0.794  10.588  0.00  0.00    +0.062 S 
ATOM     28  O   UNL     1      -1.017   2.107  10.929  0.00  0.00    -0.153 OA
ATOM     29  O   UNL     1      -1.055   0.122   9.424  0.00  0.00    -0.153 OA
BRANCH  27  30
ATOM     30  C   UNL     1      -0.996  -0.237  11.959  0.00  0.00    +0.106 A 
ATOM     31  C   UNL     1      -1.167  -1.596  11.774  0.00  0.00    +0.030 A 
ATOM     32  C   UNL     1      -1.483  -2.406  12.849  0.00  0.00    +0.022 A 
ATOM     33  C   UNL     1      -1.628  -1.855  14.110  0.00  0.00    +0.041 A 
ATOM     34  C   UNL     1      -1.457  -0.495  14.294  0.00  0.00    +0.022 A 
ATOM     35  C   UNL     1      -1.135   0.313  13.219  0.00  0.00    +0.030 A 
ATOM     36 CL   UNL     1      -2.026  -2.871  15.460  0.00  0.00    -0.084 Cl
ENDBRANCH  27  30
ENDBRANCH  26  27
ENDBRANCH   2  22
TORSDOF 7
