REMARK  Name = ZINC15069344
REMARK  10 active torsions:
REMARK  status: ('A' for Active; 'I' for Inactive)
REMARK    1  A    between atoms: C_1  and  C_2
REMARK    2  A    between atoms: C_2  and  C_40
REMARK    3  A    between atoms: C_4  and  N_9
REMARK    4  A    between atoms: C_10  and  C_12
REMARK    5  A    between atoms: C_15  and  C_20
REMARK    6  A    between atoms: C_20  and  N_78
REMARK    7  A    between atoms: C_23  and  C_26
REMARK    8  A    between atoms: C_26  and  C_27
REMARK    9  A    between atoms: C_26  and  C_33
REMARK   10  A    between atoms: C_26  and  O_39
REMARK                            x       y       z     vdW  Elec       q    Type
REMARK                         _______ _______ _______ _____ _____    ______ ____
ROOT
ATOM      1  C   UNL     1      -0.024   1.463   0.027  0.00  0.00    -0.078 C 
ATOM      2  C   UNL     1       1.412   1.992   0.036  0.00  0.00    -0.012 C 
ATOM      3  C   UNL     1       2.137   1.465   1.278  0.00  0.00    +0.026 C 
ATOM      4  C   UNL     1       2.099  -0.066   1.270  0.00  0.00    -0.012 C 
ATOM      5  C   UNL     1       0.643  -0.535   1.225  0.00  0.00    -0.078 C 
ATOM      6  N   UNL     1       0.009  -0.015  -0.005  0.00  0.00    +0.383 N 
ATOM      7  H   UNL     1       0.560  -0.318  -0.818  0.00  0.00    -0.081 HD
ENDROOT
BRANCH   6   8
ATOM      8  C   UNL     1      -1.363  -0.548  -0.130  0.00  0.00    -0.025 C 
BRANCH   8  12
ATOM      9  C   UNL     1      -1.142  -4.740  -0.845  0.00  0.00    +0.101 A 
ATOM     10  C   UNL     1      -1.732  -4.267   0.325  0.00  0.00    +0.020 A 
ATOM     11  C   UNL     1      -1.790  -2.890   0.543  0.00  0.00    +0.020 A 
ATOM     12  C   UNL     1      -1.286  -2.032  -0.380  0.00  0.00    +0.003 A 
ATOM     13  N   UNL     1      -0.711  -2.485  -1.520  0.00  0.00    -0.327 N 
ATOM     14  H   UNL     1      -0.356  -1.849  -2.160  0.00  0.00    +0.169 HD
ATOM     15  C   UNL     1      -0.625  -3.804  -1.778  0.00  0.00    +0.261 A 
ATOM     16  O   UNL     1      -0.104  -4.192  -2.809  0.00  0.00    -0.267 OA
BRANCH   9  18
ATOM     17  N   UNL     1      -0.593  -6.627  -2.295  0.00  0.00    -0.308 N 
ATOM     18  C   UNL     1      -1.057  -6.184  -1.110  0.00  0.00    +0.250 C 
ATOM     19  O   UNL     1      -1.407  -6.980  -0.258  0.00  0.00    -0.270 OA
ATOM     20  H   UNL     1      -0.245  -5.996  -2.945  0.00  0.00    +0.149 HD
BRANCH  17  24
ATOM     21  C   UNL     1      -1.819 -10.448  -3.846  0.00  0.00    +0.041 C 
ATOM     22  C   UNL     1      -0.587  -9.755  -4.432  0.00  0.00    +0.066 C 
ATOM     23  C   UNL     1      -0.646  -8.258  -4.120  0.00  0.00    +0.056 C 
ATOM     24  C   UNL     1      -0.612  -8.059  -2.601  0.00  0.00    +0.078 C 
ATOM     25  C   UNL     1       0.649  -8.721  -2.038  0.00  0.00    +0.050 C 
ATOM     26  C   UNL     1       0.658 -10.201  -2.431  0.00  0.00    +0.162 C 
ATOM     27  O   UNL     1       0.595 -10.315  -3.854  0.00  0.00    -0.374 OA
ATOM     28  C   UNL     1      -0.559  -9.960  -5.948  0.00  0.00    +0.041 C 
ENDBRANCH  17  24
ENDBRANCH   9  18
ENDBRANCH   8  12
ENDBRANCH   6   8
BRANCH   3  29
ATOM     29  C   UNL     1       3.591   1.941   1.263  0.00  0.00    +0.119 C 
BRANCH  29  30
ATOM     30  C   UNL     1       3.626   3.447   1.271  0.00  0.00    -0.011 A 
ATOM     31  C   UNL     1       2.610   4.159   1.881  0.00  0.00    +0.007 A 
ATOM     32  C   UNL     1       2.645   5.541   1.892  0.00  0.00    +0.000 A 
ATOM     33  C   UNL     1       3.691   6.211   1.285  0.00  0.00    +0.000 A 
ATOM     34  C   UNL     1       4.704   5.499   0.671  0.00  0.00    +0.000 A 
ATOM     35  C   UNL     1       4.672   4.117   0.664  0.00  0.00    +0.007 A 
ENDBRANCH  29  30
BRANCH  29  36
ATOM     36  C   UNL     1       4.304   1.415   2.482  0.00  0.00    -0.011 A 
ATOM     37  C   UNL     1       3.603   1.200   3.654  0.00  0.00    +0.007 A 
ATOM     38  C   UNL     1       4.256   0.714   4.771  0.00  0.00    +0.000 A 
ATOM     39  C   UNL     1       5.612   0.451   4.719  0.00  0.00    +0.000 A 
ATOM     40  C   UNL     1       6.314   0.670   3.549  0.00  0.00    +0.000 A 
ATOM     41  C   UNL     1       5.660   1.153   2.431  0.00  0.00    +0.007 A 
ENDBRANCH  29  36
BRANCH  29  42
ATOM     42  O   UNL     1       4.239   1.455   0.086  0.00  0.00    -0.379 OA
ATOM     43  H   UNL     1       4.254   0.491   0.014  0.00  0.00    +0.211 HD
ENDBRANCH  29  42
ENDBRANCH   3  29
TORSDOF 8
