REMARK  Name = ZINC18743572
REMARK  11 active torsions:
REMARK  status: ('A' for Active; 'I' for Inactive)
REMARK    1  A    between atoms: C_1  and  C_2
REMARK    2  A    between atoms: C_4  and  C_31
REMARK    3  A    between atoms: C_6  and  O_8
REMARK    4  A    between atoms: O_8  and  C_9
REMARK    5  A    between atoms: C_9  and  C_10
REMARK    6  A    between atoms: C_13  and  S_16
REMARK    7  A    between atoms: N_14  and  N_15
REMARK    8  A    between atoms: S_16  and  C_17
REMARK    9  A    between atoms: C_17  and  C_19
REMARK   10  A    between atoms: C_17  and  C_20
REMARK   11  A    between atoms: N_22  and  C_23
REMARK                            x       y       z     vdW  Elec       q    Type
REMARK                         _______ _______ _______ _____ _____    ______ ____
ROOT
ATOM      1  C   UNL     1       3.656   3.115  -0.038  0.00  0.00    +0.189 A 
ATOM      2  N   UNL     1       3.819   1.823  -0.051  0.00  0.00    -0.128 NA
ATOM      3  N   UNL     1       2.676   1.234  -0.038  0.00  0.00    -0.121 NA
ATOM      4  C   UNL     1       1.715   2.128  -0.015  0.00  0.00    +0.209 A 
ATOM      5  N   UNL     1       2.310   3.356  -0.020  0.00  0.00    -0.225 N 
ENDROOT
BRANCH   5   6
ATOM      6  N   UNL     1       1.690   4.574  -0.007  0.00  0.00    -0.295 N 
ATOM      7  H   UNL     1       1.541   4.893   0.939  0.00  0.00    +0.163 HD
ATOM      8  H   UNL     1       2.214   5.252  -0.539  0.00  0.00    +0.163 HD
ENDBRANCH   5   6
BRANCH   1   9
ATOM      9  C   UNL     1       4.749   4.153  -0.047  0.00  0.00    +0.306 C 
BRANCH   9  10
ATOM     10  O   UNL     1       5.073   4.492  -1.397  0.00  0.00    -0.484 OA
BRANCH  10  16
ATOM     11  C   UNL     1       8.356   7.561   0.508  0.00  0.00    +0.044 C 
ATOM     12  C   UNL     1       7.669   6.938  -0.680  0.00  0.00    -0.047 A 
ATOM     13  C   UNL     1       8.031   7.312  -1.961  0.00  0.00    +0.007 A 
ATOM     14  C   UNL     1       7.404   6.742  -3.054  0.00  0.00    -0.047 A 
ATOM     15  C   UNL     1       6.413   5.797  -2.867  0.00  0.00    +0.049 A 
ATOM     16  C   UNL     1       6.048   5.421  -1.583  0.00  0.00    +0.122 A 
ATOM     17  C   UNL     1       6.675   5.999  -0.488  0.00  0.00    +0.049 A 
ATOM     18  C   UNL     1       7.801   7.151  -4.448  0.00  0.00    +0.044 C 
ENDBRANCH  10  16
ENDBRANCH   9  10
ENDBRANCH   1   9
BRANCH   4  19
ATOM     19  S   UNL     1      -0.017   1.803   0.011  0.00  0.00    -0.072 S 
BRANCH  19  20
ATOM     20  C   UNL     1       0.003  -0.007  -0.004  0.00  0.00    +0.137 C 
ATOM     21  C   UNL     1       0.597  -0.500  -1.325  0.00  0.00    +0.029 C 
BRANCH  20  22
ATOM     22  C   UNL     1      -1.405  -0.526   0.138  0.00  0.00    +0.230 C 
ATOM     23  O   UNL     1      -2.343   0.163  -0.206  0.00  0.00    -0.274 OA
ATOM     24  N   UNL     1      -1.622  -1.754   0.648  0.00  0.00    -0.285 N 
ATOM     25  H   UNL     1      -0.872  -2.331   0.861  0.00  0.00    +0.155 HD
BRANCH  24  26
ATOM     26  C   UNL     1      -2.930  -2.198   0.870  0.00  0.00    +0.036 A 
ATOM     27  C   UNL     1      -3.212  -3.017   1.956  0.00  0.00    +0.043 A 
ATOM     28  C   UNL     1      -4.506  -3.450   2.176  0.00  0.00    +0.044 A 
ATOM     29  C   UNL     1      -5.519  -3.077   1.310  0.00  0.00    +0.040 A 
ATOM     30  C   UNL     1      -5.240  -2.266   0.224  0.00  0.00    +0.044 A 
ATOM     31  C   UNL     1      -3.948  -1.826   0.002  0.00  0.00    +0.043 A 
ATOM     32 CL   UNL     1      -6.513  -1.801  -0.861  0.00  0.00    -0.083 Cl
ATOM     33 CL   UNL     1      -4.860  -4.467   3.538  0.00  0.00    -0.083 Cl
ENDBRANCH  24  26
ENDBRANCH  20  22
ENDBRANCH  19  20
ENDBRANCH   4  19
TORSDOF 8
