REMARK  Name = ZINC39653059
REMARK  10 active torsions:
REMARK  status: ('A' for Active; 'I' for Inactive)
REMARK    1  A    between atoms: C_1  and  O_2
REMARK    2  A    between atoms: O_2  and  C_3
REMARK    3  A    between atoms: C_5  and  C_11
REMARK    4  A    between atoms: C_7  and  O_9
REMARK    5  A    between atoms: O_9  and  C_10
REMARK    6  A    between atoms: C_11  and  C_12
REMARK    7  A    between atoms: C_12  and  N_13
REMARK    8  A    between atoms: C_14  and  C_16
REMARK    9  A    between atoms: C_27  and  C_29
REMARK   10  A    between atoms: C_29  and  C_30
REMARK                            x       y       z     vdW  Elec       q    Type
REMARK                         _______ _______ _______ _____ _____    ______ ____
ROOT
ATOM      1  C   UNL     1      -2.670  -8.332   2.619  0.00  0.00    +0.100 C 
ATOM      2  C   UNL     1      -1.468  -8.914   1.842  0.00  0.00    +0.121 C 
ATOM      3  N   UNL     1      -0.453  -9.202   2.882  0.00  0.00    -0.300 N 
ATOM      4  C   UNL     1      -1.235  -9.734   4.023  0.00  0.00    +0.115 C 
ATOM      5  C   UNL     1      -2.515  -8.875   4.050  0.00  0.00    -0.004 C 
ATOM      6  C   UNL     1      -2.356  -7.723   5.038  0.00  0.00    -0.010 C 
ATOM      7  C   UNL     1      -2.261  -8.286   6.459  0.00  0.00    -0.082 C 
ATOM      8  N   UNL     1      -3.473  -9.056   6.764  0.00  0.00    +0.379 N 
ATOM      9  C   UNL     1      -3.570 -10.215   5.869  0.00  0.00    -0.082 C 
ATOM     10  C   UNL     1      -3.720  -9.733   4.423  0.00  0.00    -0.010 C 
ATOM     11  C   UNL     1       0.881  -9.021   2.807  0.00  0.00    +0.220 C 
ATOM     12  O   UNL     1       1.585  -9.308   3.752  0.00  0.00    -0.275 OA
ATOM     13  H   UNL     1      -3.435  -9.374   7.721  0.00  0.00    -0.086 HD
ATOM     14  H   UNL     1      -4.283  -8.468   6.640  0.00  0.00    -0.086 HD
ENDROOT
BRANCH   1  16
ATOM     15  N   UNL     1      -3.752  -6.109   2.709  0.00  0.00    -0.315 N 
ATOM     16  C   UNL     1      -2.614  -6.825   2.621  0.00  0.00    +0.218 C 
ATOM     17  O   UNL     1      -1.544  -6.258   2.544  0.00  0.00    -0.275 OA
ATOM     18  H   UNL     1      -4.607  -6.562   2.770  0.00  0.00    +0.149 HD
BRANCH  15  19
ATOM     19  C   UNL     1      -3.697  -4.645   2.710  0.00  0.00    +0.109 C 
BRANCH  19  20
ATOM     20  C   UNL     1      -5.115  -4.082   2.818  0.00  0.00    +0.054 C 
BRANCH  20  23
ATOM     21  C   UNL     1      -5.071  -0.495   1.626  0.00  0.00    +0.124 A 
ATOM     22  C   UNL     1      -5.122  -1.882   1.627  0.00  0.00    +0.049 A 
ATOM     23  C   UNL     1      -5.059  -2.576   2.820  0.00  0.00    -0.039 A 
ATOM     24  C   UNL     1      -4.945  -1.891   4.015  0.00  0.00    +0.049 A 
ATOM     25  C   UNL     1      -4.893  -0.504   4.019  0.00  0.00    +0.124 A 
ATOM     26  C   UNL     1      -4.950   0.194   2.823  0.00  0.00    +0.091 A 
BRANCH  21  28
ATOM     27  C   UNL     1      -5.069   1.613   0.526  0.00  0.00    +0.277 C 
ATOM     28  O   UNL     1      -5.133   0.187   0.452  0.00  0.00    -0.495 OA
ENDBRANCH  21  28
BRANCH  25  29
ATOM     29  O   UNL     1      -4.781   0.168   5.194  0.00  0.00    -0.495 OA
ATOM     30  C   UNL     1      -4.733   1.595   5.124  0.00  0.00    +0.277 C 
ENDBRANCH  25  29
ENDBRANCH  20  23
ENDBRANCH  19  20
ENDBRANCH  15  19
ENDBRANCH   1  16
BRANCH  11  31
ATOM     31  C   UNL     1       1.496  -8.462   1.550  0.00  0.00    +0.131 C 
BRANCH  31  32
ATOM     32  C   UNL     1       2.989  -8.360   1.724  0.00  0.00    -0.039 A 
ATOM     33  C   UNL     1       3.547  -7.205   2.241  0.00  0.00    +0.005 A 
ATOM     34  C   UNL     1       4.917  -7.111   2.401  0.00  0.00    +0.020 A 
ATOM     35  C   UNL     1       5.729  -8.172   2.044  0.00  0.00    +0.041 A 
ATOM     36  C   UNL     1       5.171  -9.328   1.527  0.00  0.00    +0.020 A 
ATOM     37  C   UNL     1       3.800  -9.423   1.373  0.00  0.00    +0.005 A 
ATOM     38 CL   UNL     1       7.450  -8.054   2.244  0.00  0.00    -0.084 Cl
ENDBRANCH  31  32
ENDBRANCH  11  31
TORSDOF 8
