REMARK  Name = ZINC08868731
REMARK  10 active torsions:
REMARK  status: ('A' for Active; 'I' for Inactive)
REMARK    1  A    between atoms: C_1  and  C_2
REMARK    2  A    between atoms: C_2  and  N_62
REMARK    3  A    between atoms: C_8  and  N_14
REMARK    4  A    between atoms: C_9  and  C_10
REMARK    5  A    between atoms: C_10  and  O_12
REMARK    6  A    between atoms: O_12  and  C_13
REMARK    7  A    between atoms: C_15  and  C_17
REMARK    8  A    between atoms: N_22  and  S_23
REMARK    9  A    between atoms: S_23  and  C_26
REMARK   10  A    between atoms: C_29  and  C_32
REMARK                            x       y       z     vdW  Elec       q    Type
REMARK                         _______ _______ _______ _____ _____    ______ ____
ROOT
ATOM      1  N   UNL     1      -0.140  -0.249   2.971  0.00  0.00    -0.278 N 
ATOM      2  C   UNL     1      -1.159   0.300   2.281  0.00  0.00    +0.236 C 
ATOM      3  O   UNL     1      -2.290  -0.108   2.442  0.00  0.00    -0.274 OA
ATOM      4  H   UNL     1       0.764   0.078   2.843  0.00  0.00    +0.155 HD
ENDROOT
BRANCH   1  10
ATOM      5  C   UNL     1      -0.078  -4.526   7.476  0.00  0.00    -0.074 C 
ATOM      6  C   UNL     1       0.854  -3.868   6.454  0.00  0.00    +0.018 C 
ATOM      7  C   UNL     1       0.005  -3.015   5.517  0.00  0.00    -0.025 A 
ATOM      8  C   UNL     1      -1.331  -3.211   5.445  0.00  0.00    -0.021 A 
ATOM      9  S   UNL     1      -1.897  -2.026   4.261  0.00  0.00    -0.079 S 
ATOM     10  C   UNL     1      -0.384  -1.280   3.865  0.00  0.00    +0.086 A 
ATOM     11  C   UNL     1       0.526  -1.971   4.656  0.00  0.00    +0.091 A 
ATOM     12  C   UNL     1      -2.123  -4.222   6.213  0.00  0.00    -0.035 C 
ATOM     13  N   UNL     1      -1.173  -5.218   6.766  0.00  0.00    +0.383 N 
ATOM     14  H   UNL     1      -0.777  -5.767   5.994  0.00  0.00    -0.081 HD
BRANCH  13  16
ATOM     15  C   UNL     1      -2.852  -6.995   6.888  0.00  0.00    -0.017 C 
ATOM     16  C   UNL     1      -1.879  -6.130   7.692  0.00  0.00    -0.082 C 
ENDBRANCH  13  16
BRANCH  11  17
ATOM     17  C   UNL     1       1.956  -1.653   4.624  0.00  0.00    +0.342 C 
ATOM     18  O   UNL     1       2.411  -0.820   5.383  0.00  0.00    -0.245 OA
BRANCH  17  19
ATOM     19  O   UNL     1       2.768  -2.286   3.752  0.00  0.00    -0.464 OA
ATOM     20  C   UNL     1       4.173  -1.922   3.776  0.00  0.00    +0.280 C 
ENDBRANCH  17  19
ENDBRANCH  11  17
ENDBRANCH   1  10
BRANCH   2  21
ATOM     21  C   UNL     1      -0.894   1.421   1.310  0.00  0.00    +0.166 C 
ATOM     22  C   UNL     1      -0.524   0.842  -0.072  0.00  0.00    +0.031 C 
ATOM     23  C   UNL     1      -1.225   1.812  -1.059  0.00  0.00    +0.019 C 
ATOM     24  C   UNL     1      -2.523   2.156  -0.288  0.00  0.00    +0.110 C 
ATOM     25  N   UNL     1      -2.114   2.230   1.127  0.00  0.00    -0.165 NA
BRANCH  25  26
ATOM     26  S   UNL     1      -2.894   3.080   2.314  0.00  0.00    +0.062 S 
ATOM     27  O   UNL     1      -4.269   3.108   1.957  0.00  0.00    -0.153 OA
ATOM     28  O   UNL     1      -2.439   2.555   3.554  0.00  0.00    -0.153 OA
BRANCH  26  29
ATOM     29  C   UNL     1      -2.318   4.743   2.229  0.00  0.00    +0.106 A 
ATOM     30  C   UNL     1      -1.151   5.104   2.877  0.00  0.00    +0.029 A 
ATOM     31  C   UNL     1      -0.696   6.407   2.806  0.00  0.00    +0.005 A 
ATOM     32  C   UNL     1      -1.414   7.352   2.096  0.00  0.00    -0.050 A 
ATOM     33  C   UNL     1      -2.583   6.992   1.454  0.00  0.00    +0.005 A 
ATOM     34  C   UNL     1      -3.035   5.688   1.520  0.00  0.00    +0.029 A 
ATOM     35  C   UNL     1      -0.921   8.775   2.025  0.00  0.00    +0.044 C 
ENDBRANCH  26  29
ENDBRANCH  25  26
ENDBRANCH   2  21
TORSDOF 7
