REMARK  Name = ZINC22798960
REMARK  11 active torsions:
REMARK  status: ('A' for Active; 'I' for Inactive)
REMARK    1  A    between atoms: C_1  and  C_2
REMARK    2  A    between atoms: C_2  and  C_4
REMARK    3  A    between atoms: C_2  and  N_18
REMARK    4  A    between atoms: N_6  and  C_7
REMARK    5  A    between atoms: C_8  and  C_15
REMARK    6  A    between atoms: N_22  and  C_25
REMARK    7  A    between atoms: C_25  and  C_26
REMARK    8  A    between atoms: N_28  and  C_29
REMARK    9  A    between atoms: C_29  and  C_30
REMARK   10  A    between atoms: C_29  and  C_31
REMARK   11  A    between atoms: C_29  and  C_32
REMARK                            x       y       z     vdW  Elec       q    Type
REMARK                         _______ _______ _______ _____ _____    ______ ____
ROOT
ATOM      1  C   UNL     1      -1.464  -0.353   0.266  0.00  0.00    +0.034 C 
ATOM      2  C   UNL     1       0.002  -0.004   0.002  0.00  0.00    +0.140 C 
ENDROOT
BRANCH   2   3
ATOM      3  N   UNL     1       0.838  -0.561   1.074  0.00  0.00    -0.294 NA
ATOM      4  C   UNL     1       1.082  -2.008   0.860  0.00  0.00    +0.083 C 
ATOM      5  C   UNL     1       2.354  -2.389   1.574  0.00  0.00    -0.003 C 
ATOM      6  C   UNL     1       2.102  -2.893   3.003  0.00  0.00    -0.077 C 
ATOM      7  N   UNL     1       1.086  -2.091   3.721  0.00  0.00    +0.386 N 
ATOM      8  C   UNL     1       1.240  -0.674   3.483  0.00  0.00    -0.063 C 
ATOM      9  C   UNL     1       0.302  -0.267   2.332  0.00  0.00    +0.066 C 
ATOM     10  H   UNL     1       0.168  -2.376   3.415  0.00  0.00    -0.081 HD
BRANCH   7  11
ATOM     11  C   UNL     1       1.207  -2.348   5.162  0.00  0.00    +0.019 C 
BRANCH  11  12
ATOM     12  C   UNL     1       0.862  -3.787   5.447  0.00  0.00    +0.197 C 
ATOM     13  O   UNL     1       0.546  -4.526   4.539  0.00  0.00    -0.278 OA
ATOM     14  N   UNL     1       0.904  -4.253   6.711  0.00  0.00    -0.312 N 
ATOM     15  H   UNL     1       1.157  -3.662   7.438  0.00  0.00    +0.149 HD
BRANCH  14  16
ATOM     16  C   UNL     1       0.568  -5.651   6.988  0.00  0.00    +0.026 C 
ATOM     17  C   UNL     1       1.528  -6.567   6.224  0.00  0.00    +0.031 C 
ATOM     18  C   UNL     1       0.694  -5.919   8.489  0.00  0.00    +0.031 C 
ATOM     19  C   UNL     1      -0.868  -5.930   6.539  0.00  0.00    +0.031 C 
ENDBRANCH  14  16
ENDBRANCH  11  12
ENDBRANCH   7  11
ENDBRANCH   2   3
BRANCH   2  20
ATOM     20  C   UNL     1       0.164   1.494  -0.034  0.00  0.00    +0.235 C 
ATOM     21  O   UNL     1       0.715   2.067   0.881  0.00  0.00    -0.274 OA
ATOM     22  N   UNL     1      -0.304   2.197  -1.085  0.00  0.00    -0.278 N 
ATOM     23  H   UNL     1      -0.746   1.739  -1.817  0.00  0.00    +0.155 HD
BRANCH  22  24
ATOM     24  C   UNL     1      -0.156   3.575  -1.118  0.00  0.00    +0.084 A 
ATOM     25  C   UNL     1      -0.574   4.452  -2.101  0.00  0.00    +0.068 A 
ATOM     26  C   UNL     1      -0.294   5.872  -1.897  0.00  0.00    -0.023 A 
ATOM     27  C   UNL     1       0.352   6.144  -0.748  0.00  0.00    -0.004 A 
ATOM     28  S   UNL     1       0.567   4.563   0.029  0.00  0.00    -0.077 S 
ATOM     29  C   UNL     1       0.618   7.616  -0.590  0.00  0.00    +0.043 C 
ATOM     30  C   UNL     1       0.428   8.202  -2.006  0.00  0.00    +0.010 C 
ATOM     31  C   UNL     1      -0.538   7.182  -2.642  0.00  0.00    +0.037 C 
BRANCH  25  32
ATOM     32  C   UNL     1      -1.270   3.977  -3.301  0.00  0.00    +0.244 C 
ATOM     33  O   UNL     1      -2.485   3.891  -3.307  0.00  0.00    -0.270 OA
ATOM     34  N   UNL     1      -0.566   3.635  -4.398  0.00  0.00    -0.325 N 
ATOM     35  H   UNL     1       0.402   3.703  -4.394  0.00  0.00    +0.145 HD
ATOM     36  H   UNL     1      -1.026   3.321  -5.192  0.00  0.00    +0.145 HD
ENDBRANCH  25  32
ENDBRANCH  22  24
ENDBRANCH   2  20
TORSDOF 7
