REMARK  Name = ZINC09293786
REMARK  12 active torsions:
REMARK  status: ('A' for Active; 'I' for Inactive)
REMARK    1  A    between atoms: C_1  and  C_2
REMARK    2  A    between atoms: C_5  and  S_8
REMARK    3  A    between atoms: S_8  and  N_11
REMARK    4  A    between atoms: N_11  and  C_12
REMARK    5  A    between atoms: C_17  and  C_18
REMARK    6  A    between atoms: C_18  and  N_20
REMARK    7  A    between atoms: N_22  and  C_32
REMARK    8  A    between atoms: C_25  and  C_31
REMARK    9  A    between atoms: C_26  and  C_30
REMARK   10  A    between atoms: C_32  and  C_33
REMARK   11  A    between atoms: C_33  and  O_35
REMARK   12  A    between atoms: O_35  and  C_36
REMARK                            x       y       z     vdW  Elec       q    Type
REMARK                         _______ _______ _______ _____ _____    ______ ____
ROOT
ATOM      1  C   UNL     1      -0.889   2.166  -0.778  0.00  0.00    +0.271 C 
ATOM      2  O   UNL     1      -0.771   3.351  -0.517  0.00  0.00    -0.268 OA
ENDROOT
BRANCH   1   3
ATOM      3  N   UNL     1      -2.094   1.586  -0.727  0.00  0.00    -0.152 NA
ATOM      4  C   UNL     1      -3.161   2.302  -0.391  0.00  0.00    +0.167 A 
ATOM      5  N   UNL     1      -4.454   1.890  -0.286  0.00  0.00    -0.310 N 
ATOM      6  C   UNL     1      -5.439   2.789   0.080  0.00  0.00    +0.058 A 
ATOM      7  C   UNL     1      -6.814   2.556   0.240  0.00  0.00    +0.030 A 
ATOM      8  C   UNL     1      -7.661   3.573   0.611  0.00  0.00    -0.046 A 
ATOM      9  C   UNL     1      -7.187   4.854   0.839  0.00  0.00    -0.046 A 
ATOM     10  C   UNL     1      -5.836   5.112   0.689  0.00  0.00    +0.020 A 
ATOM     11  C   UNL     1      -4.988   4.096   0.317  0.00  0.00    +0.039 A 
ATOM     12  S   UNL     1      -3.241   3.983   0.026  0.00  0.00    -0.052 S 
ATOM     13  C   UNL     1      -8.132   5.955   1.246  0.00  0.00    +0.044 C 
ATOM     14  C   UNL     1      -9.132   3.289   0.773  0.00  0.00    +0.044 C 
BRANCH   5  15
ATOM     15  C   UNL     1      -4.802   0.494  -0.560  0.00  0.00    +0.244 C 
BRANCH  15  16
ATOM     16  C   UNL     1      -4.079   0.030  -1.798  0.00  0.00    +0.327 C 
ATOM     17  O   UNL     1      -3.467   0.823  -2.474  0.00  0.00    -0.249 OA
BRANCH  16  18
ATOM     18  O   UNL     1      -4.115  -1.264  -2.151  0.00  0.00    -0.467 OA
ATOM     19  C   UNL     1      -3.396  -1.640  -3.356  0.00  0.00    +0.280 C 
ENDBRANCH  16  18
ENDBRANCH  15  16
ENDBRANCH   5  15
ENDBRANCH   1   3
BRANCH   1  25
ATOM     20  C   UNL     1       1.562   1.974  -1.213  0.00  0.00    +0.060 A 
ATOM     21  C   UNL     1       2.671   1.217  -1.571  0.00  0.00    +0.025 A 
ATOM     22  C   UNL     1       2.526  -0.124  -1.864  0.00  0.00    +0.002 A 
ATOM     23  C   UNL     1       1.278  -0.724  -1.804  0.00  0.00    +0.001 A 
ATOM     24  C   UNL     1       0.168   0.012  -1.451  0.00  0.00    +0.015 A 
ATOM     25  C   UNL     1       0.299   1.369  -1.152  0.00  0.00    +0.061 A 
BRANCH  20  26
ATOM     26  N   UNL     1       1.706   3.325  -0.917  0.00  0.00    -0.216 N 
ATOM     27  H   UNL     1       1.164   3.729  -0.222  0.00  0.00    +0.174 HD
BRANCH  26  28
ATOM     28  S   UNL     1       2.801   4.244  -1.753  0.00  0.00    +0.072 S 
ATOM     29  O   UNL     1       2.607   5.588  -1.335  0.00  0.00    -0.150 OA
ATOM     30  O   UNL     1       4.055   3.584  -1.639  0.00  0.00    -0.150 OA
BRANCH  28  35
ATOM     31  C   UNL     1       1.252   4.010  -7.580  0.00  0.00    +0.044 C 
ATOM     32  C   UNL     1       1.639   4.068  -6.124  0.00  0.00    -0.050 A 
ATOM     33  C   UNL     1       1.120   5.058  -5.311  0.00  0.00    +0.005 A 
ATOM     34  C   UNL     1       1.475   5.111  -3.975  0.00  0.00    +0.029 A 
ATOM     35  C   UNL     1       2.348   4.175  -3.454  0.00  0.00    +0.109 A 
ATOM     36  C   UNL     1       2.871   3.189  -4.269  0.00  0.00    +0.029 A 
ATOM     37  C   UNL     1       2.512   3.132  -5.603  0.00  0.00    +0.005 A 
ENDBRANCH  28  35
ENDBRANCH  26  28
ENDBRANCH  20  26
ENDBRANCH   1  25
TORSDOF 8
