REMARK  Name = ZINC40392472
REMARK  4 active torsions:
REMARK  status: ('A' for Active; 'I' for Inactive)
REMARK    1  A    between atoms: C_6  and  C_7
REMARK    2  A    between atoms: N_18  and  C_21
REMARK    3  A    between atoms: C_21  and  C_22
REMARK    4  A    between atoms: C_22  and  C_23
REMARK                            x       y       z     vdW  Elec       q    Type
REMARK                         _______ _______ _______ _____ _____    ______ ____
ROOT
ATOM      1  C   UNL     1      -1.269  -0.765   0.011  0.00  0.00    +0.048 A 
ATOM      2  C   UNL     1      -2.348  -0.569   0.883  0.00  0.00    +0.145 A 
ATOM      3  N   UNL     1      -3.293  -1.428   0.587  0.00  0.00    -0.172 NA
ATOM      4  N   UNL     1      -2.877  -2.218  -0.486  0.00  0.00    -0.210 N 
ATOM      5  C   UNL     1      -1.617  -1.806  -0.853  0.00  0.00    +0.186 A 
ATOM      6  N   UNL     1      -0.979  -2.399  -1.871  0.00  0.00    -0.128 NA
ATOM      7  N   UNL     1      -1.506  -3.363  -2.542  0.00  0.00    -0.140 NA
ATOM      8  C   UNL     1      -2.731  -3.821  -2.249  0.00  0.00    +0.176 A 
ATOM      9  C   UNL     1      -3.453  -3.248  -1.188  0.00  0.00    +0.102 A 
ATOM     10  C   UNL     1      -4.735  -3.736  -0.893  0.00  0.00    +0.048 A 
ATOM     11  C   UNL     1      -5.256  -4.752  -1.614  0.00  0.00    +0.091 A 
ATOM     12  N   UNL     1      -4.579  -5.337  -2.637  0.00  0.00    -0.313 N 
ATOM     13  C   UNL     1      -3.349  -4.915  -2.999  0.00  0.00    +0.281 A 
ATOM     14  O   UNL     1      -2.757  -5.446  -3.922  0.00  0.00    -0.265 OA
ENDROOT
BRANCH   1  20
ATOM     15  C   UNL     1      -0.017   1.390   0.010  0.00  0.00    +0.010 A 
ATOM     16  C   UNL     1       1.170   2.094   0.002  0.00  0.00    +0.020 A 
ATOM     17  C   UNL     1       2.378   1.418  -0.013  0.00  0.00    +0.041 A 
ATOM     18  C   UNL     1       2.403   0.034  -0.021  0.00  0.00    +0.020 A 
ATOM     19  C   UNL     1       1.222  -0.680  -0.014  0.00  0.00    +0.010 A 
ATOM     20  C   UNL     1       0.002  -0.004   0.002  0.00  0.00    -0.013 A 
ATOM     21 CL   UNL     1       3.868   2.309  -0.024  0.00  0.00    -0.084 Cl
ENDBRANCH   1  20
BRANCH  12  22
ATOM     22  C   UNL     1      -5.206  -6.435  -3.377  0.00  0.00    +0.129 C 
BRANCH  22  23
ATOM     23  C   UNL     1      -5.999  -5.868  -4.556  0.00  0.00    +0.059 C 
BRANCH  23  24
ATOM     24  C   UNL     1      -6.644  -6.997  -5.317  0.00  0.00    -0.021 A 
ATOM     25  C   UNL     1      -6.148  -7.616  -6.401  0.00  0.00    +0.087 A 
ATOM     26  N   UNL     1      -7.012  -8.592  -6.817  0.00  0.00    -0.360 N 
ATOM     27  H   UNL     1      -6.870  -9.173  -7.580  0.00  0.00    +0.165 HD
ATOM     28  C   UNL     1      -8.114  -8.626  -5.989  0.00  0.00    +0.047 A 
ATOM     29  C   UNL     1      -7.928  -7.632  -5.011  0.00  0.00    +0.006 A 
ATOM     30  C   UNL     1      -8.895  -7.438  -4.022  0.00  0.00    +0.048 A 
ATOM     31  C   UNL     1     -10.026  -8.225  -4.011  0.00  0.00    +0.124 A 
ATOM     32  C   UNL     1     -10.206  -9.209  -4.976  0.00  0.00    +0.040 A 
ATOM     33  C   UNL     1      -9.264  -9.406  -5.962  0.00  0.00    +0.029 A 
ATOM     34  F   UNL     1     -10.964  -8.040  -3.056  0.00  0.00    -0.205 F 
ENDBRANCH  23  24
ENDBRANCH  22  23
ENDBRANCH  12  22
TORSDOF 4
