REMARK  Name = ZINC37588922
REMARK  9 active torsions:
REMARK  status: ('A' for Active; 'I' for Inactive)
REMARK    1  A    between atoms: C_1  and  C_2
REMARK    2  A    between atoms: C_3  and  C_21
REMARK    3  A    between atoms: C_4  and  C_20
REMARK    4  A    between atoms: C_5  and  C_10
REMARK    5  A    between atoms: C_6  and  C_9
REMARK    6  A    between atoms: C_7  and  C_8
REMARK    7  A    between atoms: N_12  and  C_13
REMARK    8  A    between atoms: N_12  and  C_17
REMARK    9  A    between atoms: C_13  and  C_14
REMARK                            x       y       z     vdW  Elec       q    Type
REMARK                         _______ _______ _______ _____ _____    ______ ____
ROOT
ATOM      1  C   UNL     1      -0.018   1.503   0.010  0.00  0.00    +0.044 C 
ATOM      2  C   UNL     1       0.002  -0.004   0.002  0.00  0.00    -0.044 A 
ATOM      3  C   UNL     1       0.006  -0.686  -1.202  0.00  0.00    -0.044 A 
ATOM      4  C   UNL     1       0.024  -2.066  -1.216  0.00  0.00    -0.035 A 
ATOM      5  C   UNL     1       0.040  -2.773  -0.013  0.00  0.00    +0.043 A 
ATOM      6  C   UNL     1       0.036  -2.079   1.198  0.00  0.00    -0.035 A 
ATOM      7  C   UNL     1       0.023  -0.699   1.198  0.00  0.00    -0.044 A 
ATOM      8  C   UNL     1       0.025   0.052   2.505  0.00  0.00    +0.044 C 
ATOM      9  C   UNL     1       0.052  -2.834   2.501  0.00  0.00    +0.045 C 
ATOM     10  C   UNL     1       0.028  -2.807  -2.528  0.00  0.00    +0.045 C 
ATOM     11  C   UNL     1      -0.011   0.079  -2.500  0.00  0.00    +0.044 C 
ENDROOT
BRANCH   5  12
ATOM     12  C   UNL     1       0.059  -4.251  -0.021  0.00  0.00    +0.248 C 
ATOM     13  O   UNL     1       1.120  -4.845  -0.030  0.00  0.00    -0.270 OA
ATOM     14  N   UNL     1      -1.099  -4.941  -0.019  0.00  0.00    -0.284 N 
BRANCH  14  15
ATOM     15  C   UNL     1      -2.377  -4.225  -0.009  0.00  0.00    +0.077 C 
ATOM     16  C   UNL     1      -3.648  -5.052   0.196  0.00  0.00    +0.024 C 
ATOM     17  C   UNL     1      -3.331  -4.466  -1.181  0.00  0.00    +0.024 C 
ENDBRANCH  14  15
BRANCH  14  18
ATOM     18  C   UNL     1      -1.080  -6.405  -0.027  0.00  0.00    +0.233 C 
BRANCH  18  19
ATOM     19  C   UNL     1      -1.066  -6.915   1.391  0.00  0.00    +0.373 C 
ATOM     20  O   UNL     1      -1.072  -6.128   2.322  0.00  0.00    -0.245 OA
ATOM     21  O   UNL     1      -1.049  -8.115   1.607  0.00  0.00    -0.245 OA
ENDBRANCH  18  19
ENDBRANCH  14  18
ENDBRANCH   5  12
TORSDOF 4
