REMARK  Name = ZINC46084668
REMARK  8 active torsions:
REMARK  status: ('A' for Active; 'I' for Inactive)
REMARK    1  A    between atoms: C_1  and  C_2
REMARK    2  A    between atoms: C_7  and  C_8
REMARK    3  A    between atoms: N_9  and  C_15
REMARK    4  A    between atoms: N_13  and  O_14
REMARK    5  A    between atoms: C_15  and  C_16
REMARK    6  A    between atoms: C_21  and  O_22
REMARK    7  A    between atoms: O_22  and  C_23
REMARK    8  A    between atoms: C_23  and  C_24
REMARK                            x       y       z     vdW  Elec       q    Type
REMARK                         _______ _______ _______ _____ _____    ______ ____
ROOT
ATOM      1  C   UNL     1      -1.718  -0.289  -1.159  0.00  0.00    +0.044 C 
ATOM      2  C   UNL     1      -1.262  -1.611  -0.597  0.00  0.00    -0.046 A 
ATOM      3  C   UNL     1      -1.181  -2.717  -1.426  0.00  0.00    +0.004 A 
ATOM      4  C   UNL     1      -0.765  -3.932  -0.919  0.00  0.00    +0.012 A 
ATOM      5  C   UNL     1      -0.428  -4.039   0.425  0.00  0.00    +0.030 A 
ATOM      6  C   UNL     1      -0.508  -2.924   1.267  0.00  0.00    +0.050 A 
ATOM      7  C   UNL     1      -0.924  -1.707   0.738  0.00  0.00    -0.025 A 
ATOM      8  C   UNL     1      -1.012  -0.492   1.625  0.00  0.00    +0.046 C 
ATOM      9  N   UNL     1      -0.122  -3.285   2.554  0.00  0.00    -0.261 N 
ATOM     10  C   UNL     1       0.214  -4.585   2.621  0.00  0.00    +0.273 C 
ATOM     11  O   UNL     1       0.589  -5.178   3.614  0.00  0.00    -0.268 OA
ATOM     12  C   UNL     1       0.044  -5.166   1.265  0.00  0.00    +0.173 C 
ATOM     13  N   UNL     1       0.261  -6.396   0.895  0.00  0.00    -0.082 NA
ENDROOT
BRANCH  13  14
ATOM     14  O   UNL     1       0.714  -7.350   1.839  0.00  0.00    -0.409 OA
ATOM     15  H   UNL     1       0.847  -8.234   1.471  0.00  0.00    +0.328 HD
ENDBRANCH  13  14
BRANCH   9  16
ATOM     16  C   UNL     1      -0.086  -2.365   3.693  0.00  0.00    +0.152 C 
BRANCH  16  17
ATOM     17  C   UNL     1      -1.471  -2.223   4.269  0.00  0.00    +0.012 A 
ATOM     18  C   UNL     1      -2.072  -0.981   4.327  0.00  0.00    +0.009 A 
ATOM     19  C   UNL     1      -3.343  -0.850   4.855  0.00  0.00    +0.001 A 
ATOM     20  C   UNL     1      -4.016  -1.962   5.327  0.00  0.00    +0.004 A 
ATOM     21  C   UNL     1      -3.420  -3.207   5.271  0.00  0.00    +0.046 A 
ATOM     22  C   UNL     1      -2.146  -3.341   4.736  0.00  0.00    +0.126 A 
BRANCH  22  23
ATOM     23  O   UNL     1      -1.560  -4.566   4.675  0.00  0.00    -0.488 OA
BRANCH  23  24
ATOM     24  C   UNL     1      -2.313  -5.672   5.174  0.00  0.00    +0.256 C 
BRANCH  24  25
ATOM     25  C   UNL     1      -1.508  -6.937   5.024  0.00  0.00    +0.006 C 
ATOM     26  C   UNL     1      -1.444  -7.793   6.014  0.00  0.00    +0.007 C 
ENDBRANCH  24  25
ENDBRANCH  23  24
ENDBRANCH  22  23
ENDBRANCH  16  17
ENDBRANCH   9  16
TORSDOF 6
