REMARK  Name = ZINC63838897
REMARK  7 active torsions:
REMARK  status: ('A' for Active; 'I' for Inactive)
REMARK    1  A    between atoms: C_1  and  O_2
REMARK    2  A    between atoms: O_2  and  C_3
REMARK    3  A    between atoms: C_8  and  C_9
REMARK    4  A    between atoms: C_13  and  S_23
REMARK    5  A    between atoms: N_15  and  C_16
REMARK    6  A    between atoms: S_23  and  C_24
REMARK    7  A    between atoms: C_24  and  C_25
REMARK                            x       y       z     vdW  Elec       q    Type
REMARK                         _______ _______ _______ _____ _____    ______ ____
ROOT
ATOM      1  C   UNL     1       0.010  -2.763   0.223  0.00  0.00    +0.192 C 
ATOM      2  N   UNL     1      -1.285  -2.219  -0.245  0.00  0.00    -0.230 NA
ATOM      3  N   UNL     1      -2.004  -3.390  -0.773  0.00  0.00    -0.226 NA
ATOM      4  C   UNL     1      -1.625  -4.469   0.175  0.00  0.00    +0.217 C 
ATOM      5  N   UNL     1      -0.207  -4.195   0.491  0.00  0.00    -0.284 N 
ATOM      6  H   UNL     1      -1.147  -1.525  -0.965  0.00  0.00    +0.143 HD
ATOM      7  H   UNL     1      -1.700  -3.608  -1.710  0.00  0.00    +0.143 HD
ENDROOT
BRANCH   5   8
ATOM      8  C   UNL     1       0.741  -5.113   0.952  0.00  0.00    +0.033 A 
ATOM      9  C   UNL     1       2.070  -4.732   1.087  0.00  0.00    +0.024 A 
ATOM     10  C   UNL     1       3.005  -5.640   1.543  0.00  0.00    +0.022 A 
ATOM     11  C   UNL     1       2.618  -6.929   1.865  0.00  0.00    +0.041 A 
ATOM     12  C   UNL     1       1.295  -7.312   1.732  0.00  0.00    +0.022 A 
ATOM     13  C   UNL     1       0.355  -6.406   1.281  0.00  0.00    +0.024 A 
ATOM     14 CL   UNL     1       3.796  -8.069   2.438  0.00  0.00    -0.084 Cl
ENDBRANCH   5   8
BRANCH   1  20
ATOM     15  C   UNL     1       1.187  -0.896   1.413  0.00  0.00    +0.126 A 
ATOM     16  C   UNL     1       1.575  -0.249   2.578  0.00  0.00    +0.046 A 
ATOM     17  C   UNL     1       1.219  -0.769   3.807  0.00  0.00    +0.004 A 
ATOM     18  C   UNL     1       0.476  -1.933   3.877  0.00  0.00    +0.001 A 
ATOM     19  C   UNL     1       0.088  -2.580   2.718  0.00  0.00    +0.010 A 
ATOM     20  C   UNL     1       0.438  -2.061   1.486  0.00  0.00    +0.030 A 
BRANCH  15  22
ATOM     21  C   UNL     1       2.308   0.817   0.203  0.00  0.00    +0.277 C 
ATOM     22  O   UNL     1       1.536  -0.386   0.203  0.00  0.00    -0.495 OA
ENDBRANCH  15  22
ENDBRANCH   1  20
BRANCH   4  23
ATOM     23  S   UNL     1      -1.800  -6.095  -0.611  0.00  0.00    -0.118 S 
BRANCH  23  24
ATOM     24  C   UNL     1      -0.705  -6.005  -2.054  0.00  0.00    +0.119 C 
BRANCH  24  25
ATOM     25  C   UNL     1      -0.757  -7.329  -2.818  0.00  0.00    +0.184 C 
ATOM     26  N   UNL     1      -2.141  -7.632  -3.206  0.00  0.00    -0.363 N 
ATOM     27  C   UNL     1      -2.467  -8.758  -2.640  0.00  0.00    +0.060 A 
ATOM     28  C   UNL     1      -3.697  -9.562  -2.652  0.00  0.00    +0.027 A 
ATOM     29  C   UNL     1      -3.745 -10.714  -1.954  0.00  0.00    +0.002 A 
ATOM     30  C   UNL     1      -2.657 -11.191  -1.202  0.00  0.00    +0.002 A 
ATOM     31  C   UNL     1      -1.484 -10.531  -1.123  0.00  0.00    +0.027 A 
ATOM     32  C   UNL     1      -1.315  -9.263  -1.845  0.00  0.00    +0.060 A 
ATOM     33  N   UNL     1      -0.321  -8.430  -1.949  0.00  0.00    -0.363 N 
ATOM     34  H   UNL     1      -2.707  -7.092  -3.779  0.00  0.00    +0.162 HD
ATOM     35  H   UNL     1       0.550  -8.519  -1.530  0.00  0.00    +0.162 HD
ENDBRANCH  24  25
ENDBRANCH  23  24
ENDBRANCH   4  23
TORSDOF 6
