REMARK  Name = ZINC04713563
REMARK  8 active torsions:
REMARK  status: ('A' for Active; 'I' for Inactive)
REMARK    1  A    between atoms: C_1  and  C_2
REMARK    2  A    between atoms: C_10  and  O_31
REMARK    3  A    between atoms: N_22  and  N_23
REMARK    4  A    between atoms: C_24  and  O_26
REMARK    5  A    between atoms: O_26  and  C_27
REMARK    6  A    between atoms: C_27  and  C_28
REMARK    7  A    between atoms: C_27  and  C_29
REMARK    8  A    between atoms: C_27  and  C_30
REMARK                            x       y       z     vdW  Elec       q    Type
REMARK                         _______ _______ _______ _____ _____    ______ ____
ROOT
ATOM      1  C   UNL     1      -2.963   0.822   0.505  0.00  0.00    +0.018 C 
ATOM      2  C   UNL     1      -2.096   2.063   0.708  0.00  0.00    +0.011 C 
ATOM      3  C   UNL     1      -2.842   3.110   1.502  0.00  0.00    +0.013 C 
ATOM      4  C   UNL     1      -4.013   3.632   0.659  0.00  0.00    +0.009 C 
ATOM      5  C   UNL     1      -3.531   4.229  -0.660  0.00  0.00    +0.023 C 
ATOM      6  C   UNL     1      -4.713   4.711  -1.461  0.00  0.00    -0.041 A 
ATOM      7  C   UNL     1      -5.409   5.812  -0.972  0.00  0.00    +0.008 A 
ATOM      8  C   UNL     1      -6.494   6.318  -1.654  0.00  0.00    +0.046 A 
ATOM      9  C   UNL     1      -6.901   5.720  -2.838  0.00  0.00    +0.117 A 
ATOM     10  C   UNL     1      -6.211   4.622  -3.324  0.00  0.00    +0.049 A 
ATOM     11  C   UNL     1      -5.115   4.119  -2.637  0.00  0.00    -0.040 A 
ATOM     12  C   UNL     1      -4.408   2.923  -3.222  0.00  0.00    +0.036 C 
ATOM     13  C   UNL     1      -3.621   2.204  -2.117  0.00  0.00    +0.009 C 
ATOM     14  C   UNL     1      -2.701   3.229  -1.470  0.00  0.00    +0.001 C 
ATOM     15  C   UNL     1      -1.605   2.680  -0.617  0.00  0.00    +0.005 C 
ATOM     16  C   UNL     1      -0.721   1.556  -1.169  0.00  0.00    +0.010 C 
ATOM     17  C   UNL     1       0.006   1.056   0.113  0.00  0.00    +0.053 C 
ATOM     18  C   UNL     1      -0.781   1.600   1.302  0.00  0.00    +0.043 C 
ATOM     19  N   UNL     1      -0.425   1.661   2.523  0.00  0.00    -0.186 NA
ENDROOT
BRANCH  19  20
ATOM     20  N   UNL     1       0.836   1.189   2.910  0.00  0.00    -0.172 N 
ATOM     21  C   UNL     1       1.213   1.254   4.202  0.00  0.00    +0.420 C 
ATOM     22  O   UNL     1       2.307   0.845   4.537  0.00  0.00    -0.225 OA
ATOM     23  H   UNL     1       1.438   0.816   2.247  0.00  0.00    +0.181 HD
BRANCH  21  24
ATOM     24  O   UNL     1       0.377   1.772   5.122  0.00  0.00    -0.444 OA
BRANCH  24  25
ATOM     25  C   UNL     1       0.849   1.810   6.495  0.00  0.00    +0.107 C 
ATOM     26  C   UNL     1       2.121   2.655   6.573  0.00  0.00    +0.055 C 
ATOM     27  C   UNL     1      -0.230   2.427   7.388  0.00  0.00    +0.055 C 
ATOM     28  C   UNL     1       1.151   0.387   6.969  0.00  0.00    +0.055 C 
ENDBRANCH  24  25
ENDBRANCH  21  24
ENDBRANCH  19  20
BRANCH   9  29
ATOM     29  O   UNL     1      -7.970   6.210  -3.517  0.00  0.00    -0.507 OA
ATOM     30  H   UNL     1      -7.745   6.889  -4.168  0.00  0.00    +0.292 HD
ENDBRANCH   9  29
TORSDOF 4
