REMARK  Name = ZINC09460300
REMARK  11 active torsions:
REMARK  status: ('A' for Active; 'I' for Inactive)
REMARK    1  A    between atoms: C_1  and  C_2
REMARK    2  A    between atoms: C_2  and  O_3
REMARK    3  A    between atoms: O_3  and  C_4
REMARK    4  A    between atoms: C_9  and  C_10
REMARK    5  A    between atoms: C_10  and  N_11
REMARK    6  A    between atoms: C_12  and  C_14
REMARK    7  A    between atoms: C_19  and  S_20
REMARK    8  A    between atoms: S_20  and  C_21
REMARK    9  A    between atoms: C_21  and  C_22
REMARK   10  A    between atoms: C_22  and  C_29
REMARK   11  A    between atoms: C_31  and  C_34
REMARK                            x       y       z     vdW  Elec       q    Type
REMARK                         _______ _______ _______ _____ _____    ______ ____
ROOT
ATOM      1  N   UNL     1      -3.154   1.592   3.270  0.00  0.00    -0.307 N 
ATOM      2  C   UNL     1      -4.383   2.138   3.191  0.00  0.00    +0.245 C 
ATOM      3  O   UNL     1      -4.524   3.338   3.327  0.00  0.00    -0.270 OA
ATOM      4  H   UNL     1      -3.041   0.634   3.162  0.00  0.00    +0.149 HD
ENDROOT
BRANCH   2   5
ATOM      5  C   UNL     1      -5.555   1.282   2.939  0.00  0.00    +0.050 A 
ATOM      6  C   UNL     1      -5.397  -0.097   2.776  0.00  0.00    +0.014 A 
ATOM      7  C   UNL     1      -6.498  -0.893   2.546  0.00  0.00    +0.001 A 
ATOM      8  C   UNL     1      -7.763  -0.332   2.464  0.00  0.00    +0.001 A 
ATOM      9  C   UNL     1      -7.936   1.027   2.617  0.00  0.00    +0.015 A 
ATOM     10  C   UNL     1      -6.838   1.847   2.855  0.00  0.00    +0.020 A 
BRANCH  10  11
ATOM     11  S   UNL     1      -7.056   3.584   3.050  0.00  0.00    -0.122 S 
BRANCH  11  12
ATOM     12  C   UNL     1      -8.844   3.827   2.864  0.00  0.00    +0.109 C 
BRANCH  12  13
ATOM     13  C   UNL     1      -9.175   5.313   3.014  0.00  0.00    +0.119 C 
ATOM     14  C   UNL     1     -10.672   5.536   2.933  0.00  0.00    +0.244 C 
ATOM     15  O   UNL     1     -11.520   5.093   3.678  0.00  0.00    -0.273 OA
ATOM     16  N   UNL     1     -10.865   6.330   1.861  0.00  0.00    -0.238 N 
ATOM     17  C   UNL     1      -9.710   6.636   1.259  0.00  0.00    +0.307 C 
ATOM     18  O   UNL     1      -9.628   7.339   0.271  0.00  0.00    -0.252 OA
ATOM     19  N   UNL     1      -8.645   6.079   1.873  0.00  0.00    -0.285 N 
ATOM     20  C   UNL     1      -8.620   5.857   4.332  0.00  0.00    +0.042 C 
ATOM     21  H   UNL     1     -11.734   6.641   1.562  0.00  0.00    +0.159 HD
ATOM     22  H   UNL     1      -7.714   6.165   1.615  0.00  0.00    +0.151 HD
ENDBRANCH  12  13
ENDBRANCH  11  12
ENDBRANCH  10  11
ENDBRANCH   2   5
BRANCH   1  23
ATOM     23  C   UNL     1      -1.988   2.443   3.521  0.00  0.00    +0.143 C 
BRANCH  23  29
ATOM     24  C   UNL     1      -0.148   1.182   2.380  0.00  0.00    +0.126 A 
ATOM     25  C   UNL     1       0.992   0.392   2.424  0.00  0.00    +0.053 A 
ATOM     26  C   UNL     1       1.530   0.029   3.639  0.00  0.00    +0.001 A 
ATOM     27  C   UNL     1       0.944   0.440   4.829  0.00  0.00    +0.125 A 
ATOM     28  C   UNL     1      -0.204   1.226   4.779  0.00  0.00    +0.054 A 
ATOM     29  C   UNL     1      -0.745   1.593   3.563  0.00  0.00    +0.015 A 
ATOM     30  O   UNL     1       1.643  -0.016   5.906  0.00  0.00    -0.488 OA
ATOM     31  C   UNL     1       2.474  -1.116   5.499  0.00  0.00    +0.175 C 
ATOM     32  C   UNL     1       2.737  -0.813   4.005  0.00  0.00    +0.083 C 
ATOM     33  C   UNL     1       3.784  -1.126   6.289  0.00  0.00    +0.052 C 
BRANCH  24  34
ATOM     34  O   UNL     1      -0.682   1.547   1.184  0.00  0.00    -0.492 OA
BRANCH  34  36
ATOM     35  C   UNL     1      -0.753   1.593  -1.232  0.00  0.00    +0.048 C 
ATOM     36  C   UNL     1      -0.013   1.086   0.008  0.00  0.00    +0.225 C 
ENDBRANCH  34  36
ENDBRANCH  24  34
ENDBRANCH  23  29
ENDBRANCH   1  23
TORSDOF 8
