REMARK  Name = ZINC21254280
REMARK  9 active torsions:
REMARK  status: ('A' for Active; 'I' for Inactive)
REMARK    1  A    between atoms: C_1  and  C_2
REMARK    2  A    between atoms: C_2  and  O_4
REMARK    3  A    between atoms: O_4  and  C_5
REMARK    4  A    between atoms: C_8  and  C_13
REMARK    5  A    between atoms: C_10  and  O_11
REMARK    6  A    between atoms: O_11  and  C_12
REMARK    7  A    between atoms: C_18  and  C_23
REMARK    8  A    between atoms: C_28  and  O_29
REMARK    9  A    between atoms: O_29  and  C_30
REMARK                            x       y       z     vdW  Elec       q    Type
REMARK                         _______ _______ _______ _____ _____    ______ ____
ROOT
ATOM      1  C   UNL     1       0.741   9.580  -0.067  0.00  0.00    +0.136 C 
ATOM      2  C   UNL     1       0.684   8.073   0.013  0.00  0.00    +0.036 C 
ATOM      3  C   UNL     1       0.662   7.343   1.141  0.00  0.00    +0.017 C 
ATOM      4  C   UNL     1       0.643   5.825   1.073  0.00  0.00    +0.060 C 
ATOM      5  C   UNL     1      -0.138   5.371  -0.158  0.00  0.00    +0.035 C 
ATOM      6  C   UNL     1       0.563   5.945  -1.395  0.00  0.00    +0.088 C 
ATOM      7  C   UNL     1       0.648   7.435  -1.249  0.00  0.00    +0.163 C 
ATOM      8  O   UNL     1       0.688   8.120  -2.253  0.00  0.00    -0.292 OA
ATOM      9  N   UNL     1       0.670   7.855   2.398  0.00  0.00    -0.316 N 
ATOM     10  C   UNL     1       1.525   8.857   2.840  0.00  0.00    +0.052 A 
ATOM     11  C   UNL     1       2.476   8.638   3.822  0.00  0.00    +0.025 A 
ATOM     12  C   UNL     1       3.266   9.692   4.249  0.00  0.00    +0.002 A 
ATOM     13  C   UNL     1       3.104  10.952   3.700  0.00  0.00    +0.002 A 
ATOM     14  C   UNL     1       2.166  11.168   2.706  0.00  0.00    +0.025 A 
ATOM     15  C   UNL     1       1.388  10.111   2.263  0.00  0.00    +0.049 A 
ATOM     16  N   UNL     1       0.507  10.255   1.192  0.00  0.00    -0.331 N 
ATOM     17  H   UNL     1      -0.037   7.475   3.150  0.00  0.00    +0.152 HD
ATOM     18  H   UNL     1      -0.379  10.896   1.317  0.00  0.00    +0.147 HD
ENDROOT
BRANCH   1  22
ATOM     19  C   UNL     1       4.602  10.713  -1.514  0.00  0.00    +0.173 A 
ATOM     20  C   UNL     1       4.480  10.050  -0.303  0.00  0.00    +0.050 A 
ATOM     21  C   UNL     1       3.231   9.685   0.162  0.00  0.00    +0.009 A 
ATOM     22  C   UNL     1       2.101   9.980  -0.578  0.00  0.00    -0.019 A 
ATOM     23  C   UNL     1       2.216  10.637  -1.789  0.00  0.00    +0.055 A 
ATOM     24  C   UNL     1       3.465  11.010  -2.259  0.00  0.00    +0.163 A 
BRANCH  24  25
ATOM     25  O   UNL     1       3.580  11.661  -3.447  0.00  0.00    -0.491 OA
ATOM     26  C   UNL     1       2.370  11.933  -4.157  0.00  0.00    +0.277 C 
ENDBRANCH  24  25
BRANCH  19  27
ATOM     27  O   UNL     1       5.831  11.072  -1.973  0.00  0.00    -0.422 OA
BRANCH  27  29
ATOM     28  C   UNL     1       7.545  12.825  -2.264  0.00  0.00    +0.136 C 
ATOM     29  C   UNL     1       6.247  12.316  -1.691  0.00  0.00    +0.309 C 
ATOM     30  O   UNL     1       5.582  13.029  -0.977  0.00  0.00    -0.251 OA
ENDBRANCH  27  29
ENDBRANCH  19  27
ENDBRANCH   1  22
BRANCH   5  31
ATOM     31  C   UNL     1      -0.148   3.865  -0.230  0.00  0.00    -0.002 A 
ATOM     32  C   UNL     1       1.043   3.168  -0.285  0.00  0.00    +0.007 A 
ATOM     33  C   UNL     1       1.034   1.787  -0.351  0.00  0.00    +0.001 A 
ATOM     34  C   UNL     1      -0.166   1.100  -0.362  0.00  0.00    +0.004 A 
ATOM     35  C   UNL     1      -1.360   1.793  -0.312  0.00  0.00    +0.046 A 
ATOM     36  C   UNL     1      -1.354   3.179  -0.240  0.00  0.00    +0.124 A 
BRANCH  36  37
ATOM     37  O   UNL     1      -2.527   3.863  -0.187  0.00  0.00    -0.495 OA
ATOM     38  C   UNL     1      -3.729   3.091  -0.201  0.00  0.00    +0.277 C 
ENDBRANCH  36  37
ENDBRANCH   5  31
TORSDOF 6
