REMARK  Name = ZINC24338209
REMARK  9 active torsions:
REMARK  status: ('A' for Active; 'I' for Inactive)
REMARK    1  A    between atoms: C_1  and  C_2
REMARK    2  A    between atoms: C_3  and  C_34
REMARK    3  A    between atoms: N_4  and  C_28
REMARK    4  A    between atoms: C_5  and  N_9
REMARK    5  A    between atoms: C_6  and  C_7
REMARK    6  A    between atoms: C_10  and  C_12
REMARK    7  A    between atoms: C_12  and  N_13
REMARK    8  A    between atoms: C_15  and  C_24
REMARK    9  A    between atoms: N_26  and  C_27
REMARK                            x       y       z     vdW  Elec       q    Type
REMARK                         _______ _______ _______ _____ _____    ______ ____
ROOT
ATOM      1  N   UNL     1       2.089   2.031  -1.867  0.00  0.00    -0.269 N 
ATOM      2  C   UNL     1       1.696   2.406  -0.634  0.00  0.00    +0.236 C 
ATOM      3  O   UNL     1       0.614   2.057  -0.210  0.00  0.00    -0.274 OA
ATOM      4  H   UNL     1       3.107   2.264  -2.214  0.00  0.00    +0.156 HD
ENDROOT
BRANCH   1   9
ATOM      5  C   UNL     1      -2.090   0.335  -4.147  0.00  0.00    +0.047 C 
ATOM      6  C   UNL     1      -0.655   0.565  -3.748  0.00  0.00    -0.011 A 
ATOM      7  C   UNL     1       0.429  -0.019  -4.283  0.00  0.00    +0.022 A 
ATOM      8  N   UNL     1       1.552   0.446  -3.651  0.00  0.00    -0.329 N 
ATOM      9  C   UNL     1       1.211   1.351  -2.699  0.00  0.00    +0.124 A 
ATOM     10  C   UNL     1      -0.171   1.477  -2.704  0.00  0.00    +0.095 A 
ATOM     11  C   UNL     1       0.413  -1.031  -5.399  0.00  0.00    +0.064 C 
BRANCH   8  12
ATOM     12  C   UNL     1       2.922   0.032  -3.963  0.00  0.00    +0.089 C 
ATOM     13  C   UNL     1       3.700   1.224  -4.524  0.00  0.00    +0.025 C 
ATOM     14  C   UNL     1       5.131   0.791  -4.849  0.00  0.00    +0.002 C 
ATOM     15  C   UNL     1       5.814   0.289  -3.576  0.00  0.00    +0.000 C 
ATOM     16  C   UNL     1       5.036  -0.903  -3.016  0.00  0.00    +0.002 C 
ATOM     17  C   UNL     1       3.605  -0.471  -2.690  0.00  0.00    +0.025 C 
ENDBRANCH   8  12
BRANCH  10  18
ATOM     18  C   UNL     1      -0.963   2.322  -1.862  0.00  0.00    +0.103 C 
ATOM     19  N   UNL     1      -1.592   2.992  -1.194  0.00  0.00    -0.191 NA
ENDBRANCH  10  18
ENDBRANCH   1   9
BRANCH   2  20
ATOM     20  C   UNL     1       2.599   3.259   0.219  0.00  0.00    +0.201 C 
BRANCH  20  21
ATOM     21  N   UNL     1       1.900   3.627   1.457  0.00  0.00    -0.314 N 
ATOM     22  C   UNL     1       1.835   2.489   2.382  0.00  0.00    +0.160 C 
ATOM     23  C   UNL     1       1.210   2.966   3.700  0.00  0.00    +0.276 C 
ATOM     24  O   UNL     1       2.082   3.947   4.271  0.00  0.00    -0.476 OA
ATOM     25  C   UNL     1       2.564   4.900   3.427  0.00  0.00    +0.143 A 
ATOM     26  C   UNL     1       2.484   4.753   2.047  0.00  0.00    +0.073 A 
ATOM     27  C   UNL     1       2.995   5.748   1.220  0.00  0.00    +0.027 A 
ATOM     28  C   UNL     1       3.575   6.876   1.766  0.00  0.00    +0.002 A 
ATOM     29  C   UNL     1       3.651   7.022   3.138  0.00  0.00    +0.004 A 
ATOM     30  C   UNL     1       3.147   6.037   3.967  0.00  0.00    +0.047 A 
BRANCH  23  31
ATOM     31  C   UNL     1       1.065   1.801   4.646  0.00  0.00    +0.255 C 
ATOM     32  O   UNL     1       1.698   1.777   5.680  0.00  0.00    -0.272 OA
ATOM     33  N   UNL     1       0.232   0.786   4.342  0.00  0.00    -0.315 N 
ATOM     34  C   UNL     1       0.090  -0.345   5.262  0.00  0.00    +0.128 C 
ATOM     35  H   UNL     1      -0.343   0.808   3.404  0.00  0.00    +0.148 HD
ENDBRANCH  23  31
ENDBRANCH  20  21
ENDBRANCH   2  20
TORSDOF 6
