REMARK  Name = ZINC08740335
REMARK  18 active torsions:
REMARK  status: ('A' for Active; 'I' for Inactive)
REMARK    1  A    between atoms: C_1  and  C_2
REMARK    2  A    between atoms: C_4  and  N_26
REMARK    3  A    between atoms: C_5  and  N_9
REMARK    4  A    between atoms: C_7  and  C_8
REMARK    5  A    between atoms: N_9  and  C_10
REMARK    6  A    between atoms: C_12  and  O_25
REMARK    7  A    between atoms: C_14  and  O_24
REMARK    8  A    between atoms: C_16  and  C_19
REMARK    9  A    between atoms: C_19  and  C_21
REMARK   10  A    between atoms: C_19  and  O_23
REMARK   11  A    between atoms: C_21  and  O_22
REMARK   12  A    between atoms: N_26  and  C_27
REMARK   13  A    between atoms: C_29  and  O_42
REMARK   14  A    between atoms: C_31  and  O_41
REMARK   15  A    between atoms: C_33  and  C_36
REMARK   16  A    between atoms: C_36  and  C_38
REMARK   17  A    between atoms: C_36  and  O_40
REMARK   18  A    between atoms: C_38  and  O_39
REMARK                            x       y       z     vdW  Elec       q    Type
REMARK                         _______ _______ _______ _____ _____    ______ ____
ROOT
ATOM      1  C   UNL     1       1.198   1.431  -0.151  0.00  0.00    +0.044 C 
ATOM      2  C   UNL     1       0.888  -0.043  -0.109  0.00  0.00    -0.046 A 
ATOM      3  C   UNL     1       0.603  -0.722  -1.280  0.00  0.00    +0.028 A 
ATOM      4  C   UNL     1       0.318  -2.078  -1.243  0.00  0.00    +0.050 A 
ATOM      5  C   UNL     1       0.320  -2.754  -0.023  0.00  0.00    +0.050 A 
ATOM      6  C   UNL     1       0.607  -2.066   1.146  0.00  0.00    +0.028 A 
ATOM      7  C   UNL     1       0.895  -0.714   1.100  0.00  0.00    -0.046 A 
ATOM      8  C   UNL     1       1.213   0.030   2.371  0.00  0.00    +0.044 C 
ENDROOT
BRANCH   4   9
ATOM      9  N   UNL     1       0.028  -2.767  -2.427  0.00  0.00    -0.316 N 
ATOM     10  H   UNL     1      -0.088  -3.729  -2.412  0.00  0.00    +0.149 HD
BRANCH   9  11
ATOM     11  C   UNL     1      -0.099  -2.033  -3.689  0.00  0.00    +0.235 C 
ATOM     12  C   UNL     1      -1.081  -2.758  -4.636  0.00  0.00    +0.192 C 
ATOM     13  C   UNL     1      -0.169  -3.631  -5.525  0.00  0.00    +0.178 C 
ATOM     14  C   UNL     1       1.257  -3.331  -5.011  0.00  0.00    +0.182 C 
ATOM     15  O   UNL     1       1.161  -2.025  -4.395  0.00  0.00    -0.348 OA
BRANCH  12  16
ATOM     16  O   UNL     1      -1.986  -3.574  -3.889  0.00  0.00    -0.385 OA
ATOM     17  H   UNL     1      -2.542  -3.080  -3.271  0.00  0.00    +0.210 HD
ENDBRANCH  12  16
BRANCH  13  18
ATOM     18  O   UNL     1      -0.298  -3.255  -6.898  0.00  0.00    -0.386 OA
ATOM     19  H   UNL     1      -1.190  -3.368  -7.254  0.00  0.00    +0.210 HD
ENDBRANCH  13  18
BRANCH  14  20
ATOM     20  C   UNL     1       2.248  -3.301  -6.176  0.00  0.00    +0.171 C 
BRANCH  20  21
ATOM     21  O   UNL     1       2.248  -4.569  -6.834  0.00  0.00    -0.387 OA
ATOM     22  H   UNL     1       2.501  -5.308  -6.263  0.00  0.00    +0.210 HD
ENDBRANCH  20  21
BRANCH  20  23
ATOM     23  C   UNL     1       3.651  -3.002  -5.644  0.00  0.00    +0.189 C 
BRANCH  23  24
ATOM     24  O   UNL     1       4.556  -2.859  -6.740  0.00  0.00    -0.392 OA
ATOM     25  H   UNL     1       5.466  -2.667  -6.477  0.00  0.00    +0.210 HD
ENDBRANCH  23  24
ENDBRANCH  20  23
ENDBRANCH  14  20
ENDBRANCH   9  11
ENDBRANCH   4   9
BRANCH   5  26
ATOM     26  N   UNL     1       0.033  -4.124   0.021  0.00  0.00    -0.316 N 
ATOM     27  H   UNL     1      -0.168  -4.604  -0.797  0.00  0.00    +0.149 HD
BRANCH  26  28
ATOM     28  C   UNL     1       0.035  -4.832   1.304  0.00  0.00    +0.235 C 
ATOM     29  C   UNL     1       0.628  -6.255   1.140  0.00  0.00    +0.192 C 
ATOM     30  C   UNL     1      -0.016  -7.013   2.326  0.00  0.00    +0.178 C 
ATOM     31  C   UNL     1      -1.254  -6.169   2.686  0.00  0.00    +0.182 C 
ATOM     32  O   UNL     1      -1.315  -5.075   1.753  0.00  0.00    -0.348 OA
BRANCH  29  33
ATOM     33  O   UNL     1       2.051  -6.232   1.261  0.00  0.00    -0.385 OA
ATOM     34  H   UNL     1       2.494  -5.694   0.591  0.00  0.00    +0.210 HD
ENDBRANCH  29  33
BRANCH  30  35
ATOM     35  O   UNL     1      -0.404  -8.329   1.928  0.00  0.00    -0.386 OA
ATOM     36  H   UNL     1       0.333  -8.884   1.637  0.00  0.00    +0.210 HD
ENDBRANCH  30  35
BRANCH  31  37
ATOM     37  C   UNL     1      -2.518  -7.025   2.574  0.00  0.00    +0.171 C 
BRANCH  37  38
ATOM     38  O   UNL     1      -2.588  -7.602   1.269  0.00  0.00    -0.387 OA
ATOM     39  H   UNL     1      -2.618  -6.953   0.553  0.00  0.00    +0.210 HD
ENDBRANCH  37  38
BRANCH  37  40
ATOM     40  C   UNL     1      -3.750  -6.149   2.811  0.00  0.00    +0.189 C 
BRANCH  40  41
ATOM     41  O   UNL     1      -4.921  -6.967   2.822  0.00  0.00    -0.392 OA
ATOM     42  H   UNL     1      -5.742  -6.477   2.968  0.00  0.00    +0.210 HD
ENDBRANCH  40  41
ENDBRANCH  37  40
ENDBRANCH  31  37
ENDBRANCH  26  28
ENDBRANCH   5  26
TORSDOF 16
