REMARK  Name = ZINC12478303
REMARK  15 active torsions:
REMARK  status: ('A' for Active; 'I' for Inactive)
REMARK    1  A    between atoms: C_1  and  C_2
REMARK    2  A    between atoms: C_3  and  C_9
REMARK    3  A    between atoms: C_4  and  C_8
REMARK    4  A    between atoms: C_9  and  C_10
REMARK    5  A    between atoms: C_10  and  N_66
REMARK    6  A    between atoms: C_11  and  C_12
REMARK    7  A    between atoms: C_11  and  N_66
REMARK    8  A    between atoms: C_17  and  O_18
REMARK    9  A    between atoms: O_18  and  C_19
REMARK   10  A    between atoms: C_19  and  C_20
REMARK   11  A    between atoms: C_20  and  C_22
REMARK   12  A    between atoms: C_20  and  O_30
REMARK   13  A    between atoms: C_22  and  N_69
REMARK   14  A    between atoms: C_23  and  N_69
REMARK   15  A    between atoms: C_24  and  N_69
REMARK                            x       y       z     vdW  Elec       q    Type
REMARK                         _______ _______ _______ _____ _____    ______ ____
ROOT
ATOM      1  C   UNL     1       3.073  -5.600  -2.831  0.00  0.00    -0.023 A 
ATOM      2  C   UNL     1       4.411  -5.873  -3.040  0.00  0.00    +0.005 A 
ATOM      3  C   UNL     1       4.864  -7.178  -3.010  0.00  0.00    +0.000 A 
ATOM      4  C   UNL     1       3.978  -8.215  -2.781  0.00  0.00    +0.004 A 
ATOM      5  C   UNL     1       2.639  -7.948  -2.577  0.00  0.00    +0.046 A 
ATOM      6  C   UNL     1       2.182  -6.638  -2.601  0.00  0.00    +0.122 A 
ENDROOT
BRANCH   1   7
ATOM      7  C   UNL     1       2.580  -4.176  -2.859  0.00  0.00    -0.043 C 
BRANCH   7   8
ATOM      8  N   UNL     1       2.424  -3.692  -1.475  0.00  0.00    +0.382 N 
ATOM      9  H   UNL     1       1.746  -4.285  -0.983  0.00  0.00    -0.085 HD
ATOM     10  H   UNL     1       3.330  -3.737  -0.995  0.00  0.00    -0.085 HD
BRANCH   8  11
ATOM     11  C   UNL     1       1.942  -2.297  -1.471  0.00  0.00    -0.077 C 
BRANCH  11  12
ATOM     12  C   UNL     1       1.789  -1.823  -0.025  0.00  0.00    +0.020 C 
BRANCH  12  15
ATOM     13  C   UNL     1      -1.203  -0.909   0.009  0.00  0.00    +0.065 C 
ATOM     14  C   UNL     1       0.002  -0.004   0.002  0.00  0.00    +0.036 A 
ATOM     15  C   UNL     1       1.296  -0.399  -0.013  0.00  0.00    -0.006 A 
ATOM     16  C   UNL     1       2.096   0.748  -0.014  0.00  0.00    +0.063 A 
ATOM     17  N   UNL     1       1.311   1.794  -0.001  0.00  0.00    -0.179 NA
ATOM     18  N   UNL     1      -0.016   1.345   0.009  0.00  0.00    -0.281 N 
ATOM     19  H   UNL     1      -0.833   1.923   0.020  0.00  0.00    +0.189 HD
ATOM     20  C   UNL     1       3.603   0.775  -0.028  0.00  0.00    +0.068 C 
ENDBRANCH  12  15
ENDBRANCH  11  12
ENDBRANCH   8  11
ENDBRANCH   7   8
ENDBRANCH   1   7
BRANCH   6  21
ATOM     21  O   UNL     1       0.865  -6.373  -2.401  0.00  0.00    -0.489 OA
BRANCH  21  22
ATOM     22  C   UNL     1       0.005  -7.491  -2.170  0.00  0.00    +0.258 C 
BRANCH  22  23
ATOM     23  C   UNL     1      -1.429  -6.999  -1.968  0.00  0.00    +0.135 C 
BRANCH  23  24
ATOM     24  O   UNL     1      -1.500  -6.215  -0.775  0.00  0.00    -0.390 OA
ATOM     25  H   UNL     1      -1.247  -6.694   0.026  0.00  0.00    +0.210 HD
ENDBRANCH  23  24
BRANCH  23  26
ATOM     26  C   UNL     1      -2.368  -8.200  -1.845  0.00  0.00    -0.044 C 
BRANCH  26  28
ATOM     27  C   UNL     1      -4.167  -7.095  -3.030  0.00  0.00    -0.096 C 
ATOM     28  N   UNL     1      -3.759  -7.710  -1.750  0.00  0.00    +0.381 N 
ATOM     29  H   UNL     1      -3.814  -7.003  -1.007  0.00  0.00    -0.082 HD
BRANCH  28  30
ATOM     30  C   UNL     1      -4.667  -8.828  -1.416  0.00  0.00    -0.069 C 
ATOM     31  C   UNL     1      -4.671  -9.870  -2.537  0.00  0.00    -0.015 C 
ATOM     32  C   UNL     1      -5.617 -11.013  -2.167  0.00  0.00    -0.002 C 
ATOM     33  C   UNL     1      -7.032 -10.463  -1.978  0.00  0.00    -0.000 C 
ATOM     34  C   UNL     1      -7.029  -9.422  -0.857  0.00  0.00    -0.002 C 
ATOM     35  C   UNL     1      -6.082  -8.278  -1.226  0.00  0.00    -0.015 C 
ENDBRANCH  28  30
ENDBRANCH  26  28
ENDBRANCH  23  26
ENDBRANCH  22  23
ENDBRANCH  21  22
ENDBRANCH   6  21
TORSDOF 12
