REMARK  Name = ZINC36922922
REMARK  5 active torsions:
REMARK  status: ('A' for Active; 'I' for Inactive)
REMARK    1  A    between atoms: C_1  and  C_2
REMARK    2  A    between atoms: C_7  and  N_12
REMARK    3  A    between atoms: C_9  and  C_11
REMARK    4  A    between atoms: N_12  and  C_13
REMARK    5  A    between atoms: C_13  and  C_14
REMARK                            x       y       z     vdW  Elec       q    Type
REMARK                         _______ _______ _______ _____ _____    ______ ____
ROOT
ATOM      1  C   UNL     1       0.121   0.067   4.896  0.00  0.00    -0.007 C 
ENDROOT
BRANCH   1   2
ATOM      2  C   UNL     1       0.850  -0.432   6.117  0.00  0.00    +0.093 A 
ATOM      3  N   UNL     1       0.423  -0.018   7.339  0.00  0.00    -0.311 N 
ATOM      4  H   UNL     1      -0.334   0.584   7.415  0.00  0.00    +0.170 HD
ATOM      5  C   UNL     1       1.064  -0.455   8.449  0.00  0.00    +0.266 A 
ATOM      6  O   UNL     1       0.705  -0.102   9.560  0.00  0.00    -0.267 OA
ATOM      7  C   UNL     1       2.146  -1.321   8.287  0.00  0.00    +0.102 A 
ATOM      8  C   UNL     1       2.567  -1.734   7.011  0.00  0.00    +0.085 A 
ATOM      9  N   UNL     1       1.848  -1.239   5.950  0.00  0.00    -0.235 NA
ATOM     10  C   UNL     1       3.666  -2.604   6.991  0.00  0.00    +0.036 A 
ATOM     11  C   UNL     1       4.247  -2.991   8.147  0.00  0.00    +0.048 A 
ATOM     12  S   UNL     1       3.274  -2.143   9.380  0.00  0.00    -0.090 S 
ENDBRANCH   1   2
BRANCH   1  13
ATOM     13  N   UNL     1       0.736  -0.504   3.691  0.00  0.00    +0.386 N 
ATOM     14  H   UNL     1       0.679  -1.511   3.728  0.00  0.00    -0.085 HD
ATOM     15  H   UNL     1       1.704  -0.224   3.642  0.00  0.00    -0.085 HD
BRANCH  13  21
ATOM     16  C   UNL     1      -0.019   1.526   0.010  0.00  0.00    +0.008 C 
ATOM     17  C   UNL     1       0.002  -0.004   0.002  0.00  0.00    -0.013 C 
ATOM     18  C   UNL     1      -1.433  -0.534   0.013  0.00  0.00    +0.003 C 
ATOM     19  C   UNL     1      -2.149  -0.040   1.272  0.00  0.00    -0.001 C 
ATOM     20  C   UNL     1      -1.409  -0.547   2.511  0.00  0.00    -0.015 C 
ATOM     21  C   UNL     1       0.026  -0.018   2.500  0.00  0.00    -0.068 C 
ATOM     22  C   UNL     1       0.742  -0.511   1.242  0.00  0.00    -0.025 C 
ATOM     23  C   UNL     1       2.178   0.019   1.231  0.00  0.00    +0.006 C 
ENDBRANCH  13  21
ENDBRANCH   1  13
TORSDOF 3
