REMARK  Name = ZINC05637977
REMARK  5 active torsions:
REMARK  status: ('A' for Active; 'I' for Inactive)
REMARK    1  A    between atoms: C_1  and  C_2
REMARK    2  A    between atoms: C_5  and  C_8
REMARK    3  A    between atoms: C_8  and  C_25
REMARK    4  A    between atoms: C_9  and  C_23
REMARK    5  A    between atoms: N_11  and  C_22
REMARK                            x       y       z     vdW  Elec       q    Type
REMARK                         _______ _______ _______ _____ _____    ______ ____
ROOT
ATOM      1  C   UNL     1       3.849   6.360   0.000  0.00  0.00    +0.194 C 
ATOM      2  C   UNL     1       2.363   6.644  -0.072  0.00  0.00    +0.102 C 
ATOM      3  C   UNL     1       1.506   5.575  -0.068  0.00  0.00    +0.121 C 
ATOM      4  N   UNL     1       0.134   5.541  -0.124  0.00  0.00    -0.289 N 
ATOM      5  C   UNL     1      -0.272   4.210  -0.091  0.00  0.00    +0.057 A 
ATOM      6  C   UNL     1      -1.521   3.605  -0.121  0.00  0.00    +0.025 A 
ATOM      7  C   UNL     1      -1.619   2.228  -0.079  0.00  0.00    +0.002 A 
ATOM      8  C   UNL     1      -0.477   1.449   0.003  0.00  0.00    +0.002 A 
ATOM      9  C   UNL     1       0.769   2.043   0.033  0.00  0.00    +0.026 A 
ATOM     10  C   UNL     1       0.876   3.425  -0.014  0.00  0.00    +0.065 A 
ATOM     11  N   UNL     1       1.982   4.288  -0.000  0.00  0.00    -0.209 N 
ATOM     12  C   UNL     1       3.294   4.001   0.065  0.00  0.00    +0.313 C 
ATOM     13  O   UNL     1       3.630   2.835   0.121  0.00  0.00    -0.252 OA
ATOM     14  N   UNL     1       4.251   4.945   0.069  0.00  0.00    -0.277 N 
ATOM     15  C   UNL     1      -0.751   6.706  -0.204  0.00  0.00    +0.137 C 
ATOM     16  H   UNL     1       5.188   4.699   0.117  0.00  0.00    +0.152 HD
ENDROOT
BRANCH   1  21
ATOM     17  C   UNL     1       5.955   9.044   4.664  0.00  0.00    +0.044 C 
ATOM     18  C   UNL     1       5.406   8.344   3.448  0.00  0.00    -0.050 A 
ATOM     19  C   UNL     1       4.770   9.072   2.460  0.00  0.00    +0.004 A 
ATOM     20  C   UNL     1       4.266   8.430   1.344  0.00  0.00    +0.006 A 
ATOM     21  C   UNL     1       4.399   7.060   1.216  0.00  0.00    -0.010 A 
ATOM     22  C   UNL     1       5.030   6.331   2.207  0.00  0.00    +0.006 A 
ATOM     23  C   UNL     1       5.538   6.974   3.320  0.00  0.00    +0.004 A 
ENDBRANCH   1  21
BRANCH   1  24
ATOM     24  C   UNL     1       4.509   6.978  -1.234  0.00  0.00    +0.420 C 
ATOM     25  F   UNL     1       4.281   8.358  -1.243  0.00  0.00    -0.168 F 
ATOM     26  F   UNL     1       5.886   6.733  -1.199  0.00  0.00    -0.168 F 
ATOM     27  F   UNL     1       3.963   6.408  -2.389  0.00  0.00    -0.168 F 
ENDBRANCH   1  24
BRANCH   2  28
ATOM     28  C   UNL     1       1.870   7.987  -0.143  0.00  0.00    +0.101 C 
ATOM     29  N   UNL     1       1.479   9.052  -0.199  0.00  0.00    -0.191 NA
ENDBRANCH   2  28
TORSDOF 3
