REMARK  Name = ZINC09134408
REMARK  6 active torsions:
REMARK  status: ('A' for Active; 'I' for Inactive)
REMARK    1  A    between atoms: C_1  and  C_2
REMARK    2  A    between atoms: C_2  and  C_3
REMARK    3  A    between atoms: C_2  and  C_4
REMARK    4  A    between atoms: C_4  and  C_5
REMARK    5  A    between atoms: N_7  and  C_8
REMARK    6  A    between atoms: N_16  and  C_24
REMARK                            x       y       z     vdW  Elec       q    Type
REMARK                         _______ _______ _______ _____ _____    ______ ____
ROOT
ATOM      1  C   UNL     1       2.697   5.292   3.412  0.00  0.00    +0.034 A 
ATOM      2  C   UNL     1       1.395   5.569   3.007  0.00  0.00    +0.027 A 
ATOM      3  C   UNL     1       0.875   4.967   1.880  0.00  0.00    +0.049 A 
ATOM      4  C   UNL     1       1.647   4.080   1.141  0.00  0.00    +0.141 A 
ATOM      5  C   UNL     1       2.964   3.814   1.529  0.00  0.00    +0.081 A 
ATOM      6  C   UNL     1       3.481   4.418   2.679  0.00  0.00    +0.040 A 
ATOM      7  C   UNL     1       3.819   2.934   0.721  0.00  0.00    +0.254 C 
ATOM      8  O   UNL     1       4.990   3.240   0.605  0.00  0.00    -0.270 OA
ATOM      9  N   UNL     1       3.410   1.832   0.109  0.00  0.00    -0.267 N 
ATOM     10  C   UNL     1       2.118   1.307   0.133  0.00  0.00    +0.079 A 
ATOM     11  C   UNL     1       1.955  -0.073   0.202  0.00  0.00    +0.027 A 
ATOM     12  C   UNL     1       0.691  -0.627   0.174  0.00  0.00    +0.002 A 
ATOM     13  C   UNL     1      -0.421   0.187   0.077  0.00  0.00    +0.004 A 
ATOM     14  C   UNL     1      -0.270   1.560   0.019  0.00  0.00    +0.048 A 
ATOM     15  C   UNL     1       0.997   2.124   0.058  0.00  0.00    +0.150 A 
ATOM     16  O   UNL     1       1.115   3.476   0.053  0.00  0.00    -0.453 OA
ATOM     17  C   UNL     1       4.410   1.094  -0.666  0.00  0.00    +0.139 C 
ENDROOT
BRANCH   1  20
ATOM     18  C   UNL     1       2.403   6.167   5.607  0.00  0.00    +0.217 C 
ATOM     19  O   UNL     1       1.247   5.800   5.586  0.00  0.00    -0.275 OA
ATOM     20  N   UNL     1       3.215   5.897   4.565  0.00  0.00    -0.285 N 
ATOM     21  H   UNL     1       4.157   6.122   4.613  0.00  0.00    +0.155 HD
BRANCH  18  22
ATOM     22  C   UNL     1       2.932   6.924   6.798  0.00  0.00    +0.099 C 
BRANCH  22  24
ATOM     23  C   UNL     1       2.384   7.752   9.090  0.00  0.00    +0.008 C 
ATOM     24  C   UNL     1       1.816   7.095   7.830  0.00  0.00    -0.008 C 
ATOM     25  C   UNL     1       0.713   7.979   7.247  0.00  0.00    +0.008 C 
ENDBRANCH  22  24
ENDBRANCH  18  22
ENDBRANCH   1  20
TORSDOF 3
