REMARK  Name = ZINC36156961
REMARK  12 active torsions:
REMARK  status: ('A' for Active; 'I' for Inactive)
REMARK    1  A    between atoms: C_1  and  C_2
REMARK    2  A    between atoms: C_7  and  O_8
REMARK    3  A    between atoms: O_8  and  C_9
REMARK    4  A    between atoms: C_9  and  C_10
REMARK    5  A    between atoms: C_10  and  C_12
REMARK    6  A    between atoms: C_10  and  O_33
REMARK    7  A    between atoms: C_12  and  N_13
REMARK    8  A    between atoms: N_13  and  C_14
REMARK    9  A    between atoms: N_13  and  C_30
REMARK   10  A    between atoms: C_14  and  C_15
REMARK   11  A    between atoms: C_30  and  C_31
REMARK   12  A    between atoms: C_30  and  C_32
REMARK                            x       y       z     vdW  Elec       q    Type
REMARK                         _______ _______ _______ _____ _____    ______ ____
ROOT
ATOM      1  N   UNL     1      -0.091   0.441   7.315  0.00  0.00    +0.388 N 
ATOM      2  H   UNL     1       0.250   1.282   6.874  0.00  0.00    -0.081 HD
ENDROOT
BRANCH   1   3
ATOM      3  C   UNL     1      -1.194   0.777   8.225  0.00  0.00    -0.074 C 
ATOM      4  C   UNL     1      -1.710  -0.498   8.895  0.00  0.00    -0.014 C 
ATOM      5  C   UNL     1      -0.693   1.749   9.296  0.00  0.00    -0.014 C 
ENDBRANCH   1   3
BRANCH   1   6
ATOM      6  C   UNL     1      -0.573  -0.490   6.285  0.00  0.00    -0.043 C 
BRANCH   6   7
ATOM      7  C   UNL     1      -1.588   0.222   5.389  0.00  0.00    +0.135 C 
BRANCH   7   8
ATOM      8  O   UNL     1      -2.778   0.488   6.134  0.00  0.00    -0.390 OA
ATOM      9  H   UNL     1      -3.171  -0.297   6.540  0.00  0.00    +0.210 HD
ENDBRANCH   7   8
BRANCH   7  10
ATOM     10  C   UNL     1      -1.924  -0.669   4.191  0.00  0.00    +0.258 C 
BRANCH  10  11
ATOM     11  O   UNL     1      -2.781   0.041   3.295  0.00  0.00    -0.489 OA
BRANCH  11  18
ATOM     12  C   UNL     1      -4.475   1.427   1.509  0.00  0.00    +0.047 C 
ATOM     13  C   UNL     1      -4.008   0.017   1.257  0.00  0.00    -0.009 A 
ATOM     14  C   UNL     1      -4.404  -0.648   0.112  0.00  0.00    +0.007 A 
ATOM     15  C   UNL     1      -3.977  -1.942  -0.119  0.00  0.00    +0.000 A 
ATOM     16  C   UNL     1      -3.152  -2.574   0.793  0.00  0.00    +0.004 A 
ATOM     17  C   UNL     1      -2.753  -1.913   1.938  0.00  0.00    +0.046 A 
ATOM     18  C   UNL     1      -3.176  -0.613   2.171  0.00  0.00    +0.124 A 
ENDBRANCH  11  18
ENDBRANCH  10  11
ENDBRANCH   7  10
ENDBRANCH   6   7
ENDBRANCH   1   6
BRANCH   1  19
ATOM     19  C   UNL     1       0.996  -0.190   8.075  0.00  0.00    -0.003 C 
BRANCH  19  20
ATOM     20  C   UNL     1       1.836   0.876   8.728  0.00  0.00    +0.094 A 
ATOM     21  N   UNL     1       2.809   0.515   9.604  0.00  0.00    -0.312 N 
ATOM     22  H   UNL     1       2.950  -0.425   9.796  0.00  0.00    +0.170 HD
ATOM     23  C   UNL     1       3.583   1.435  10.210  0.00  0.00    +0.260 A 
ATOM     24  O   UNL     1       4.453   1.095  10.992  0.00  0.00    -0.267 OA
ATOM     25  C   UNL     1       3.367   2.822   9.918  0.00  0.00    +0.075 A 
ATOM     26  C   UNL     1       4.077   3.984  10.453  0.00  0.00    -0.023 A 
ATOM     27  C   UNL     1       3.679   5.198  10.016  0.00  0.00    -0.004 A 
ATOM     28  S   UNL     1       2.356   4.868   8.884  0.00  0.00    -0.073 S 
ATOM     29  C   UNL     1       2.340   3.097   9.002  0.00  0.00    +0.116 A 
ATOM     30  N   UNL     1       1.619   2.131   8.439  0.00  0.00    -0.229 NA
ATOM     31  C   UNL     1       4.239   6.531  10.408  0.00  0.00    +0.043 C 
ATOM     32  C   UNL     1       5.094   6.345  11.669  0.00  0.00    +0.005 C 
ATOM     33  C   UNL     1       6.027   5.149  11.459  0.00  0.00    +0.005 C 
ATOM     34  C   UNL     1       5.217   3.852  11.459  0.00  0.00    +0.037 C 
ENDBRANCH  19  20
ENDBRANCH   1  19
TORSDOF 9
