REMARK  Name = ZINC04847552
REMARK  12 active torsions:
REMARK  status: ('A' for Active; 'I' for Inactive)
REMARK    1  A    between atoms: C_1  and  C_2
REMARK    2  A    between atoms: C_2  and  C_3
REMARK    3  A    between atoms: C_3  and  C_5
REMARK    4  A    between atoms: C_3  and  N_65
REMARK    5  A    between atoms: N_9  and  C_10
REMARK    6  A    between atoms: C_10  and  C_11
REMARK    7  A    between atoms: C_10  and  C_12
REMARK    8  A    between atoms: C_10  and  C_13
REMARK    9  A    between atoms: C_14  and  C_15
REMARK   10  A    between atoms: C_14  and  N_65
REMARK   11  A    between atoms: C_19  and  C_27
REMARK   12  A    between atoms: C_28  and  N_65
REMARK                            x       y       z     vdW  Elec       q    Type
REMARK                         _______ _______ _______ _____ _____    ______ ____
ROOT
ATOM      1  N   UNL     1       2.504   4.326   1.181  0.00  0.00    +0.391 N 
ATOM      2  H   UNL     1       1.808   3.571   1.200  0.00  0.00    -0.080 HD
ENDROOT
BRANCH   1   3
ATOM      3  C   UNL     1       3.556   4.036   2.178  0.00  0.00    -0.067 C 
ATOM      4  C   UNL     1       3.695   2.508   2.336  0.00  0.00    -0.015 C 
ATOM      5  C   UNL     1       3.957   2.305   3.850  0.00  0.00    -0.002 C 
ATOM      6  C   UNL     1       3.042   3.371   4.501  0.00  0.00    -0.002 C 
ATOM      7  C   UNL     1       3.141   4.585   3.554  0.00  0.00    -0.015 C 
ENDBRANCH   1   3
BRANCH   1   8
ATOM      8  C   UNL     1       1.835   5.603   1.509  0.00  0.00    +0.003 C 
BRANCH   8   9
ATOM      9  C   UNL     1       2.854   6.660   1.847  0.00  0.00    +0.139 A 
ATOM     10  N   UNL     1       4.073   6.753   1.373  0.00  0.00    -0.115 NA
ATOM     11  N   UNL     1       4.627   7.789   1.901  0.00  0.00    -0.023 NA
ATOM     12  N   UNL     1       3.794   8.360   2.699  0.00  0.00    -0.043 NA
ATOM     13  N   UNL     1       2.688   7.697   2.689  0.00  0.00    -0.226 N 
BRANCH  13  14
ATOM     14  C   UNL     1       1.478   8.011   3.454  0.00  0.00    +0.059 C 
ATOM     15  C   UNL     1       1.246   6.927   4.508  0.00  0.00    +0.036 C 
ATOM     16  C   UNL     1       1.649   9.366   4.144  0.00  0.00    +0.036 C 
ATOM     17  C   UNL     1       0.277   8.068   2.508  0.00  0.00    +0.036 C 
ENDBRANCH  13  14
ENDBRANCH   8   9
BRANCH   8  19
ATOM     18  C   UNL     1      -0.123   5.057   0.056  0.00  0.00    +0.002 C 
ATOM     19  C   UNL     1       1.006   6.059   0.307  0.00  0.00    -0.011 C 
ENDBRANCH   8  19
ENDBRANCH   1   8
BRANCH   1  20
ATOM     20  C   UNL     1       3.096   4.399  -0.171  0.00  0.00    -0.036 C 
BRANCH  20  21
ATOM     21  C   UNL     1       3.662   3.048  -0.529  0.00  0.00    +0.001 A 
ATOM     22  C   UNL     1       2.891   2.146  -1.186  0.00  0.00    +0.017 A 
ATOM     23  C   UNL     1       3.470   0.843  -1.519  0.00  0.00    -0.001 A 
ATOM     24  C   UNL     1       2.725  -0.128  -2.196  0.00  0.00    +0.013 A 
ATOM     25  C   UNL     1       3.295  -1.334  -2.492  0.00  0.00    -0.050 A 
ATOM     26  C   UNL     1       4.607  -1.604  -2.127  0.00  0.00    +0.005 A 
ATOM     27  C   UNL     1       5.360  -0.662  -1.460  0.00  0.00    +0.026 A 
ATOM     28  C   UNL     1       4.801   0.573  -1.147  0.00  0.00    +0.049 A 
ATOM     29  N   UNL     1       5.531   1.534  -0.481  0.00  0.00    -0.322 N 
ATOM     30  H   UNL     1       6.476   1.340  -0.218  0.00  0.00    +0.169 HD
ATOM     31  C   UNL     1       4.991   2.728  -0.179  0.00  0.00    +0.251 A 
ATOM     32  O   UNL     1       5.666   3.553   0.410  0.00  0.00    -0.268 OA
ATOM     33  C   UNL     1       2.492  -2.380  -3.221  0.00  0.00    +0.044 C 
ENDBRANCH  20  21
ENDBRANCH   1  20
TORSDOF 7
