REMARK  Name = ZINC22852155
REMARK  6 active torsions:
REMARK  status: ('A' for Active; 'I' for Inactive)
REMARK    1  A    between atoms: C_5  and  C_7
REMARK    2  A    between atoms: C_7  and  C_9
REMARK    3  A    between atoms: C_7  and  N_23
REMARK    4  A    between atoms: C_10  and  O_22
REMARK    5  A    between atoms: C_15  and  C_17
REMARK    6  A    between atoms: N_26  and  C_29
REMARK                            x       y       z     vdW  Elec       q    Type
REMARK                         _______ _______ _______ _____ _____    ______ ____
ROOT
ATOM      1  C   UNL     1       2.453   3.935  -0.001  0.00  0.00    +0.132 C 
ENDROOT
BRANCH   1   2
ATOM      2  C   UNL     1       2.667   4.441   1.402  0.00  0.00    +0.076 A 
ATOM      3  C   UNL     1       2.410   5.652   1.911  0.00  0.00    +0.228 A 
ATOM      4  N   UNL     1       2.676   5.929   3.230  0.00  0.00    -0.173 N 
ATOM      5  C   UNL     1       3.209   4.920   3.984  0.00  0.00    +0.200 A 
ATOM      6  S   UNL     1       3.325   3.580   2.823  0.00  0.00    -0.047 S 
ATOM      7  N   UNL     1       3.402   5.337   5.204  0.00  0.00    -0.197 NA
ATOM      8  C   UNL     1       3.011   6.615   5.302  0.00  0.00    +0.218 A 
ATOM      9  N   UNL     1       2.564   7.019   4.133  0.00  0.00    -0.138 NA
BRANCH   8  10
ATOM     10  C   UNL     1       3.073   7.439   6.527  0.00  0.00    +0.173 A 
ATOM     11  C   UNL     1       3.534   7.032   7.740  0.00  0.00    +0.053 A 
ATOM     12  C   UNL     1       3.409   8.133   8.612  0.00  0.00    +0.042 A 
ATOM     13  C   UNL     1       2.884   9.146   7.896  0.00  0.00    +0.196 A 
ATOM     14  O   UNL     1       2.688   8.725   6.635  0.00  0.00    -0.460 OA
ENDBRANCH   8  10
BRANCH   3  15
ATOM     15  O   UNL     1       1.879   6.618   1.114  0.00  0.00    -0.492 OA
ATOM     16  H   UNL     1       1.665   7.615   1.526  0.00  0.00    +0.294 HD
ENDBRANCH   3  15
ENDBRANCH   1   2
BRANCH   1  21
ATOM     17  C   UNL     1       0.445   0.740   0.107  0.00  0.00    +0.000 A 
ATOM     18  C   UNL     1      -0.844   1.216  -0.050  0.00  0.00    +0.003 A 
ATOM     19  C   UNL     1      -1.067   2.574  -0.182  0.00  0.00    +0.039 A 
ATOM     20  C   UNL     1       0.000   3.455  -0.168  0.00  0.00    +0.128 A 
ATOM     21  C   UNL     1       1.290   2.977  -0.016  0.00  0.00    +0.010 A 
ATOM     22  C   UNL     1       1.511   1.619   0.121  0.00  0.00    +0.008 A 
ATOM     23  F   UNL     1      -0.217   4.782  -0.303  0.00  0.00    -0.205 F 
ENDBRANCH   1  21
BRANCH   1  24
ATOM     24  N   UNL     1       3.664   3.243  -0.462  0.00  0.00    -0.288 NA
ATOM     25  C   UNL     1       4.855   4.083  -0.272  0.00  0.00    +0.104 C 
ATOM     26  C   UNL     1       6.101   3.298  -0.689  0.00  0.00    +0.120 C 
ATOM     27  N   UNL     1       5.970   2.887  -2.094  0.00  0.00    -0.327 N 
ATOM     28  C   UNL     1       4.779   2.047  -2.284  0.00  0.00    +0.120 C 
ATOM     29  C   UNL     1       3.533   2.832  -1.867  0.00  0.00    +0.104 C 
BRANCH  27  30
ATOM     30  C   UNL     1       7.122   2.228  -2.533  0.00  0.00    +0.030 A 
ATOM     31  C   UNL     1       7.033   0.946  -3.058  0.00  0.00    +0.026 A 
ATOM     32  C   UNL     1       8.172   0.299  -3.496  0.00  0.00    +0.040 A 
ATOM     33  C   UNL     1       9.404   0.924  -3.401  0.00  0.00    +0.124 A 
ATOM     34  C   UNL     1       9.496   2.201  -2.873  0.00  0.00    +0.040 A 
ATOM     35  C   UNL     1       8.359   2.854  -2.439  0.00  0.00    +0.026 A 
ATOM     36  F   UNL     1      10.518   0.288  -3.826  0.00  0.00    -0.205 F 
ENDBRANCH  27  30
ENDBRANCH   1  24
TORSDOF 6
