REMARK  Name = ZINC19329978
REMARK  4 active torsions:
REMARK  status: ('A' for Active; 'I' for Inactive)
REMARK    1  A    between atoms: C_1  and  O_2
REMARK    2  A    between atoms: O_2  and  C_3
REMARK    3  A    between atoms: C_8  and  N_9
REMARK    4  A    between atoms: C_12  and  C_18
REMARK                            x       y       z     vdW  Elec       q    Type
REMARK                         _______ _______ _______ _____ _____    ______ ____
ROOT
ATOM      1  N   UNL     1      -0.074  -2.780  -0.012  0.00  0.00    -0.284 N 
ATOM      2  C   UNL     1      -0.134  -4.150  -0.123  0.00  0.00    +0.188 C 
ATOM      3  N   UNL     1       0.969  -4.827  -0.130  0.00  0.00    -0.228 NA
ATOM      4  C   UNL     1       1.018  -6.279  -0.285  0.00  0.00    +0.232 C 
ATOM      5  N   UNL     1      -0.319  -6.847  -0.044  0.00  0.00    -0.292 N 
ATOM      6  C   UNL     1      -1.395  -6.116  -0.537  0.00  0.00    +0.181 C 
ATOM      7  N   UNL     1      -1.370  -4.760  -0.217  0.00  0.00    -0.260 N 
ATOM      8  N   UNL     1      -2.350  -6.658  -1.237  0.00  0.00    -0.272 NA
ATOM      9  H   UNL     1      -0.883  -2.251  -0.095  0.00  0.00    +0.155 HD
ATOM     10  H   UNL     1      -2.190  -4.262  -0.070  0.00  0.00    +0.157 HD
ATOM     11  H   UNL     1      -3.083  -6.112  -1.562  0.00  0.00    +0.189 HD
ATOM     12  H   UNL     1      -0.442  -7.684   0.430  0.00  0.00    +0.151 HD
ENDROOT
BRANCH   4  13
ATOM     13  C   UNL     1       1.463  -6.620  -1.683  0.00  0.00    +0.077 A 
ATOM     14  C   UNL     1       0.593  -7.155  -2.559  0.00  0.00    +0.206 A 
ATOM     15  O   UNL     1       0.931  -7.478  -3.812  0.00  0.00    -0.462 OA
ATOM     16  C   UNL     1       2.176  -7.291  -4.296  0.00  0.00    +0.138 A 
ATOM     17  C   UNL     1       2.495  -7.636  -5.604  0.00  0.00    +0.047 A 
ATOM     18  C   UNL     1       3.774  -7.434  -6.075  0.00  0.00    +0.004 A 
ATOM     19  C   UNL     1       4.753  -6.888  -5.258  0.00  0.00    +0.001 A 
ATOM     20  C   UNL     1       4.458  -6.538  -3.958  0.00  0.00    +0.015 A 
ATOM     21  C   UNL     1       3.167  -6.737  -3.470  0.00  0.00    +0.064 A 
ATOM     22  C   UNL     1       2.802  -6.373  -2.087  0.00  0.00    +0.199 A 
ATOM     23  O   UNL     1       3.616  -5.885  -1.322  0.00  0.00    -0.287 OA
ENDBRANCH   4  13
BRANCH   1  29
ATOM     24  C   UNL     1       1.399  -0.881  -0.300  0.00  0.00    +0.141 A 
ATOM     25  C   UNL     1       2.614  -0.260  -0.062  0.00  0.00    +0.047 A 
ATOM     26  C   UNL     1       3.584  -0.901   0.686  0.00  0.00    +0.004 A 
ATOM     27  C   UNL     1       3.345  -2.163   1.199  0.00  0.00    +0.002 A 
ATOM     28  C   UNL     1       2.135  -2.789   0.966  0.00  0.00    +0.027 A 
ATOM     29  C   UNL     1       1.155  -2.149   0.221  0.00  0.00    +0.076 A 
BRANCH  24  31
ATOM     30  C   UNL     1       0.764   1.048  -1.539  0.00  0.00    +0.277 C 
ATOM     31  O   UNL     1       0.444  -0.251  -1.036  0.00  0.00    -0.493 OA
ENDBRANCH  24  31
ENDBRANCH   1  29
TORSDOF 3
