REMARK  Name = ZINC20905537
REMARK  9 active torsions:
REMARK  status: ('A' for Active; 'I' for Inactive)
REMARK    1  A    between atoms: C_10  and  C_11
REMARK    2  A    between atoms: N_12  and  N_13
REMARK    3  A    between atoms: C_16  and  S_19
REMARK    4  A    between atoms: S_19  and  C_20
REMARK    5  A    between atoms: C_20  and  C_21
REMARK    6  A    between atoms: C_21  and  C_22
REMARK    7  A    between atoms: N_24  and  C_25
REMARK    8  A    between atoms: C_28  and  O_31
REMARK    9  A    between atoms: O_31  and  C_32
REMARK                            x       y       z     vdW  Elec       q    Type
REMARK                         _______ _______ _______ _____ _____    ______ ____
ROOT
ATOM      1  N   UNL     1      -0.902   2.334   0.087  0.00  0.00    -0.205 N 
ATOM      2  C   UNL     1       0.347   1.730   0.099  0.00  0.00    +0.232 A 
ATOM      3  N   UNL     1       0.589   0.384   0.099  0.00  0.00    -0.186 NA
ATOM      4  C   UNL     1       1.942   0.199   0.107  0.00  0.00    +0.210 A 
ATOM      5  N   UNL     1       2.513   1.380   0.111  0.00  0.00    -0.144 NA
ATOM      6  N   UNL     1       1.502   2.349   0.106  0.00  0.00    -0.245 N 
ATOM      7  H   UNL     1      -1.812   1.716   0.077  0.00  0.00    +0.177 HD
ATOM      8  H   UNL     1       1.537   3.449   0.107  0.00  0.00    +0.192 HD
ENDROOT
BRANCH   1  10
ATOM      9  C   UNL     1      -2.175   4.297   0.077  0.00  0.00    +0.139 C 
ATOM     10  N   UNL     1      -1.004   3.731   0.088  0.00  0.00    -0.188 NA
BRANCH   9  20
ATOM     11  C   UNL     1       1.134   8.241  -0.240  0.00  0.00    +0.001 A 
ATOM     12  C   UNL     1       1.276   6.856  -0.243  0.00  0.00    +0.001 A 
ATOM     13  C   UNL     1       0.189   6.039  -0.142  0.00  0.00    +0.009 A 
ATOM     14  C   UNL     1      -1.089   6.600  -0.033  0.00  0.00    -0.009 A 
ATOM     15  C   UNL     1      -1.238   8.008  -0.029  0.00  0.00    -0.017 A 
ATOM     16  C   UNL     1      -0.095   8.819  -0.135  0.00  0.00    +0.008 A 
ATOM     17  C   UNL     1      -2.522   8.567   0.082  0.00  0.00    +0.008 A 
ATOM     18  C   UNL     1      -3.620   7.769   0.184  0.00  0.00    +0.001 A 
ATOM     19  C   UNL     1      -3.523   6.384   0.178  0.00  0.00    +0.010 A 
ATOM     20  C   UNL     1      -2.283   5.763   0.078  0.00  0.00    +0.002 A 
ENDBRANCH   9  20
ENDBRANCH   1  10
BRANCH   4  21
ATOM     21  S   UNL     1       2.774  -1.354   0.111  0.00  0.00    -0.084 S 
BRANCH  21  22
ATOM     22  C   UNL     1       4.494  -0.789   0.121  0.00  0.00    +0.086 C 
BRANCH  22  23
ATOM     23  C   UNL     1       5.428  -2.001   0.126  0.00  0.00    +0.107 C 
BRANCH  23  24
ATOM     24  C   UNL     1       6.860  -1.530   0.134  0.00  0.00    +0.218 C 
ATOM     25  O   UNL     1       7.109  -0.343   0.136  0.00  0.00    -0.275 OA
ATOM     26  N   UNL     1       7.865  -2.429   0.139  0.00  0.00    -0.285 N 
ATOM     27  H   UNL     1       7.641  -3.503   0.214  0.00  0.00    +0.155 HD
BRANCH  26  28
ATOM     28  C   UNL     1       9.194  -1.994   0.050  0.00  0.00    +0.034 A 
ATOM     29  C   UNL     1      10.129  -2.756  -0.638  0.00  0.00    +0.027 A 
ATOM     30  C   UNL     1      11.437  -2.325  -0.731  0.00  0.00    +0.048 A 
ATOM     31  C   UNL     1      11.820  -1.137  -0.127  0.00  0.00    +0.130 A 
ATOM     32  C   UNL     1      10.888  -0.377   0.566  0.00  0.00    +0.048 A 
ATOM     33  C   UNL     1       9.578  -0.805   0.654  0.00  0.00    +0.027 A 
BRANCH  31  34
ATOM     34  O   UNL     1      13.110  -0.715  -0.213  0.00  0.00    -0.406 OA
BRANCH  34  35
ATOM     35  C   UNL     1      14.017  -1.546  -0.941  0.00  0.00    +0.575 C 
ATOM     36  F   UNL     1      13.574  -1.674  -2.262  0.00  0.00    -0.133 F 
ATOM     37  F   UNL     1      15.290  -0.968  -0.930  0.00  0.00    -0.133 F 
ATOM     38  F   UNL     1      14.073  -2.810  -0.343  0.00  0.00    -0.133 F 
ENDBRANCH  34  35
ENDBRANCH  31  34
ENDBRANCH  26  28
ENDBRANCH  23  24
ENDBRANCH  22  23
ENDBRANCH  21  22
ENDBRANCH   4  21
TORSDOF 9
