REMARK  Name = ZINC12190252
REMARK  10 active torsions:
REMARK  status: ('A' for Active; 'I' for Inactive)
REMARK    1  A    between atoms: C_1  and  O_2
REMARK    2  A    between atoms: O_2  and  C_3
REMARK    3  A    between atoms: C_3  and  C_5
REMARK    4  A    between atoms: C_8  and  C_11
REMARK    5  A    between atoms: C_11  and  N_66
REMARK    6  A    between atoms: C_12  and  C_13
REMARK    7  A    between atoms: C_12  and  N_66
REMARK    8  A    between atoms: C_13  and  C_14
REMARK    9  A    between atoms: N_20  and  C_21
REMARK   10  A    between atoms: C_21  and  C_22
REMARK                            x       y       z     vdW  Elec       q    Type
REMARK                         _______ _______ _______ _____ _____    ______ ____
ROOT
ATOM      1  C   UNL     1       5.690   5.829  -3.085  0.00  0.00    +0.075 C 
ATOM      2  C   UNL     1       5.977   6.207  -4.555  0.00  0.00    +0.031 C 
ATOM      3  C   UNL     1       7.522   6.167  -4.595  0.00  0.00    +0.098 C 
ATOM      4  C   UNL     1       7.898   5.224  -3.473  0.00  0.00    +0.216 C 
ATOM      5  O   UNL     1       8.985   4.702  -3.339  0.00  0.00    -0.276 OA
ATOM      6  N   UNL     1       6.853   5.049  -2.646  0.00  0.00    -0.298 N 
ENDROOT
BRANCH   1   7
ATOM      7  C   UNL     1       4.419   4.982  -2.994  0.00  0.00    +0.003 C 
BRANCH   7   8
ATOM      8  C   UNL     1       3.220   5.809  -3.463  0.00  0.00    -0.080 C 
BRANCH   8   9
ATOM      9  N   UNL     1       1.985   5.030  -3.258  0.00  0.00    +0.382 N 
ATOM     10  H   UNL     1       2.075   4.122  -3.730  0.00  0.00    -0.085 HD
ATOM     11  H   UNL     1       1.842   4.880  -2.253  0.00  0.00    -0.085 HD
BRANCH   9  12
ATOM     12  C   UNL     1       0.825   5.753  -3.812  0.00  0.00    -0.047 C 
BRANCH  12  16
ATOM     13  C   UNL     1      -2.647   3.278  -3.493  0.00  0.00    +0.059 A 
ATOM     14  C   UNL     1      -2.311   4.151  -2.457  0.00  0.00    +0.015 A 
ATOM     15  C   UNL     1      -1.189   4.946  -2.566  0.00  0.00    +0.002 A 
ATOM     16  C   UNL     1      -0.400   4.882  -3.701  0.00  0.00    -0.064 A 
ATOM     17  C   UNL     1      -0.730   4.023  -4.734  0.00  0.00    +0.002 A 
ATOM     18  C   UNL     1      -1.850   3.223  -4.638  0.00  0.00    +0.015 A 
BRANCH  13  19
ATOM     19  C   UNL     1      -3.845   2.420  -3.381  0.00  0.00    +0.339 C 
ATOM     20  O   UNL     1      -4.539   2.473  -2.386  0.00  0.00    -0.245 OA
BRANCH  19  22
ATOM     21  C   UNL     1      -5.356   0.765  -4.204  0.00  0.00    +0.280 C 
ATOM     22  O   UNL     1      -4.166   1.578  -4.383  0.00  0.00    -0.464 OA
ENDBRANCH  19  22
ENDBRANCH  13  19
ENDBRANCH  12  16
ENDBRANCH   9  12
ENDBRANCH   8   9
ENDBRANCH   7   8
ENDBRANCH   1   7
BRANCH   6  23
ATOM     23  C   UNL     1       6.872   4.189  -1.460  0.00  0.00    +0.110 C 
BRANCH  23  24
ATOM     24  C   UNL     1       7.196   5.031  -0.225  0.00  0.00    -0.007 C 
ATOM     25  C   UNL     1       8.610   5.599  -0.354  0.00  0.00    +0.002 C 
ATOM     26  C   UNL     1       9.604   4.435  -0.414  0.00  0.00    -0.018 C 
ATOM     27  C   UNL     1       9.458   3.597   0.856  0.00  0.00    -0.078 C 
ATOM     28  C   UNL     1       7.102   4.154   1.028  0.00  0.00    -0.064 C 
ATOM     29  C   UNL     1       5.684   3.571   1.093  0.00  0.00    -0.015 C 
ATOM     30  C   UNL     1       5.557   2.652   2.309  0.00  0.00    -0.003 C 
ATOM     31  C   UNL     1       6.610   1.544   2.199  0.00  0.00    -0.019 C 
ATOM     32  C   UNL     1       7.996   2.185   2.132  0.00  0.00    -0.078 C 
ATOM     33  N   UNL     1       8.092   3.053   0.943  0.00  0.00    +0.382 N 
ATOM     34  H   UNL     1       7.898   2.495   0.103  0.00  0.00    -0.081 HD
ENDBRANCH  23  24
ENDBRANCH   6  23
TORSDOF 9
