REMARK  Name = ZINC12319024
REMARK  8 active torsions:
REMARK  status: ('A' for Active; 'I' for Inactive)
REMARK    1  A    between atoms: C_1  and  N_64
REMARK    2  A    between atoms: C_4  and  N_66
REMARK    3  A    between atoms: C_9  and  C_12
REMARK    4  A    between atoms: C_12  and  N_13
REMARK    5  A    between atoms: N_13  and  C_14
REMARK    6  A    between atoms: C_14  and  C_15
REMARK    7  A    between atoms: C_21  and  C_23
REMARK    8  A    between atoms: C_24  and  C_25
REMARK                            x       y       z     vdW  Elec       q    Type
REMARK                         _______ _______ _______ _____ _____    ______ ____
ROOT
ATOM      1  N   UNL     1       4.080   6.810  -0.002  0.00  0.00    -0.293 N 
ATOM      2  C   UNL     1       2.752   6.586   0.009  0.00  0.00    +0.240 C 
ATOM      3  O   UNL     1       1.976   7.525   0.020  0.00  0.00    -0.271 OA
ENDROOT
BRANCH   2   4
ATOM      4  C   UNL     1       2.258   5.260   0.007  0.00  0.00    +0.068 C 
ATOM      5  C   UNL     1       0.920   5.034   0.018  0.00  0.00    +0.020 C 
BRANCH   5   6
ATOM      6  C   UNL     1       0.426   3.708   0.017  0.00  0.00    +0.012 A 
ATOM      7  C   UNL     1      -0.890   3.263   0.027  0.00  0.00    +0.015 A 
ATOM      8  C   UNL     1      -1.090   1.905   0.017  0.00  0.00    +0.008 A 
ATOM      9  C   UNL     1      -0.013   1.076   0.008  0.00  0.00    +0.046 A 
ATOM     10  S   UNL     1       1.332   2.170   0.001  0.00  0.00    -0.097 S 
ENDBRANCH   5   6
ENDBRANCH   2   4
BRANCH   1  11
ATOM     11  C   UNL     1       4.592   8.183  -0.001  0.00  0.00    +0.111 C 
BRANCH  11  14
ATOM     12  C   UNL     1       5.566  10.533   2.889  0.00  0.00    -0.078 C 
ATOM     13  C   UNL     1       5.433  10.041   1.446  0.00  0.00    -0.014 C 
ATOM     14  C   UNL     1       4.783   8.655   1.442  0.00  0.00    +0.003 C 
ATOM     15  C   UNL     1       3.421   8.736   2.139  0.00  0.00    -0.014 C 
ATOM     16  C   UNL     1       3.612   9.266   3.561  0.00  0.00    -0.078 C 
ATOM     17  N   UNL     1       4.219  10.613   3.495  0.00  0.00    +0.381 N 
ATOM     18  H   UNL     1       3.627  11.216   2.912  0.00  0.00    -0.081 HD
BRANCH  17  22
ATOM     19  C   UNL     1       3.751  11.456   9.081  0.00  0.00    -0.096 C 
ATOM     20  C   UNL     1       2.981  11.923   6.834  0.00  0.00    -0.081 C 
ATOM     21  C   UNL     1       2.896  11.355   5.416  0.00  0.00    -0.034 C 
ATOM     22  C   UNL     1       4.309  11.193   4.850  0.00  0.00    -0.072 C 
ATOM     23  C   UNL     1       5.119  10.281   5.776  0.00  0.00    -0.034 C 
ATOM     24  C   UNL     1       5.140  10.880   7.184  0.00  0.00    -0.081 C 
ATOM     25  N   UNL     1       3.751  10.987   7.680  0.00  0.00    +0.378 N 
ATOM     26  H   UNL     1       3.310  10.060   7.638  0.00  0.00    -0.082 HD
ENDBRANCH  17  22
ENDBRANCH  11  14
ENDBRANCH   1  11
BRANCH   1  27
ATOM     27  C   UNL     1       5.014   5.681  -0.016  0.00  0.00    +0.143 C 
BRANCH  27  28
ATOM     28  C   UNL     1       5.321   5.301  -1.441  0.00  0.00    -0.027 A 
ATOM     29  C   UNL     1       4.551   4.358  -2.106  0.00  0.00    +0.025 A 
ATOM     30  C   UNL     1       4.860   4.037  -3.414  0.00  0.00    +0.111 A 
ATOM     31  N   UNL     1       5.879   4.609  -4.026  0.00  0.00    -0.263 NA
ATOM     32  C   UNL     1       6.635   5.506  -3.424  0.00  0.00    +0.111 A 
ATOM     33  C   UNL     1       6.384   5.880  -2.117  0.00  0.00    +0.025 A 
ENDBRANCH  27  28
ENDBRANCH   1  27
TORSDOF 7
