REMARK  Name = ZINC37130166
REMARK  3 active torsions:
REMARK  status: ('A' for Active; 'I' for Inactive)
REMARK    1  A    between atoms: C_6  and  N_7
REMARK    2  A    between atoms: N_7  and  C_8
REMARK    3  A    between atoms: C_8  and  C_9
REMARK                            x       y       z     vdW  Elec       q    Type
REMARK                         _______ _______ _______ _____ _____    ______ ____
ROOT
ATOM      1  C   UNL     1      -0.017   1.386   0.010  0.00  0.00    +0.026 A 
ATOM      2  C   UNL     1       1.167   2.097   0.002  0.00  0.00    +0.050 A 
ATOM      3  C   UNL     1       2.379   1.426  -0.013  0.00  0.00    +0.157 A 
ATOM      4  C   UNL     1       2.400   0.031  -0.021  0.00  0.00    +0.089 A 
ATOM      5  C   UNL     1       1.213  -0.682  -0.013  0.00  0.00    +0.052 A 
ATOM      6  C   UNL     1       0.002  -0.004   0.002  0.00  0.00    +0.029 A 
ATOM      7  N   UNL     1       3.743  -0.347  -0.036  0.00  0.00    -0.288 N 
ATOM      8  H   UNL     1       4.083  -1.255  -0.044  0.00  0.00    +0.172 HD
ATOM      9  C   UNL     1       4.481   0.780  -0.037  0.00  0.00    +0.419 A 
ATOM     10  O   UNL     1       5.697   0.823  -0.049  0.00  0.00    -0.223 OA
ATOM     11  O   UNL     1       3.668   1.848  -0.023  0.00  0.00    -0.408 OA
ENDROOT
BRANCH   6  12
ATOM     12  N   UNL     1      -1.200  -0.720   0.010  0.00  0.00    -0.343 N 
ATOM     13  H   UNL     1      -1.187  -1.689   0.005  0.00  0.00    +0.146 HD
BRANCH  12  14
ATOM     14  C   UNL     1      -2.478  -0.004   0.027  0.00  0.00    +0.107 C 
BRANCH  14  15
ATOM     15  C   UNL     1      -3.628  -1.014   0.033  0.00  0.00    +0.034 C 
ATOM     16  C   UNL     1      -4.991  -0.283  -0.030  0.00  0.00    +0.035 C 
ATOM     17  C   UNL     1      -5.848  -1.110   0.961  0.00  0.00    +0.160 C 
ATOM     18  O   UNL     1      -4.916  -1.453   2.009  0.00  0.00    -0.379 OA
ATOM     19  C   UNL     1      -3.667  -1.779   1.370  0.00  0.00    +0.165 C 
ENDBRANCH  14  15
ENDBRANCH  12  14
ENDBRANCH   6  12
TORSDOF 3
