REMARK  Name = ZINC63952563
REMARK  6 active torsions:
REMARK  status: ('A' for Active; 'I' for Inactive)
REMARK    1  A    between atoms: C_1  and  C_2
REMARK    2  A    between atoms: N_6  and  N_24
REMARK    3  A    between atoms: C_7  and  N_11
REMARK    4  A    between atoms: N_11  and  C_12
REMARK    5  A    between atoms: C_12  and  C_13
REMARK    6  A    between atoms: C_13  and  C_14
REMARK                            x       y       z     vdW  Elec       q    Type
REMARK                         _______ _______ _______ _____ _____    ______ ____
ROOT
ATOM      1  N   UNL     1       2.054  -3.619  -0.218  0.00  0.00    -0.284 NA
ATOM      2  H   UNL     1       1.138  -4.017  -0.357  0.00  0.00    +0.125 HD
ENDROOT
BRANCH   1   8
ATOM      3  C   UNL     1      -0.019   1.526   0.010  0.00  0.00    +0.035 C 
ATOM      4  C   UNL     1       0.002  -0.004   0.002  0.00  0.00    +0.154 C 
ATOM      5  C   UNL     1       0.705  -0.489  -1.236  0.00  0.00    +0.249 C 
ATOM      6  O   UNL     1       0.462   0.048  -2.297  0.00  0.00    -0.272 OA
ATOM      7  N   UNL     1       1.591  -1.492  -1.206  0.00  0.00    -0.206 N 
ATOM      8  C   UNL     1       1.968  -2.173   0.029  0.00  0.00    +0.246 C 
ATOM      9  N   UNL     1       0.968  -1.920   1.074  0.00  0.00    -0.222 NA
ATOM     10  N   UNL     1       0.712  -0.491   1.194  0.00  0.00    -0.242 NA
ATOM     11  H   UNL     1       1.262  -2.310   1.958  0.00  0.00    +0.144 HD
ATOM     12  H   UNL     1       0.192  -0.286   2.034  0.00  0.00    +0.141 HD
BRANCH   7  13
ATOM     13  N   UNL     1       2.164  -1.896  -2.378  0.00  0.00    -0.249 NA
ATOM     14  H   UNL     1       1.822  -1.350  -3.155  0.00  0.00    +0.141 HD
ATOM     15  H   UNL     1       3.171  -1.853  -2.322  0.00  0.00    +0.141 HD
ENDBRANCH   7  13
ENDBRANCH   1   8
BRANCH   1  16
ATOM     16  C   UNL     1       2.764  -4.298   0.874  0.00  0.00    +0.088 C 
BRANCH  16  17
ATOM     17  C   UNL     1       2.833  -5.798   0.581  0.00  0.00    +0.048 C 
BRANCH  17  18
ATOM     18  C   UNL     1       3.561  -6.496   1.702  0.00  0.00    -0.040 C 
ATOM     19  C   UNL     1       3.009  -7.103   2.776  0.00  0.00    +0.000 A 
ATOM     20  C   UNL     1       1.618  -7.288   3.208  0.00  0.00    +0.030 A 
ATOM     21  C   UNL     1       1.371  -7.955   4.359  0.00  0.00    +0.042 A 
ATOM     22  C   UNL     1       2.409  -8.472   5.149  0.00  0.00    +0.022 A 
ATOM     23  C   UNL     1       3.711  -8.341   4.817  0.00  0.00    +0.027 A 
ATOM     24  C   UNL     1       4.085  -7.658   3.627  0.00  0.00    +0.043 A 
ATOM     25  N   UNL     1       5.258  -7.404   3.099  0.00  0.00    -0.380 N 
ATOM     26  C   UNL     1       5.057  -6.664   1.848  0.00  0.00    +0.144 C 
ATOM     27 CL   UNL     1      -0.272  -8.177   4.873  0.00  0.00    -0.084 Cl
ATOM     28  H   UNL     1       6.115  -7.665   3.470  0.00  0.00    +0.160 HD
ENDBRANCH  17  18
ENDBRANCH  16  17
ENDBRANCH   1  16
TORSDOF 5
