REMARK  Name = ZINC26633333
REMARK  10 active torsions:
REMARK  status: ('A' for Active; 'I' for Inactive)
REMARK    1  A    between atoms: C_1  and  C_2
REMARK    2  A    between atoms: C_2  and  C_4
REMARK    3  A    between atoms: C_2  and  O_19
REMARK    4  A    between atoms: N_6  and  N_7
REMARK    5  A    between atoms: C_8  and  C_10
REMARK    6  A    between atoms: C_10  and  C_12
REMARK    7  A    between atoms: C_10  and  N_15
REMARK    8  A    between atoms: C_12  and  C_13
REMARK    9  A    between atoms: C_12  and  C_14
REMARK   10  A    between atoms: O_19  and  C_20
REMARK                            x       y       z     vdW  Elec       q    Type
REMARK                         _______ _______ _______ _____ _____    ______ ____
ROOT
ATOM      1  N   UNL     1       1.188  -0.304   3.568  0.00  0.00    -0.233 N 
ATOM      2  C   UNL     1       0.716  -0.054   4.806  0.00  0.00    +0.250 C 
ATOM      3  O   UNL     1      -0.401   0.399   4.949  0.00  0.00    -0.272 OA
ATOM      4  H   UNL     1       2.080  -0.666   3.454  0.00  0.00    +0.173 HD
ENDROOT
BRANCH   1   7
ATOM      5  C   UNL     1       0.861  -0.293   1.210  0.00  0.00    +0.270 C 
ATOM      6  O   UNL     1       1.977  -0.746   1.067  0.00  0.00    -0.270 OA
ATOM      7  N   UNL     1       0.389  -0.043   2.448  0.00  0.00    -0.231 N 
ATOM      8  H   UNL     1      -0.504   0.319   2.562  0.00  0.00    +0.173 HD
BRANCH   5  10
ATOM      9  C   UNL     1      -0.253   1.493  -0.100  0.00  0.00    +0.062 C 
ATOM     10  C   UNL     1       0.002  -0.012   0.005  0.00  0.00    +0.257 C 
BRANCH  10  11
ATOM     11  O   UNL     1       0.671  -0.465  -1.174  0.00  0.00    -0.480 OA
BRANCH  11  12
ATOM     12  C   UNL     1      -0.106  -0.775  -2.244  0.00  0.00    +0.123 A 
ATOM     13  C   UNL     1       0.465  -1.331  -3.380  0.00  0.00    +0.046 A 
ATOM     14  C   UNL     1      -0.327  -1.645  -4.467  0.00  0.00    +0.005 A 
ATOM     15  C   UNL     1      -1.688  -1.406  -4.425  0.00  0.00    +0.015 A 
ATOM     16  C   UNL     1      -2.261  -0.851  -3.295  0.00  0.00    +0.021 A 
ATOM     17  C   UNL     1      -1.473  -0.541  -2.202  0.00  0.00    +0.061 A 
ATOM     18 BR   UNL     1      -4.122  -0.524  -3.241  0.00  0.00    -0.050 Br
ENDBRANCH  11  12
ENDBRANCH  10  11
ENDBRANCH   5  10
ENDBRANCH   1   7
BRANCH   2  19
ATOM     19  C   UNL     1       1.575  -0.335   6.011  0.00  0.00    +0.164 C 
BRANCH  19  20
ATOM     20  N   UNL     1       0.840   0.019   7.228  0.00  0.00    -0.288 N 
ATOM     21  C   UNL     1       1.512   0.340   8.352  0.00  0.00    +0.298 C 
ATOM     22  O   UNL     1       2.728   0.335   8.355  0.00  0.00    -0.253 OA
ATOM     23  N   UNL     1       0.836   0.666   9.471  0.00  0.00    -0.313 N 
ATOM     24  H   UNL     1      -0.130   0.023   7.225  0.00  0.00    +0.151 HD
ATOM     25  H   UNL     1      -0.134   0.670   9.468  0.00  0.00    +0.146 HD
ATOM     26  H   UNL     1       1.319   0.896  10.280  0.00  0.00    +0.146 HD
ENDBRANCH  19  20
BRANCH  19  27
ATOM     27  C   UNL     1       1.932  -1.823   6.046  0.00  0.00    +0.012 C 
ATOM     28  C   UNL     1       2.805  -2.109   7.271  0.00  0.00    +0.009 C 
ATOM     29  C   UNL     1       0.650  -2.654   6.128  0.00  0.00    +0.009 C 
ENDBRANCH  19  27
ENDBRANCH   2  19
TORSDOF 7
