REMARK  Name = ZINC39252925
REMARK  7 active torsions:
REMARK  status: ('A' for Active; 'I' for Inactive)
REMARK    1  A    between atoms: C_4  and  C_7
REMARK    2  A    between atoms: C_7  and  C_9
REMARK    3  A    between atoms: C_7  and  S_22
REMARK    4  A    between atoms: N_11  and  C_12
REMARK    5  A    between atoms: C_15  and  S_18
REMARK    6  A    between atoms: S_18  and  N_21
REMARK    7  A    between atoms: S_22  and  C_23
REMARK                            x       y       z     vdW  Elec       q    Type
REMARK                         _______ _______ _______ _____ _____    ______ ____
ROOT
ATOM      1  C   UNL     1       3.718  -0.708  -0.039  0.00  0.00    +0.170 C 
ENDROOT
BRANCH   1   5
ATOM      2  C   UNL     1       0.004   1.403  -0.002  0.00  0.00    +0.000 A 
ATOM      3  C   UNL     1       1.197   2.102  -0.009  0.00  0.00    +0.000 A 
ATOM      4  C   UNL     1       2.399   1.419  -0.020  0.00  0.00    +0.005 A 
ATOM      5  C   UNL     1       2.408   0.037  -0.025  0.00  0.00    -0.025 A 
ATOM      6  C   UNL     1       1.215  -0.662  -0.018  0.00  0.00    +0.005 A 
ATOM      7  C   UNL     1       0.014   0.021  -0.007  0.00  0.00    +0.000 A 
ENDBRANCH   1   5
BRANCH   1   8
ATOM      8  C   UNL     1       3.814  -1.578   1.188  0.00  0.00    +0.235 C 
ATOM      9  O   UNL     1       3.570  -2.764   1.111  0.00  0.00    -0.274 OA
ATOM     10  N   UNL     1       4.172  -1.039   2.370  0.00  0.00    -0.284 N 
ATOM     11  H   UNL     1       4.432  -0.106   2.418  0.00  0.00    +0.155 HD
BRANCH  10  12
ATOM     12  C   UNL     1       4.168  -1.825   3.528  0.00  0.00    +0.034 A 
ATOM     13  C   UNL     1       3.806  -1.266   4.747  0.00  0.00    +0.025 A 
ATOM     14  C   UNL     1       3.803  -2.045   5.887  0.00  0.00    +0.030 A 
ATOM     15  C   UNL     1       4.159  -3.379   5.816  0.00  0.00    +0.105 A 
ATOM     16  C   UNL     1       4.520  -3.938   4.604  0.00  0.00    +0.030 A 
ATOM     17  C   UNL     1       4.519  -3.167   3.459  0.00  0.00    +0.025 A 
BRANCH  15  18
ATOM     18  S   UNL     1       4.154  -4.369   7.274  0.00  0.00    +0.056 S 
ATOM     19  O   UNL     1       5.051  -5.446   7.037  0.00  0.00    -0.153 OA
ATOM     20  O   UNL     1       4.306  -3.478   8.371  0.00  0.00    -0.153 OA
BRANCH  18  21
ATOM     21  N   UNL     1       2.643  -5.033   7.410  0.00  0.00    -0.204 NA
ATOM     22  H   UNL     1       1.966  -4.838   6.743  0.00  0.00    +0.144 HD
ATOM     23  H   UNL     1       2.435  -5.618   8.155  0.00  0.00    +0.144 HD
ENDBRANCH  18  21
ENDBRANCH  15  18
ENDBRANCH  10  12
ENDBRANCH   1   8
BRANCH   1  24
ATOM     24  S   UNL     1       3.808  -1.745  -1.524  0.00  0.00    -0.067 S 
BRANCH  24  25
ATOM     25  C   UNL     1       3.832  -0.587  -2.852  0.00  0.00    +0.208 C 
ATOM     26  N   UNL     1       3.791   0.690  -2.559  0.00  0.00    -0.227 NA
ATOM     27  C   UNL     1       3.732   1.641  -3.667  0.00  0.00    +0.252 C 
ATOM     28  C   UNL     1       4.427   0.971  -4.843  0.00  0.00    +0.117 C 
ATOM     29  C   UNL     1       5.305   1.894  -5.323  0.00  0.00    +0.025 A 
ATOM     30  C   UNL     1       6.151   1.902  -6.460  0.00  0.00    +0.012 A 
ATOM     31  C   UNL     1       6.934   2.998  -6.649  0.00  0.00    +0.001 A 
ATOM     32  C   UNL     1       6.953   4.107  -5.798  0.00  0.00    +0.002 A 
ATOM     33  C   UNL     1       6.180   4.211  -4.684  0.00  0.00    +0.026 A 
ATOM     34  C   UNL     1       5.292   3.071  -4.401  0.00  0.00    +0.046 A 
ATOM     35  N   UNL     1       4.439   2.893  -3.439  0.00  0.00    -0.358 N 
ATOM     36  N   UNL     1       4.220  -0.319  -5.127  0.00  0.00    -0.147 NA
ATOM     37  N   UNL     1       3.898  -1.068  -4.118  0.00  0.00    -0.122 NA
ATOM     38  H   UNL     1       4.296   3.495  -2.692  0.00  0.00    +0.162 HD
ENDBRANCH  24  25
ENDBRANCH   1  24
TORSDOF 7
