REMARK  Name = ZINC10020175
REMARK  9 active torsions:
REMARK  status: ('A' for Active; 'I' for Inactive)
REMARK    1  A    between atoms: C_1  and  N_2
REMARK    2  A    between atoms: N_2  and  C_3
REMARK    3  A    between atoms: N_2  and  C_4
REMARK    4  A    between atoms: C_7  and  N_10
REMARK    5  A    between atoms: C_11  and  C_13
REMARK    6  A    between atoms: N_15  and  C_16
REMARK    7  A    between atoms: C_16  and  C_17
REMARK    8  A    between atoms: C_17  and  C_19
REMARK    9  A    between atoms: C_17  and  N_62
REMARK                            x       y       z     vdW  Elec       q    Type
REMARK                         _______ _______ _______ _____ _____    ______ ____
ROOT
ATOM      1  C   UNL     1       4.076   2.789   1.378  0.00  0.00    +0.094 C 
ENDROOT
BRANCH   1   4
ATOM      2  C   UNL     1       6.069   2.046   2.567  0.00  0.00    +0.299 C 
ATOM      3  O   UNL     1       5.453   2.154   3.607  0.00  0.00    -0.265 OA
ATOM      4  N   UNL     1       5.470   2.340   1.395  0.00  0.00    -0.309 N 
ATOM      5  H   UNL     1       5.962   2.254   0.564  0.00  0.00    +0.149 HD
BRANCH   2   7
ATOM      6  N   UNL     1       8.089   1.295   3.755  0.00  0.00    -0.278 N 
ATOM      7  C   UNL     1       7.490   1.589   2.584  0.00  0.00    +0.303 C 
ATOM      8  O   UNL     1       8.106   1.481   1.544  0.00  0.00    -0.265 OA
ATOM      9  H   UNL     1       7.577   1.310   4.579  0.00  0.00    +0.155 HD
BRANCH   6  13
ATOM     10  C   UNL     1      12.143   0.326   3.837  0.00  0.00    +0.029 A 
ATOM     11  C   UNL     1      11.671   1.260   2.925  0.00  0.00    +0.025 A 
ATOM     12  C   UNL     1      10.328   1.581   2.897  0.00  0.00    +0.025 A 
ATOM     13  C   UNL     1       9.450   0.970   3.783  0.00  0.00    +0.034 A 
ATOM     14  C   UNL     1       9.923   0.039   4.699  0.00  0.00    +0.025 A 
ATOM     15  C   UNL     1      11.264  -0.286   4.723  0.00  0.00    +0.025 A 
BRANCH  10  17
ATOM     16  C   UNL     1      14.448   0.730   3.016  0.00  0.00    +0.129 C 
ATOM     17  N   UNL     1      13.502   0.000   3.865  0.00  0.00    -0.336 N 
ATOM     18  C   UNL     1      13.982  -1.071   4.743  0.00  0.00    +0.129 C 
ENDBRANCH  10  17
ENDBRANCH   6  13
ENDBRANCH   2   7
ENDBRANCH   1   4
BRANCH   1  19
ATOM     19  C   UNL     1       3.681   3.171  -0.050  0.00  0.00    -0.020 C 
BRANCH  19  20
ATOM     20  C   UNL     1       2.285   3.739  -0.049  0.00  0.00    -0.052 A 
ATOM     21  C   UNL     1       2.093   5.084   0.046  0.00  0.00    +0.003 A 
ATOM     22  C   UNL     1       0.810   5.627   0.047  0.00  0.00    +0.001 A 
ATOM     23  C   UNL     1      -0.289   4.829  -0.047  0.00  0.00    +0.008 A 
ATOM     24  C   UNL     1      -0.131   3.437  -0.147  0.00  0.00    -0.018 A 
ATOM     25  C   UNL     1       1.175   2.884  -0.148  0.00  0.00    -0.016 A 
ATOM     26  C   UNL     1       1.333   1.491  -0.249  0.00  0.00    +0.009 A 
ATOM     27  C   UNL     1       0.234   0.694  -0.343  0.00  0.00    +0.001 A 
ATOM     28  C   UNL     1      -1.049   1.237  -0.347  0.00  0.00    +0.001 A 
ATOM     29  C   UNL     1      -1.241   2.581  -0.246  0.00  0.00    +0.008 A 
ENDBRANCH  19  20
BRANCH  19  34
ATOM     30  C   UNL     1       4.064   4.861  -1.760  0.00  0.00    -0.078 C 
ATOM     31  C   UNL     1       4.883   6.174  -1.831  0.00  0.00    -0.020 C 
ATOM     32  C   UNL     1       5.051   6.557  -0.343  0.00  0.00    -0.020 C 
ATOM     33  C   UNL     1       4.853   5.243   0.435  0.00  0.00    -0.078 C 
ATOM     34  N   UNL     1       4.626   4.204  -0.570  0.00  0.00    +0.385 N 
ATOM     35  H   UNL     1       5.517   3.754  -0.811  0.00  0.00    -0.081 HD
ENDBRANCH  19  34
ENDBRANCH   1  19
TORSDOF 7
