REMARK  Name = ZINC13223331
REMARK  8 active torsions:
REMARK  status: ('A' for Active; 'I' for Inactive)
REMARK    1  A    between atoms: N_9  and  C_31
REMARK    2  A    between atoms: C_10  and  S_12
REMARK    3  A    between atoms: S_12  and  C_13
REMARK    4  A    between atoms: C_13  and  C_14
REMARK    5  A    between atoms: N_16  and  C_17
REMARK    6  A    between atoms: C_17  and  C_19
REMARK    7  A    between atoms: C_17  and  C_26
REMARK    8  A    between atoms: C_31  and  C_32
REMARK                            x       y       z     vdW  Elec       q    Type
REMARK                         _______ _______ _______ _____ _____    ______ ____
ROOT
ATOM      1  C   UNL     1      -3.801  -1.496   0.030  0.00  0.00    +0.173 C 
ENDROOT
BRANCH   1   2
ATOM      2  C   UNL     1      -5.219  -2.005   0.041  0.00  0.00    +0.224 C 
ATOM      3  O   UNL     1      -5.434  -3.199   0.037  0.00  0.00    -0.275 OA
ATOM      4  N   UNL     1      -6.248  -1.135   0.055  0.00  0.00    -0.303 N 
ATOM      5  H   UNL     1      -6.076  -0.180   0.058  0.00  0.00    +0.150 HD
BRANCH   4   6
ATOM      6  C   UNL     1      -7.627  -1.631   0.065  0.00  0.00    +0.140 C 
BRANCH   6   7
ATOM      7  C   UNL     1      -8.529  -0.592   0.679  0.00  0.00    -0.022 A 
ATOM      8  C   UNL     1      -8.335   0.747   0.396  0.00  0.00    +0.008 A 
ATOM      9  C   UNL     1      -9.165   1.700   0.954  0.00  0.00    +0.038 A 
ATOM     10  C   UNL     1     -10.185   1.314   1.807  0.00  0.00    +0.123 A 
ATOM     11  C   UNL     1     -10.376  -0.027   2.095  0.00  0.00    +0.038 A 
ATOM     12  C   UNL     1      -9.548  -0.978   1.530  0.00  0.00    +0.008 A 
ATOM     13  F   UNL     1     -10.994   2.246   2.358  0.00  0.00    -0.205 F 
ENDBRANCH   6   7
BRANCH   6  14
ATOM     14  C   UNL     1      -8.071  -1.910  -1.348  0.00  0.00    +0.014 A 
ATOM     15  C   UNL     1      -8.814  -2.940  -1.821  0.00  0.00    +0.013 A 
ATOM     16  C   UNL     1      -9.104  -2.993  -3.171  0.00  0.00    +0.008 A 
ATOM     17  C   UNL     1      -8.635  -2.013  -3.983  0.00  0.00    +0.045 A 
ATOM     18  S   UNL     1      -7.760  -0.967  -2.831  0.00  0.00    -0.099 S 
ENDBRANCH   6  14
ENDBRANCH   4   6
ENDBRANCH   1   2
BRANCH   1  19
ATOM     19  S   UNL     1      -2.656  -2.897   0.012  0.00  0.00    -0.078 S 
BRANCH  19  29
ATOM     20  C   UNL     1       2.381   1.422  -0.013  0.00  0.00    +0.001 A 
ATOM     21  C   UNL     1       1.161   2.086   0.002  0.00  0.00    +0.002 A 
ATOM     22  C   UNL     1      -0.017   1.394   0.010  0.00  0.00    +0.028 A 
ATOM     23  C   UNL     1       0.002  -0.004   0.002  0.00  0.00    +0.079 A 
ATOM     24  C   UNL     1       1.245  -0.677  -0.013  0.00  0.00    +0.065 A 
ATOM     25  C   UNL     1       2.432   0.055  -0.021  0.00  0.00    +0.015 A 
ATOM     26  C   UNL     1       1.239  -2.146  -0.021  0.00  0.00    +0.263 A 
ATOM     27  O   UNL     1       2.277  -2.782  -0.034  0.00  0.00    -0.267 OA
ATOM     28  N   UNL     1       0.036  -2.766  -0.012  0.00  0.00    -0.276 N 
ATOM     29  C   UNL     1      -1.119  -2.036   0.002  0.00  0.00    +0.173 A 
ATOM     30  N   UNL     1      -1.136  -0.726   0.009  0.00  0.00    -0.223 NA
BRANCH  28  31
ATOM     31  C   UNL     1      -0.028  -4.229  -0.019  0.00  0.00    +0.252 C 
BRANCH  31  32
ATOM     32  C   UNL     1      -0.037  -4.738   1.399  0.00  0.00    +0.375 C 
ATOM     33  O   UNL     1       0.007  -3.959   2.321  0.00  0.00    -0.244 OA
ATOM     34  O   UNL     1      -0.092  -6.058   1.639  0.00  0.00    -0.244 OA
ENDBRANCH  31  32
ENDBRANCH  28  31
ENDBRANCH  19  29
ENDBRANCH   1  19
TORSDOF 8
