REMARK  Name = ZINC13372416
REMARK  7 active torsions:
REMARK  status: ('A' for Active; 'I' for Inactive)
REMARK    1  A    between atoms: C_1  and  O_2
REMARK    2  A    between atoms: O_2  and  C_3
REMARK    3  A    between atoms: C_3  and  C_5
REMARK    4  A    between atoms: C_5  and  N_6
REMARK    5  A    between atoms: C_7  and  C_28
REMARK    6  A    between atoms: C_16  and  C_18
REMARK    7  A    between atoms: C_22  and  N_24
REMARK                            x       y       z     vdW  Elec       q    Type
REMARK                         _______ _______ _______ _____ _____    ______ ____
ROOT
ATOM      1  N   UNL     1       1.015  -2.540  -2.451  0.00  0.00    -0.259 NA
ATOM      2  C   UNL     1       1.420  -3.950  -2.482  0.00  0.00    +0.121 C 
ATOM      3  C   UNL     1       2.529  -4.200  -1.494  0.00  0.00    -0.004 A 
ATOM      4  C   UNL     1       2.772  -5.488  -1.052  0.00  0.00    +0.022 A 
ATOM      5  C   UNL     1       3.789  -5.732  -0.147  0.00  0.00    +0.018 A 
ATOM      6  C   UNL     1       4.569  -4.689   0.321  0.00  0.00    +0.017 A 
ATOM      7  C   UNL     1       4.332  -3.401  -0.115  0.00  0.00    +0.024 A 
ATOM      8  C   UNL     1       3.310  -3.155  -1.023  0.00  0.00    +0.034 A 
ATOM      9  N   UNL     1       3.065  -1.847  -1.461  0.00  0.00    -0.324 N 
ATOM     10  C   UNL     1       2.182  -1.658  -2.622  0.00  0.00    +0.174 C 
ATOM     11 BR   UNL     1       4.114  -7.496   0.452  0.00  0.00    -0.050 Br
ATOM     12  H   UNL     1       3.467  -1.087  -1.012  0.00  0.00    +0.148 HD
ENDROOT
BRANCH  10  13
ATOM     13  C   UNL     1       2.916  -2.022  -3.886  0.00  0.00    -0.011 A 
ATOM     14  C   UNL     1       2.363  -1.722  -5.117  0.00  0.00    +0.007 A 
ATOM     15  C   UNL     1       3.037  -2.056  -6.277  0.00  0.00    +0.003 A 
ATOM     16  C   UNL     1       4.263  -2.690  -6.206  0.00  0.00    +0.033 A 
ATOM     17  C   UNL     1       4.816  -2.989  -4.976  0.00  0.00    +0.127 A 
ATOM     18  C   UNL     1       4.145  -2.651  -3.815  0.00  0.00    +0.039 A 
BRANCH  17  19
ATOM     19  N   UNL     1       6.129  -3.668  -4.900  0.00  0.00    +0.056 N 
ATOM     20  O   UNL     1       6.718  -3.961  -5.914  0.00  0.00    -0.126 OA
ATOM     21  O   UNL     1       6.613  -3.930  -3.823  0.00  0.00    -0.126 OA
ENDBRANCH  17  19
ENDBRANCH  10  13
BRANCH   2  22
ATOM     22  C   UNL     1       1.902  -4.301  -3.866  0.00  0.00    -0.026 A 
ATOM     23  C   UNL     1       3.093  -4.982  -4.031  0.00  0.00    +0.005 A 
ATOM     24  C   UNL     1       3.535  -5.304  -5.301  0.00  0.00    +0.000 A 
ATOM     25  C   UNL     1       2.785  -4.945  -6.405  0.00  0.00    +0.000 A 
ATOM     26  C   UNL     1       1.593  -4.266  -6.240  0.00  0.00    +0.000 A 
ATOM     27  C   UNL     1       1.149  -3.947  -4.970  0.00  0.00    +0.005 A 
ENDBRANCH   2  22
BRANCH   1  28
ATOM     28  C   UNL     1       0.294  -2.226  -1.211  0.00  0.00    +0.208 C 
BRANCH  28  29
ATOM     29  C   UNL     1      -0.310  -0.849  -1.316  0.00  0.00    +0.321 C 
ATOM     30  O   UNL     1      -0.156  -0.197  -2.321  0.00  0.00    -0.249 OA
BRANCH  29  32
ATOM     31  C   UNL     1      -1.563   0.963  -0.462  0.00  0.00    +0.280 C 
ATOM     32  O   UNL     1      -1.020  -0.348  -0.293  0.00  0.00    -0.467 OA
ENDBRANCH  29  32
ENDBRANCH  28  29
ENDBRANCH   1  28
TORSDOF 6
