REMARK  Name = ZINC20290559
REMARK  14 active torsions:
REMARK  status: ('A' for Active; 'I' for Inactive)
REMARK    1  A    between atoms: C_1  and  C_2
REMARK    2  A    between atoms: C_2  and  O_3
REMARK    3  A    between atoms: O_3  and  C_4
REMARK    4  A    between atoms: C_4  and  C_6
REMARK    5  A    between atoms: C_7  and  C_32
REMARK    6  A    between atoms: C_8  and  C_30
REMARK    7  A    between atoms: C_9  and  N_11
REMARK    8  A    between atoms: C_12  and  C_14
REMARK    9  A    between atoms: C_14  and  C_15
REMARK   10  A    between atoms: C_15  and  S_16
REMARK   11  A    between atoms: S_16  and  C_17
REMARK   12  A    between atoms: C_20  and  C_23
REMARK   13  A    between atoms: N_21  and  N_22
REMARK   14  A    between atoms: C_28  and  O_29
REMARK                            x       y       z     vdW  Elec       q    Type
REMARK                         _______ _______ _______ _____ _____    ______ ____
ROOT
ATOM      1  C   UNL     1       4.589  -1.527  -7.785  0.00  0.00    +0.107 C 
ENDROOT
BRANCH   1   3
ATOM      2  N   UNL     1       3.467  -2.732  -5.939  0.00  0.00    -0.279 N 
ATOM      3  C   UNL     1       3.745  -1.556  -6.537  0.00  0.00    +0.218 C 
ATOM      4  O   UNL     1       3.315  -0.522  -6.071  0.00  0.00    -0.275 OA
ATOM      5  H   UNL     1       3.811  -3.559  -6.311  0.00  0.00    +0.155 HD
BRANCH   2   9
ATOM      6  C   UNL     1       1.197  -2.337  -2.657  0.00  0.00    +0.102 A 
ATOM      7  C   UNL     1       1.521  -3.653  -2.924  0.00  0.00    -0.010 A 
ATOM      8  C   UNL     1       2.306  -3.871  -4.046  0.00  0.00    +0.084 A 
ATOM      9  C   UNL     1       2.693  -2.759  -4.794  0.00  0.00    +0.090 A 
ATOM     10  S   UNL     1       1.994  -1.462  -3.988  0.00  0.00    -0.065 S 
ATOM     11  C   UNL     1       1.050  -4.785  -2.047  0.00  0.00    +0.046 C 
BRANCH   6  12
ATOM     12  C   UNL     1       0.394  -1.798  -1.561  0.00  0.00    +0.346 C 
ATOM     13  O   UNL     1      -0.082  -2.548  -0.729  0.00  0.00    -0.244 OA
BRANCH  12  14
ATOM     14  O   UNL     1       0.181  -0.469  -1.471  0.00  0.00    -0.461 OA
BRANCH  14  16
ATOM     15  C   UNL     1      -0.744   1.511  -0.439  0.00  0.00    +0.048 C 
ATOM     16  C   UNL     1      -0.613  -0.012  -0.374  0.00  0.00    +0.229 C 
ENDBRANCH  14  16
ENDBRANCH  12  14
ENDBRANCH   6  12
BRANCH   8  17
ATOM     17  C   UNL     1       2.707  -5.192  -4.423  0.00  0.00    +0.102 C 
ATOM     18  N   UNL     1       3.025  -6.241  -4.723  0.00  0.00    -0.191 NA
ENDBRANCH   8  17
ENDBRANCH   2   9
ENDBRANCH   1   3
BRANCH   1  19
ATOM     19  C   UNL     1       4.751  -0.080  -8.257  0.00  0.00    +0.086 C 
BRANCH  19  20
ATOM     20  S   UNL     1       5.768  -0.045  -9.759  0.00  0.00    -0.084 S 
BRANCH  20  21
ATOM     21  C   UNL     1       5.860   1.666 -10.170  0.00  0.00    +0.209 A 
ATOM     22  N   UNL     1       5.308   2.658  -9.508  0.00  0.00    -0.121 NA
ATOM     23  N   UNL     1       5.575   3.776 -10.084  0.00  0.00    -0.127 NA
ATOM     24  C   UNL     1       6.313   3.566 -11.149  0.00  0.00    +0.185 A 
ATOM     25  N   UNL     1       6.523   2.209 -11.234  0.00  0.00    -0.224 N 
BRANCH  24  26
ATOM     26  C   UNL     1       6.826   4.594 -12.078  0.00  0.00    +0.062 A 
ATOM     27  C   UNL     1       6.706   4.417 -13.457  0.00  0.00    +0.015 A 
ATOM     28  C   UNL     1       7.186   5.380 -14.319  0.00  0.00    +0.001 A 
ATOM     29  C   UNL     1       7.789   6.523 -13.823  0.00  0.00    +0.004 A 
ATOM     30  C   UNL     1       7.915   6.710 -12.459  0.00  0.00    +0.046 A 
ATOM     31  C   UNL     1       7.431   5.755 -11.580  0.00  0.00    +0.128 A 
BRANCH  31  32
ATOM     32  O   UNL     1       7.548   5.941 -10.239  0.00  0.00    -0.506 OA
ATOM     33  H   UNL     1       8.367   5.590  -9.864  0.00  0.00    +0.292 HD
ENDBRANCH  31  32
ENDBRANCH  24  26
BRANCH  25  34
ATOM     34  N   UNL     1       7.242   1.543 -12.186  0.00  0.00    -0.295 N 
ATOM     35  H   UNL     1       6.677   1.357 -13.001  0.00  0.00    +0.163 HD
ATOM     36  H   UNL     1       8.076   2.055 -12.433  0.00  0.00    +0.163 HD
ENDBRANCH  25  34
ENDBRANCH  20  21
ENDBRANCH  19  20
ENDBRANCH   1  19
TORSDOF 12
