REMARK  Name = ZINC64212906
REMARK  7 active torsions:
REMARK  status: ('A' for Active; 'I' for Inactive)
REMARK    1  A    between atoms: C_7  and  C_10
REMARK    2  A    between atoms: C_10  and  C_12
REMARK    3  A    between atoms: C_10  and  C_28
REMARK    4  A    between atoms: C_12  and  N_13
REMARK    5  A    between atoms: C_14  and  C_16
REMARK    6  A    between atoms: C_16  and  S_17
REMARK    7  A    between atoms: S_17  and  C_18
REMARK                            x       y       z     vdW  Elec       q    Type
REMARK                         _______ _______ _______ _____ _____    ______ ____
ROOT
ATOM      1  C   UNL     1       0.947  -4.042   1.218  0.00  0.00    +0.117 C 
ENDROOT
BRANCH   1   2
ATOM      2  N   UNL     1      -0.044  -5.118   1.282  0.00  0.00    -0.314 N 
ATOM      3  C   UNL     1      -0.013  -6.003   2.298  0.00  0.00    +0.223 C 
ATOM      4  O   UNL     1       0.836  -5.909   3.159  0.00  0.00    -0.275 OA
ATOM      5  H   UNL     1      -0.723  -5.194   0.593  0.00  0.00    +0.149 HD
BRANCH   3   6
ATOM      6  C   UNL     1      -1.034  -7.111   2.364  0.00  0.00    +0.170 C 
BRANCH   6   7
ATOM      7  S   UNL     1      -0.729  -8.126   3.836  0.00  0.00    -0.088 S 
BRANCH   7   8
ATOM      8  C   UNL     1      -2.024  -9.395   3.769  0.00  0.00    +0.323 C 
ATOM      9  N   UNL     1      -3.351  -8.765   3.781  0.00  0.00    -0.298 N 
ATOM     10  C   UNL     1      -3.973  -9.139   2.582  0.00  0.00    +0.073 A 
ATOM     11  C   UNL     1      -5.228  -8.833   2.071  0.00  0.00    +0.027 A 
ATOM     12  C   UNL     1      -5.616  -9.333   0.843  0.00  0.00    +0.002 A 
ATOM     13  C   UNL     1      -4.756 -10.140   0.121  0.00  0.00    +0.004 A 
ATOM     14  C   UNL     1      -3.506 -10.448   0.623  0.00  0.00    +0.047 A 
ATOM     15  C   UNL     1      -3.106  -9.950   1.857  0.00  0.00    +0.145 A 
ATOM     16  O   UNL     1      -1.940 -10.119   2.540  0.00  0.00    -0.460 OA
ATOM     17  H   UNL     1      -3.722  -8.202   4.478  0.00  0.00    +0.150 HD
ENDBRANCH   7   8
ENDBRANCH   6   7
ENDBRANCH   3   6
ENDBRANCH   1   2
BRANCH   1  18
ATOM     18  C   UNL     1       0.691  -3.186  -0.024  0.00  0.00    +0.071 C 
BRANCH  18  25
ATOM     19  C   UNL     1      -0.016   1.348   0.009  0.00  0.00    +0.001 A 
ATOM     20  C   UNL     1       1.166   2.101   0.002  0.00  0.00    +0.002 A 
ATOM     21  C   UNL     1       2.391   1.535  -0.013  0.00  0.00    +0.026 A 
ATOM     22  C   UNL     1       2.529   0.120  -0.022  0.00  0.00    +0.043 A 
ATOM     23  N   UNL     1       3.587  -0.654  -0.037  0.00  0.00    -0.380 N 
ATOM     24  C   UNL     1       3.143  -2.053  -0.041  0.00  0.00    +0.145 C 
ATOM     25  C   UNL     1       1.631  -2.008  -0.025  0.00  0.00    -0.032 C 
ATOM     26  C   UNL     1       1.295  -0.698  -0.014  0.00  0.00    -0.000 A 
ATOM     27  C   UNL     1       0.002  -0.004   0.002  0.00  0.00    +0.010 A 
ATOM     28  H   UNL     1       4.509  -0.353  -0.045  0.00  0.00    +0.160 HD
ENDBRANCH  18  25
BRANCH  18  29
ATOM     29  C   UNL     1       0.920  -4.014  -1.262  0.00  0.00    -0.002 A 
ATOM     30  C   UNL     1       0.053  -4.316  -2.259  0.00  0.00    +0.012 A 
ATOM     31  C   UNL     1       0.488  -5.102  -3.310  0.00  0.00    +0.008 A 
ATOM     32  C   UNL     1       1.769  -5.546  -3.312  0.00  0.00    +0.045 A 
ATOM     33  S   UNL     1       2.406  -4.845  -1.799  0.00  0.00    -0.101 S 
ENDBRANCH  18  29
ENDBRANCH   1  18
TORSDOF 7
