REMARK  Name = ZINC09777312
REMARK  9 active torsions:
REMARK  status: ('A' for Active; 'I' for Inactive)
REMARK    1  A    between atoms: C_1  and  C_2
REMARK    2  A    between atoms: C_8  and  N_10
REMARK    3  A    between atoms: C_11  and  C_37
REMARK    4  A    between atoms: C_19  and  C_25
REMARK    5  A    between atoms: N_27  and  C_28
REMARK    6  A    between atoms: C_31  and  C_34
REMARK    7  A    between atoms: C_34  and  C_35
REMARK    8  A    between atoms: C_34  and  C_36
REMARK    9  A    between atoms: N_39  and  C_40
REMARK                            x       y       z     vdW  Elec       q    Type
REMARK                         _______ _______ _______ _____ _____    ______ ____
ROOT
ATOM      1  N   UNL     1      -3.638   1.608  -0.448  0.00  0.00    -0.283 N 
ATOM      2  C   UNL     1      -3.164   2.964  -0.029  0.00  0.00    +0.199 C 
ATOM      3  C   UNL     1      -3.972   3.205   1.209  0.00  0.00    +0.127 C 
ATOM      4  C   UNL     1      -3.529   2.345   2.378  0.00  0.00    +0.009 C 
ATOM      5  C   UNL     1      -4.321   2.675   3.388  0.00  0.00    +0.004 C 
ATOM      6  C   UNL     1      -5.298   3.704   2.805  0.00  0.00    +0.155 C 
ATOM      7  O   UNL     1      -4.436   4.392   1.807  0.00  0.00    -0.358 OA
ATOM      8  C   UNL     1      -6.216   2.807   1.887  0.00  0.00    +0.123 C 
ATOM      9  C   UNL     1      -5.348   2.646   0.665  0.00  0.00    +0.128 C 
ATOM     10  C   UNL     1      -4.896   1.382   0.056  0.00  0.00    +0.224 C 
ATOM     11  O   UNL     1      -5.517   0.342   0.009  0.00  0.00    -0.275 OA
ENDROOT
BRANCH   1  18
ATOM     12  C   UNL     1      -4.113  -1.241  -0.230  0.00  0.00    +0.009 C 
ATOM     13  C   UNL     1      -3.731  -0.573  -1.552  0.00  0.00    +0.006 C 
ATOM     14  C   UNL     1      -5.001  -0.156  -2.298  0.00  0.00    +0.005 C 
ATOM     15  C   UNL     1      -4.619   0.512  -3.620  0.00  0.00    +0.000 C 
ATOM     16  C   UNL     1      -3.764   1.750  -3.338  0.00  0.00    +0.002 C 
ATOM     17  C   UNL     1      -2.495   1.333  -2.593  0.00  0.00    +0.023 C 
ATOM     18  C   UNL     1      -2.876   0.664  -1.270  0.00  0.00    +0.080 C 
ENDBRANCH   1  18
BRANCH   8  19
ATOM     19  C   UNL     1      -6.492   1.474   2.534  0.00  0.00    +0.224 C 
ATOM     20  O   UNL     1      -5.693   0.569   2.421  0.00  0.00    -0.275 OA
ATOM     21  N   UNL     1      -7.626   1.288   3.238  0.00  0.00    -0.285 N 
ATOM     22  H   UNL     1      -8.299   1.986   3.265  0.00  0.00    +0.155 HD
BRANCH  21  23
ATOM     23  C   UNL     1      -7.832   0.089   3.928  0.00  0.00    +0.033 A 
ATOM     24  C   UNL     1      -9.113  -0.437   4.042  0.00  0.00    +0.023 A 
ATOM     25  C   UNL     1      -9.312  -1.623   4.721  0.00  0.00    +0.006 A 
ATOM     26  C   UNL     1      -8.240  -2.282   5.295  0.00  0.00    -0.045 A 
ATOM     27  C   UNL     1      -6.965  -1.758   5.187  0.00  0.00    +0.006 A 
ATOM     28  C   UNL     1      -6.758  -0.575   4.506  0.00  0.00    +0.023 A 
BRANCH  26  29
ATOM     29  C   UNL     1      -8.463  -3.573   6.040  0.00  0.00    +0.013 C 
ATOM     30  C   UNL     1      -9.418  -3.328   7.210  0.00  0.00    +0.012 C 
ATOM     31  C   UNL     1      -9.071  -4.610   5.094  0.00  0.00    +0.012 C 
ENDBRANCH  26  29
ENDBRANCH  21  23
ENDBRANCH   8  19
BRANCH   2  32
ATOM     32  C   UNL     1      -1.690   2.947   0.285  0.00  0.00    +0.237 C 
ATOM     33  O   UNL     1      -1.130   1.894   0.505  0.00  0.00    -0.274 OA
ATOM     34  N   UNL     1      -0.994   4.100   0.316  0.00  0.00    -0.311 N 
ATOM     35  H   UNL     1      -1.442   4.942   0.140  0.00  0.00    +0.149 HD
BRANCH  34  36
ATOM     36  C   UNL     1       0.440   4.082   0.615  0.00  0.00    +0.073 C 
ATOM     37  C   UNL     1       0.645   4.090   2.131  0.00  0.00    +0.022 C 
ATOM     38  C   UNL     1       2.143   4.071   2.443  0.00  0.00    +0.002 C 
ATOM     39  C   UNL     1       2.806   5.307   1.833  0.00  0.00    +0.000 C 
ATOM     40  C   UNL     1       2.601   5.300   0.317  0.00  0.00    +0.002 C 
ATOM     41  C   UNL     1       1.104   5.319   0.005  0.00  0.00    +0.022 C 
ENDBRANCH  34  36
ENDBRANCH   2  32
TORSDOF 6
