REMARK  Name = ZINC59016907
REMARK  12 active torsions:
REMARK  status: ('A' for Active; 'I' for Inactive)
REMARK    1  A    between atoms: C_1  and  O_2
REMARK    2  A    between atoms: O_2  and  C_3
REMARK    3  A    between atoms: C_7  and  C_10
REMARK    4  A    between atoms: C_8  and  O_9
REMARK    5  A    between atoms: N_11  and  N_12
REMARK    6  A    between atoms: C_15  and  S_18
REMARK    7  A    between atoms: S_18  and  C_19
REMARK    8  A    between atoms: C_19  and  C_20
REMARK    9  A    between atoms: N_22  and  C_23
REMARK   10  A    between atoms: C_28  and  S_29
REMARK   11  A    between atoms: S_29  and  C_30
REMARK   12  A    between atoms: C_30  and  C_31
REMARK                            x       y       z     vdW  Elec       q    Type
REMARK                         _______ _______ _______ _____ _____    ______ ____
ROOT
ATOM      1  N   UNL     1       0.807  -6.202  -1.491  0.00  0.00    -0.205 N 
ATOM      2  C   UNL     1       0.254  -6.978  -0.489  0.00  0.00    +0.232 A 
ATOM      3  N   UNL     1      -0.356  -6.531   0.589  0.00  0.00    -0.186 NA
ATOM      4  C   UNL     1      -0.763  -7.563   1.336  0.00  0.00    +0.211 A 
ATOM      5  N   UNL     1      -0.418  -8.681   0.743  0.00  0.00    -0.144 NA
ATOM      6  N   UNL     1       0.240  -8.327  -0.447  0.00  0.00    -0.245 N 
ATOM      7  H   UNL     1       1.234  -6.625  -2.252  0.00  0.00    +0.177 HD
ATOM      8  H   UNL     1       0.611  -8.933  -1.107  0.00  0.00    +0.192 HD
ENDROOT
BRANCH   1  10
ATOM      9  C   UNL     1       1.270  -4.076  -2.347  0.00  0.00    +0.142 C 
ATOM     10  N   UNL     1       0.751  -4.804  -1.407  0.00  0.00    -0.187 NA
BRANCH   9  15
ATOM     11  C   UNL     1       0.543  -0.605  -1.088  0.00  0.00    +0.162 A 
ATOM     12  C   UNL     1       1.101   0.164  -2.098  0.00  0.00    +0.049 A 
ATOM     13  C   UNL     1       1.710  -0.443  -3.182  0.00  0.00    +0.004 A 
ATOM     14  C   UNL     1       1.768  -1.818  -3.269  0.00  0.00    +0.013 A 
ATOM     15  C   UNL     1       1.210  -2.606  -2.258  0.00  0.00    +0.040 A 
ATOM     16  C   UNL     1       0.599  -1.992  -1.158  0.00  0.00    +0.167 A 
BRANCH  11  18
ATOM     17  C   UNL     1      -0.074   1.427  -0.017  0.00  0.00    +0.277 C 
ATOM     18  O   UNL     1      -0.053  -0.002  -0.025  0.00  0.00    -0.491 OA
ENDBRANCH  11  18
BRANCH  16  19
ATOM     19  O   UNL     1       0.059  -2.748  -0.167  0.00  0.00    -0.503 OA
ATOM     20  H   UNL     1      -0.870  -2.976  -0.309  0.00  0.00    +0.292 HD
ENDBRANCH  16  19
ENDBRANCH   9  15
ENDBRANCH   1  10
BRANCH   4  21
ATOM     21  S   UNL     1      -1.624  -7.440   2.868  0.00  0.00    -0.075 S 
BRANCH  21  22
ATOM     22  C   UNL     1      -1.883  -9.166   3.365  0.00  0.00    +0.173 C 
BRANCH  22  23
ATOM     23  C   UNL     1      -2.620  -9.205   4.679  0.00  0.00    +0.228 C 
ATOM     24  O   UNL     1      -2.938  -8.171   5.227  0.00  0.00    -0.275 OA
ATOM     25  N   UNL     1      -2.924 -10.389   5.246  0.00  0.00    -0.284 N 
ATOM     26  H   UNL     1      -2.728 -11.216   4.777  0.00  0.00    +0.155 HD
BRANCH  25  27
ATOM     27  C   UNL     1      -3.525 -10.427   6.511  0.00  0.00    +0.047 A 
ATOM     28  C   UNL     1      -4.426  -9.440   6.883  0.00  0.00    +0.024 A 
ATOM     29  C   UNL     1      -5.018  -9.479   8.131  0.00  0.00    +0.002 A 
ATOM     30  C   UNL     1      -4.714 -10.499   9.014  0.00  0.00    +0.001 A 
ATOM     31  C   UNL     1      -3.817 -11.487   8.653  0.00  0.00    +0.016 A 
ATOM     32  C   UNL     1      -3.223 -11.459   7.399  0.00  0.00    +0.029 A 
BRANCH  32  33
ATOM     33  S   UNL     1      -2.083 -12.720   6.933  0.00  0.00    -0.119 S 
BRANCH  33  34
ATOM     34  C   UNL     1      -2.018 -13.810   8.382  0.00  0.00    +0.101 C 
BRANCH  34  35
ATOM     35  C   UNL     1      -1.066 -14.947   8.113  0.00  0.00    -0.024 C 
ATOM     36  C   UNL     1       0.033 -15.061   8.816  0.00  0.00    +0.005 C 
ENDBRANCH  34  35
ENDBRANCH  33  34
ENDBRANCH  32  33
ENDBRANCH  25  27
ENDBRANCH  22  23
ENDBRANCH  21  22
ENDBRANCH   4  21
TORSDOF 11
