REMARK  Name = ZINC39664432
REMARK  11 active torsions:
REMARK  status: ('A' for Active; 'I' for Inactive)
REMARK    1  A    between atoms: C_1  and  C_2
REMARK    2  A    between atoms: C_4  and  C_11
REMARK    3  A    between atoms: N_5  and  C_7
REMARK    4  A    between atoms: C_7  and  C_8
REMARK    5  A    between atoms: C_7  and  C_9
REMARK    6  A    between atoms: C_7  and  C_10
REMARK    7  A    between atoms: C_15  and  C_24
REMARK    8  A    between atoms: N_26  and  C_27
REMARK    9  A    between atoms: C_27  and  C_28
REMARK   10  A    between atoms: C_28  and  C_30
REMARK   11  A    between atoms: C_28  and  N_36
REMARK                            x       y       z     vdW  Elec       q    Type
REMARK                         _______ _______ _______ _____ _____    ______ ____
ROOT
ATOM      1  C   UNL     1      -0.124  -4.214  -0.244  0.00  0.00    +0.265 C 
ATOM      2  O   UNL     1      -0.269  -3.930  -1.418  0.00  0.00    -0.268 OA
ATOM      3  N   UNL     1      -0.440  -5.448   0.194  0.00  0.00    -0.295 N 
ATOM      4  C   UNL     1      -0.458  -5.938   1.593  0.00  0.00    +0.121 C 
ATOM      5  C   UNL     1      -1.703  -6.851   1.670  0.00  0.00    +0.100 C 
ATOM      6  C   UNL     1      -1.951  -7.299   0.220  0.00  0.00    -0.004 C 
ATOM      7  C   UNL     1      -0.853  -6.621  -0.613  0.00  0.00    +0.115 C 
ATOM      8  C   UNL     1      -1.840  -8.816   0.109  0.00  0.00    -0.010 C 
ATOM      9  C   UNL     1      -2.148  -9.242  -1.329  0.00  0.00    -0.082 C 
ATOM     10  N   UNL     1      -3.501  -8.803  -1.692  0.00  0.00    +0.379 N 
ATOM     11  C   UNL     1      -3.574  -7.337  -1.673  0.00  0.00    -0.082 C 
ATOM     12  C   UNL     1      -3.326  -6.831  -0.249  0.00  0.00    -0.010 C 
ATOM     13  H   UNL     1      -3.724  -9.138  -2.618  0.00  0.00    -0.086 HD
ATOM     14  H   UNL     1      -4.164  -9.181  -1.032  0.00  0.00    -0.086 HD
ENDROOT
BRANCH   1  18
ATOM     15  C   UNL     1       1.692  -1.868   3.869  0.00  0.00    +0.067 C 
ATOM     16  C   UNL     1       1.189  -2.171   2.481  0.00  0.00    +0.061 A 
ATOM     17  C   UNL     1       0.763  -3.417   2.015  0.00  0.00    +0.057 A 
ATOM     18  C   UNL     1       0.396  -3.209   0.697  0.00  0.00    +0.124 A 
ATOM     19  N   UNL     1       0.615  -1.885   0.444  0.00  0.00    -0.254 N 
ATOM     20  N   UNL     1       1.069  -1.313   1.501  0.00  0.00    -0.175 NA
BRANCH  19  21
ATOM     21  C   UNL     1       0.364  -1.216  -0.835  0.00  0.00    +0.056 C 
ATOM     22  C   UNL     1      -1.087  -1.453  -1.258  0.00  0.00    +0.036 C 
ATOM     23  C   UNL     1       0.612   0.286  -0.684  0.00  0.00    +0.036 C 
ATOM     24  C   UNL     1       1.304  -1.784  -1.900  0.00  0.00    +0.036 C 
ENDBRANCH  19  21
ENDBRANCH   1  18
BRANCH   5  25
ATOM     25  C   UNL     1      -2.887  -6.081   2.194  0.00  0.00    +0.218 C 
ATOM     26  O   UNL     1      -2.993  -4.896   1.956  0.00  0.00    -0.275 OA
ATOM     27  N   UNL     1      -3.828  -6.708   2.927  0.00  0.00    -0.313 N 
ATOM     28  H   UNL     1      -3.706  -7.636   3.182  0.00  0.00    +0.149 HD
BRANCH  27  29
ATOM     29  C   UNL     1      -5.036  -5.989   3.340  0.00  0.00    +0.127 C 
BRANCH  29  30
ATOM     30  C   UNL     1      -5.933  -6.923   4.154  0.00  0.00    +0.104 C 
BRANCH  30  31
ATOM     31  C   UNL     1      -7.228  -6.222   4.474  0.00  0.00    -0.029 A 
ATOM     32  C   UNL     1      -7.709  -6.216   5.770  0.00  0.00    +0.005 A 
ATOM     33  C   UNL     1      -8.897  -5.574   6.064  0.00  0.00    +0.000 A 
ATOM     34  C   UNL     1      -9.605  -4.937   5.061  0.00  0.00    +0.000 A 
ATOM     35  C   UNL     1      -9.123  -4.943   3.765  0.00  0.00    +0.000 A 
ATOM     36  C   UNL     1      -7.933  -5.581   3.473  0.00  0.00    +0.005 A 
ENDBRANCH  30  31
BRANCH  30  37
ATOM     37  N   UNL     1      -6.211  -8.136   3.376  0.00  0.00    -0.290 NA
ATOM     38  C   UNL     1      -6.942  -7.814   2.141  0.00  0.00    +0.113 C 
ATOM     39  C   UNL     1      -7.159  -9.097   1.334  0.00  0.00    +0.175 C 
ATOM     40  O   UNL     1      -7.854 -10.051   2.141  0.00  0.00    -0.377 OA
ATOM     41  C   UNL     1      -7.170 -10.388   3.351  0.00  0.00    +0.175 C 
ATOM     42  C   UNL     1      -6.953  -9.119   4.179  0.00  0.00    +0.113 C 
ENDBRANCH  30  37
ENDBRANCH  29  30
ENDBRANCH  27  29
ENDBRANCH   5  25
TORSDOF 7
