REMARK  Name = ZINC09664827
REMARK  5 active torsions:
REMARK  status: ('A' for Active; 'I' for Inactive)
REMARK    1  A    between atoms: C_7  and  C_11
REMARK    2  A    between atoms: C_14  and  S_16
REMARK    3  A    between atoms: S_16  and  C_17
REMARK    4  A    between atoms: C_17  and  C_18
REMARK    5  A    between atoms: C_24  and  C_26
REMARK                            x       y       z     vdW  Elec       q    Type
REMARK                         _______ _______ _______ _____ _____    ______ ____
ROOT
ATOM      1  C   UNL     1      -0.362   5.860  -5.598  0.00  0.00    +0.226 C 
ATOM      2  O   UNL     1      -1.194   4.990  -5.441  0.00  0.00    -0.275 OA
ATOM      3  N   UNL     1       0.898   5.675  -5.158  0.00  0.00    -0.294 N 
ATOM      4  C   UNL     1       2.002   6.643  -5.282  0.00  0.00    +0.108 C 
ATOM      5  C   UNL     1       3.291   5.785  -5.224  0.00  0.00    +0.021 C 
ATOM      6  C   UNL     1       2.897   4.702  -4.185  0.00  0.00    +0.029 C 
ATOM      7  C   UNL     1       1.399   4.473  -4.474  0.00  0.00    +0.106 C 
ENDROOT
BRANCH   7   8
ATOM      8  C   UNL     1       0.652   4.270  -3.181  0.00  0.00    -0.023 A 
ATOM      9  C   UNL     1       0.297   5.363  -2.412  0.00  0.00    +0.009 A 
ATOM     10  C   UNL     1      -0.389   5.184  -1.223  0.00  0.00    +0.050 A 
ATOM     11  C   UNL     1      -0.718   3.906  -0.807  0.00  0.00    +0.162 A 
ATOM     12  C   UNL     1      -0.362   2.809  -1.579  0.00  0.00    +0.162 A 
ATOM     13  C   UNL     1       0.325   2.991  -2.767  0.00  0.00    +0.055 A 
ATOM     14  O   UNL     1      -0.692   1.553  -1.159  0.00  0.00    -0.488 OA
ATOM     15  C   UNL     1      -0.013   1.086   0.008  0.00  0.00    +0.232 C 
ATOM     16  C   UNL     1      -0.712   1.570   1.269  0.00  0.00    +0.082 C 
ATOM     17  C   UNL     1      -0.662   3.083   1.413  0.00  0.00    +0.232 C 
ATOM     18  O   UNL     1      -1.395   3.716   0.363  0.00  0.00    -0.488 OA
ENDBRANCH   7   8
BRANCH   1  19
ATOM     19  C   UNL     1      -0.739   7.147  -6.285  0.00  0.00    +0.174 C 
BRANCH  19  20
ATOM     20  S   UNL     1      -2.486   7.091  -6.754  0.00  0.00    -0.056 S 
BRANCH  20  24
ATOM     21  C   UNL     1      -3.443  10.411  -8.521  0.00  0.00    +0.251 A 
ATOM     22  N   UNL     1      -2.175  10.605  -8.250  0.00  0.00    -0.106 NA
ATOM     23  N   UNL     1      -1.704   9.572  -7.645  0.00  0.00    -0.101 NA
ATOM     24  C   UNL     1      -2.650   8.673  -7.514  0.00  0.00    +0.278 A 
ATOM     25  O   UNL     1      -3.771   9.183  -8.061  0.00  0.00    -0.411 OA
BRANCH  21  32
ATOM     26  C   UNL     1      -2.828  14.699 -10.280  0.00  0.00    +0.001 A 
ATOM     27  C   UNL     1      -3.986  15.217 -10.842  0.00  0.00    +0.002 A 
ATOM     28  C   UNL     1      -5.154  14.486 -10.843  0.00  0.00    +0.026 A 
ATOM     29  C   UNL     1      -5.174  13.215 -10.275  0.00  0.00    +0.047 A 
ATOM     30  C   UNL     1      -3.998  12.697  -9.708  0.00  0.00    +0.012 A 
ATOM     31  C   UNL     1      -2.827  13.453  -9.718  0.00  0.00    +0.011 A 
ATOM     32  C   UNL     1      -4.346  11.358  -9.204  0.00  0.00    +0.063 A 
ATOM     33  C   UNL     1      -5.659  11.162  -9.494  0.00  0.00    +0.097 A 
ATOM     34  N   UNL     1      -6.159  12.263 -10.125  0.00  0.00    -0.360 N 
ATOM     35  H   UNL     1      -7.075  12.360 -10.428  0.00  0.00    +0.165 HD
ENDBRANCH  21  32
ENDBRANCH  20  24
ENDBRANCH  19  20
ENDBRANCH   1  19
TORSDOF 5
