REMARK  Name = ZINC40729809
REMARK  5 active torsions:
REMARK  status: ('A' for Active; 'I' for Inactive)
REMARK    1  A    between atoms: C_4  and  C_7
REMARK    2  A    between atoms: C_7  and  C_8
REMARK    3  A    between atoms: C_7  and  N_14
REMARK    4  A    between atoms: C_21  and  N_34
REMARK    5  A    between atoms: C_22  and  N_26
REMARK                            x       y       z     vdW  Elec       q    Type
REMARK                         _______ _______ _______ _____ _____    ______ ____
ROOT
ATOM      1  N   UNL     1       3.638  -1.931  -0.937  0.00  0.00    -0.289 NA
ATOM      2  C   UNL     1       3.211  -1.515  -2.280  0.00  0.00    +0.104 C 
ATOM      3  C   UNL     1       2.942  -2.758  -3.135  0.00  0.00    +0.122 C 
ATOM      4  N   UNL     1       4.136  -3.616  -3.100  0.00  0.00    -0.311 N 
ATOM      5  C   UNL     1       4.705  -3.964  -1.789  0.00  0.00    +0.122 C 
ATOM      6  C   UNL     1       4.904  -2.673  -0.987  0.00  0.00    +0.104 C 
ATOM      7  C   UNL     1       4.710  -4.086  -4.274  0.00  0.00    +0.147 A 
ATOM      8  C   UNL     1       4.375  -5.347  -4.773  0.00  0.00    +0.106 A 
ATOM      9  C   UNL     1       4.981  -5.771  -5.956  0.00  0.00    +0.150 A 
ATOM     10  N   UNL     1       5.849  -4.963  -6.561  0.00  0.00    -0.219 NA
ATOM     11  C   UNL     1       6.138  -3.780  -6.057  0.00  0.00    +0.225 A 
ATOM     12  N   UNL     1       5.585  -3.340  -4.945  0.00  0.00    -0.219 NA
ENDROOT
BRANCH   9  13
ATOM     13  N   UNL     1       4.683  -7.018  -6.496  0.00  0.00    -0.283 N 
ATOM     14  C   UNL     1       5.373  -7.475  -7.614  0.00  0.00    +0.124 A 
ATOM     15  C   UNL     1       5.148  -8.765  -8.083  0.00  0.00    +0.045 A 
ATOM     16  C   UNL     1       5.840  -9.207  -9.196  0.00  0.00    +0.020 A 
ATOM     17  C   UNL     1       6.739  -8.340  -9.806  0.00  0.00    +0.036 A 
ATOM     18  C   UNL     1       6.912  -7.072  -9.287  0.00  0.00    +0.128 A 
ATOM     19  N   UNL     1       6.234  -6.676  -8.226  0.00  0.00    -0.239 NA
ATOM     20 BR   UNL     1       7.713  -8.890 -11.330  0.00  0.00    -0.049 Br
ATOM     21  H   UNL     1       3.994  -7.569  -6.092  0.00  0.00    +0.155 HD
ENDBRANCH   9  13
BRANCH   8  22
ATOM     22  N   UNL     1       3.454  -6.167  -4.101  0.00  0.00    -0.353 N 
ATOM     23  H   UNL     1       2.985  -5.831  -3.321  0.00  0.00    +0.143 HD
ATOM     24  H   UNL     1       3.286  -7.068  -4.417  0.00  0.00    +0.143 HD
ENDBRANCH   8  22
BRANCH   1  25
ATOM     25  C   UNL     1       3.740  -0.775  -0.036  0.00  0.00    +0.117 C 
BRANCH  25  29
ATOM     26  C   UNL     1       0.013   1.310   0.033  0.00  0.00    +0.000 A 
ATOM     27  C   UNL     1       1.200   2.017   0.027  0.00  0.00    +0.000 A 
ATOM     28  C   UNL     1       2.407   1.342   0.004  0.00  0.00    +0.005 A 
ATOM     29  C   UNL     1       2.425  -0.040  -0.011  0.00  0.00    -0.026 A 
ATOM     30  C   UNL     1       1.238  -0.747  -0.003  0.00  0.00    +0.005 A 
ATOM     31  C   UNL     1       0.032  -0.072   0.018  0.00  0.00    +0.000 A 
ENDBRANCH  25  29
BRANCH  25  32
ATOM     32  C   UNL     1       4.077  -1.251   1.354  0.00  0.00    -0.026 A 
ATOM     33  C   UNL     1       3.490  -2.399   1.853  0.00  0.00    +0.005 A 
ATOM     34  C   UNL     1       3.798  -2.835   3.128  0.00  0.00    +0.000 A 
ATOM     35  C   UNL     1       4.694  -2.124   3.904  0.00  0.00    +0.000 A 
ATOM     36  C   UNL     1       5.282  -0.976   3.405  0.00  0.00    +0.000 A 
ATOM     37  C   UNL     1       4.977  -0.542   2.128  0.00  0.00    +0.005 A 
ENDBRANCH  25  32
ENDBRANCH   1  25
TORSDOF 5
