REMARK  Name = ZINC24267998
REMARK  9 active torsions:
REMARK  status: ('A' for Active; 'I' for Inactive)
REMARK    1  A    between atoms: C_1  and  C_2
REMARK    2  A    between atoms: C_2  and  C_3
REMARK    3  A    between atoms: C_2  and  C_4
REMARK    4  A    between atoms: C_4  and  C_6
REMARK    5  A    between atoms: C_4  and  S_12
REMARK    6  A    between atoms: S_12  and  C_13
REMARK    7  A    between atoms: C_17  and  C_26
REMARK    8  A    between atoms: N_22  and  C_23
REMARK    9  A    between atoms: C_23  and  C_24
REMARK                            x       y       z     vdW  Elec       q    Type
REMARK                         _______ _______ _______ _____ _____    ______ ____
ROOT
ATOM      1  C   UNL     1      -5.072   0.693   0.572  0.00  0.00    +0.173 A 
ATOM      2  N   UNL     1      -4.817  -0.527   0.184  0.00  0.00    -0.222 NA
ATOM      3  C   UNL     1      -5.804  -1.475   0.080  0.00  0.00    +0.087 A 
ATOM      4  C   UNL     1      -5.685  -2.811  -0.318  0.00  0.00    +0.044 A 
ATOM      5  C   UNL     1      -6.789  -3.609  -0.360  0.00  0.00    +0.022 A 
ATOM      6  S   UNL     1      -8.090  -2.507   0.169  0.00  0.00    -0.081 S 
ATOM      7  C   UNL     1      -7.104  -1.054   0.416  0.00  0.00    +0.103 A 
ATOM      8  C   UNL     1      -7.363   0.251   0.829  0.00  0.00    +0.269 A 
ATOM      9  O   UNL     1      -8.495   0.603   1.117  0.00  0.00    -0.266 OA
ATOM     10  N   UNL     1      -6.326   1.118   0.907  0.00  0.00    -0.283 N 
ENDROOT
BRANCH   5  11
ATOM     11  C   UNL     1      -6.885  -5.033  -0.747  0.00  0.00    -0.011 A 
ATOM     12  C   UNL     1      -5.743  -5.731  -1.141  0.00  0.00    +0.009 A 
ATOM     13  C   UNL     1      -5.838  -7.061  -1.496  0.00  0.00    +0.001 A 
ATOM     14  C   UNL     1      -7.065  -7.700  -1.472  0.00  0.00    +0.000 A 
ATOM     15  C   UNL     1      -8.203  -7.012  -1.088  0.00  0.00    +0.001 A 
ATOM     16  C   UNL     1      -8.120  -5.683  -0.726  0.00  0.00    +0.009 A 
ENDBRANCH   5  11
BRANCH   1  17
ATOM     17  S   UNL     1      -3.739   1.840   0.675  0.00  0.00    -0.075 S 
BRANCH  17  18
ATOM     18  C   UNL     1      -2.389   0.811   0.046  0.00  0.00    +0.143 C 
BRANCH  18  19
ATOM     19  C   UNL     1      -2.090  -0.285   1.036  0.00  0.00    +0.234 C 
ATOM     20  O   UNL     1      -2.441  -0.171   2.191  0.00  0.00    -0.274 OA
ATOM     21  N   UNL     1      -1.431  -1.391   0.639  0.00  0.00    -0.239 N 
ATOM     22  C   UNL     1      -1.158  -2.368   1.526  0.00  0.00    +0.303 C 
ATOM     23  O   UNL     1      -1.510  -2.254   2.683  0.00  0.00    -0.253 OA
ATOM     24  N   UNL     1      -0.494  -3.472   1.129  0.00  0.00    -0.313 N 
ATOM     25  H   UNL     1      -1.115  -1.496  -0.410  0.00  0.00    +0.159 HD
ATOM     26  H   UNL     1      -0.271  -4.270   1.854  0.00  0.00    +0.146 HD
ATOM     27  H   UNL     1      -0.175  -3.575   0.082  0.00  0.00    +0.146 HD
ENDBRANCH  18  19
BRANCH  18  29
ATOM     28  C   UNL     1       0.003   0.800  -0.675  0.00  0.00    +0.009 C 
ATOM     29  C   UNL     1      -1.141   1.673  -0.154  0.00  0.00    +0.005 C 
ATOM     30  C   UNL     1      -1.442   2.778  -1.168  0.00  0.00    +0.009 C 
ENDBRANCH  18  29
ENDBRANCH  17  18
ENDBRANCH   1  17
BRANCH  10  31
ATOM     31  C   UNL     1      -6.548   2.500   1.340  0.00  0.00    +0.154 C 
BRANCH  31  32
ATOM     32  C   UNL     1      -6.853   3.360   0.141  0.00  0.00    -0.013 C 
ATOM     33  C   UNL     1      -7.949   4.076   0.110  0.00  0.00    +0.005 C 
ENDBRANCH  31  32
ENDBRANCH  10  31
TORSDOF 7
