REMARK  Name = ZINC20881585
REMARK  5 active torsions:
REMARK  status: ('A' for Active; 'I' for Inactive)
REMARK    1  A    between atoms: C_1  and  O_2
REMARK    2  A    between atoms: O_2  and  C_3
REMARK    3  A    between atoms: C_6  and  C_9
REMARK    4  A    between atoms: C_14  and  C_24
REMARK    5  A    between atoms: C_29  and  O_30
REMARK                            x       y       z     vdW  Elec       q    Type
REMARK                         _______ _______ _______ _____ _____    ______ ____
ROOT
ATOM      1  C   UNL     1      -0.983   7.235  -3.725  0.00  0.00    +0.032 C 
ATOM      2  C   UNL     1       0.484   6.844  -3.560  0.00  0.00    +0.059 C 
ATOM      3  C   UNL     1       0.753   6.444  -2.118  0.00  0.00    +0.017 C 
ATOM      4  C   UNL     1      -0.200   5.836  -1.393  0.00  0.00    +0.037 C 
ATOM      5  C   UNL     1      -0.057   5.351   0.030  0.00  0.00    +0.139 C 
ATOM      6  N   UNL     1       1.136   5.818   0.704  0.00  0.00    -0.331 N 
ATOM      7  C   UNL     1       2.405   5.440   0.270  0.00  0.00    +0.049 A 
ATOM      8  C   UNL     1       3.213   4.612   1.033  0.00  0.00    +0.025 A 
ATOM      9  C   UNL     1       4.421   4.176   0.516  0.00  0.00    +0.002 A 
ATOM     10  C   UNL     1       4.820   4.562  -0.751  0.00  0.00    +0.002 A 
ATOM     11  C   UNL     1       4.025   5.406  -1.507  0.00  0.00    +0.025 A 
ATOM     12  C   UNL     1       2.825   5.856  -0.985  0.00  0.00    +0.052 A 
ATOM     13  N   UNL     1       2.000   6.740  -1.672  0.00  0.00    -0.316 N 
ATOM     14  C   UNL     1      -1.478   5.599  -1.952  0.00  0.00    +0.163 C 
ATOM     15  O   UNL     1      -2.317   5.035  -1.276  0.00  0.00    -0.292 OA
ATOM     16  C   UNL     1      -1.836   6.018  -3.346  0.00  0.00    +0.088 C 
ATOM     17  H   UNL     1       1.050   6.484   1.576  0.00  0.00    +0.147 HD
ATOM     18  H   UNL     1       2.425   7.739  -1.847  0.00  0.00    +0.152 HD
ENDROOT
BRANCH   1  22
ATOM     19  C   UNL     1      -1.742   8.324  -7.787  0.00  0.00    +0.120 A 
ATOM     20  C   UNL     1      -1.956   9.243  -6.770  0.00  0.00    +0.046 A 
ATOM     21  C   UNL     1      -1.710   8.888  -5.458  0.00  0.00    +0.007 A 
ATOM     22  C   UNL     1      -1.251   7.619  -5.158  0.00  0.00    -0.043 A 
ATOM     23  C   UNL     1      -1.032   6.703  -6.170  0.00  0.00    +0.007 A 
ATOM     24  C   UNL     1      -1.282   7.051  -7.484  0.00  0.00    +0.046 A 
BRANCH  19  26
ATOM     25  C   UNL     1      -1.742   7.674 -10.074  0.00  0.00    +0.277 C 
ATOM     26  O   UNL     1      -1.984   8.670  -9.079  0.00  0.00    -0.495 OA
ENDBRANCH  19  26
ENDBRANCH   1  22
BRANCH   5  27
ATOM     27  C   UNL     1      -0.042   3.844   0.022  0.00  0.00    +0.019 A 
ATOM     28  C   UNL     1       0.205   3.161  -1.153  0.00  0.00    +0.009 A 
ATOM     29  C   UNL     1       0.219   1.778  -1.160  0.00  0.00    +0.001 A 
ATOM     30  C   UNL     1      -0.015   1.076   0.007  0.00  0.00    +0.004 A 
ATOM     31  C   UNL     1      -0.269   1.754   1.184  0.00  0.00    +0.046 A 
ATOM     32  C   UNL     1      -0.277   3.141   1.195  0.00  0.00    +0.122 A 
BRANCH  32  33
ATOM     33  O   UNL     1      -0.521   3.811   2.352  0.00  0.00    -0.506 OA
ATOM     34  H   UNL     1      -0.707   3.253   3.282  0.00  0.00    +0.292 HD
ENDBRANCH  32  33
ENDBRANCH   5  27
TORSDOF 4
