REMARK  Name = ZINC15970075
REMARK  6 active torsions:
REMARK  status: ('A' for Active; 'I' for Inactive)
REMARK    1  A    between atoms: C_1  and  O_2
REMARK    2  A    between atoms: O_2  and  C_3
REMARK    3  A    between atoms: C_3  and  C_4
REMARK    4  A    between atoms: C_4  and  N_5
REMARK    5  A    between atoms: C_10  and  C_28
REMARK    6  A    between atoms: C_28  and  C_29
REMARK                            x       y       z     vdW  Elec       q    Type
REMARK                         _______ _______ _______ _____ _____    ______ ____
ROOT
ATOM      1  N   UNL     1      -0.515  -2.565   1.245  0.00  0.00    -0.239 N 
ATOM      2  C   UNL     1       0.811  -2.680   1.376  0.00  0.00    +0.227 C 
ATOM      3  O   UNL     1       1.624  -2.444   0.508  0.00  0.00    -0.275 OA
ATOM      4  C   UNL     1       1.139  -3.148   2.775  0.00  0.00    +0.107 C 
ATOM      5  C   UNL     1       1.723  -4.575   2.712  0.00  0.00    +0.072 C 
ATOM      6  N   UNL     1       0.539  -5.474   2.742  0.00  0.00    -0.295 NA
ATOM      7  C   UNL     1      -0.384  -4.824   3.690  0.00  0.00    +0.136 C 
ATOM      8  C   UNL     1      -0.258  -3.300   3.440  0.00  0.00    +0.122 C 
ATOM      9  C   UNL     1      -1.211  -2.879   2.344  0.00  0.00    +0.228 C 
ATOM     10  O   UNL     1      -2.419  -2.835   2.445  0.00  0.00    -0.275 OA
ATOM     11  C   UNL     1      -0.050  -5.173   5.112  0.00  0.00    +0.005 A 
ATOM     12  C   UNL     1       1.073  -5.005   5.891  0.00  0.00    +0.027 A 
ATOM     13  C   UNL     1       1.078  -5.443   7.204  0.00  0.00    +0.041 A 
ATOM     14  C   UNL     1      -0.049  -6.049   7.731  0.00  0.00    +0.022 A 
ATOM     15  C   UNL     1      -1.176  -6.218   6.955  0.00  0.00    +0.025 A 
ATOM     16  C   UNL     1      -1.189  -5.781   5.632  0.00  0.00    +0.039 A 
ATOM     17  N   UNL     1      -2.192  -5.839   4.662  0.00  0.00    -0.283 N 
ATOM     18  C   UNL     1      -1.798  -5.298   3.492  0.00  0.00    +0.243 C 
ATOM     19  O   UNL     1      -2.456  -5.210   2.477  0.00  0.00    -0.273 OA
ATOM     20 CL   UNL     1       2.494  -5.233   8.187  0.00  0.00    -0.084 Cl
ATOM     21  H   UNL     1       0.122  -5.552   1.826  0.00  0.00    +0.124 HD
ATOM     22  H   UNL     1      -3.069  -6.223   4.812  0.00  0.00    +0.155 HD
ENDROOT
BRANCH   1  23
ATOM     23  C   UNL     1      -1.154  -2.126   0.002  0.00  0.00    +0.144 C 
BRANCH  23  24
ATOM     24  C   UNL     1      -1.295  -0.603   0.011  0.00  0.00    +0.179 C 
BRANCH  24  26
ATOM     25  C   UNL     1      -0.017   1.425   0.010  0.00  0.00    +0.194 C 
ATOM     26  O   UNL     1       0.002  -0.004   0.002  0.00  0.00    -0.381 OA
ENDBRANCH  24  26
ENDBRANCH  23  24
ENDBRANCH   1  23
BRANCH   5  27
ATOM     27  C   UNL     1       2.511  -4.771   1.416  0.00  0.00    +0.056 C 
BRANCH  27  28
ATOM     28  C   UNL     1       3.174  -6.124   1.430  0.00  0.00    -0.021 A 
ATOM     29  C   UNL     1       4.429  -6.394   1.822  0.00  0.00    +0.087 A 
ATOM     30  N   UNL     1       4.679  -7.734   1.695  0.00  0.00    -0.360 N 
ATOM     31  H   UNL     1       5.518  -8.167   1.917  0.00  0.00    +0.165 HD
ATOM     32  C   UNL     1       3.563  -8.374   1.207  0.00  0.00    +0.047 A 
ATOM     33  C   UNL     1       2.569  -7.395   1.026  0.00  0.00    +0.003 A 
ATOM     34  C   UNL     1       1.312  -7.760   0.540  0.00  0.00    +0.010 A 
ATOM     35  C   UNL     1       1.052  -9.069   0.247  0.00  0.00    +0.001 A 
ATOM     36  C   UNL     1       2.027 -10.039   0.428  0.00  0.00    +0.002 A 
ATOM     37  C   UNL     1       3.278  -9.700   0.897  0.00  0.00    +0.026 A 
ENDBRANCH  27  28
ENDBRANCH   5  27
TORSDOF 5
