REMARK  Name = ZINC13071512
REMARK  7 active torsions:
REMARK  status: ('A' for Active; 'I' for Inactive)
REMARK    1  A    between atoms: C_1  and  N_53
REMARK    2  A    between atoms: C_2  and  C_3
REMARK    3  A    between atoms: C_2  and  N_53
REMARK    4  A    between atoms: C_11  and  N_12
REMARK    5  A    between atoms: C_11  and  N_53
REMARK    6  A    between atoms: N_15  and  C_27
REMARK    7  A    between atoms: C_16  and  C_18
REMARK                            x       y       z     vdW  Elec       q    Type
REMARK                         _______ _______ _______ _____ _____    ______ ____
ROOT
ATOM      1  N   UNL     1      -1.002   3.222   0.249  0.00  0.00    -0.257 N 
ATOM      2  C   UNL     1      -1.508   1.974   0.171  0.00  0.00    +0.181 A 
ATOM      3  S   UNL     1      -3.168   1.555   0.175  0.00  0.00    -0.011 S 
ATOM      4  N   UNL     1      -0.471   1.117   0.092  0.00  0.00    -0.271 N 
ATOM      5  C   UNL     1       0.700   1.850   0.113  0.00  0.00    +0.167 A 
ATOM      6  N   UNL     1       0.395   3.115   0.207  0.00  0.00    -0.152 NA
ENDROOT
BRANCH   5   7
ATOM      7  C   UNL     1       2.069   1.295   0.041  0.00  0.00    +0.023 A 
ATOM      8  C   UNL     1       3.140   2.118  -0.308  0.00  0.00    +0.015 A 
ATOM      9  C   UNL     1       4.416   1.599  -0.376  0.00  0.00    +0.050 A 
ATOM     10  C   UNL     1       4.640   0.259  -0.096  0.00  0.00    +0.166 A 
ATOM     11  C   UNL     1       3.574  -0.569   0.255  0.00  0.00    +0.167 A 
ATOM     12  C   UNL     1       2.293  -0.052   0.328  0.00  0.00    +0.061 A 
ATOM     13  O   UNL     1       4.054  -1.827   0.478  0.00  0.00    -0.453 OA
ATOM     14  C   UNL     1       5.473  -1.670   0.660  0.00  0.00    +0.466 C 
ATOM     15  O   UNL     1       5.786  -0.483  -0.091  0.00  0.00    -0.453 OA
ENDBRANCH   5   7
BRANCH   4  16
ATOM     16  C   UNL     1      -0.565  -0.278  -0.002  0.00  0.00    +0.050 A 
ATOM     17  C   UNL     1      -0.200  -0.922  -1.177  0.00  0.00    +0.026 A 
ATOM     18  C   UNL     1      -0.289  -2.298  -1.264  0.00  0.00    +0.002 A 
ATOM     19  C   UNL     1      -0.750  -3.032  -0.187  0.00  0.00    +0.000 A 
ATOM     20  C   UNL     1      -1.118  -2.393   0.982  0.00  0.00    +0.002 A 
ATOM     21  C   UNL     1      -1.027  -1.018   1.078  0.00  0.00    +0.026 A 
ENDBRANCH   4  16
BRANCH   1  22
ATOM     22  C   UNL     1      -1.772   4.464   0.353  0.00  0.00    +0.072 C 
BRANCH  22  24
ATOM     23  C   UNL     1      -0.830   5.383  -1.679  0.00  0.00    -0.093 C 
ATOM     24  N   UNL     1      -2.075   4.952  -1.009  0.00  0.00    +0.394 N 
ATOM     25  H   UNL     1      -2.498   4.190  -1.550  0.00  0.00    -0.079 HD
BRANCH  24  26
ATOM     26  C   UNL     1      -3.028   6.080  -0.941  0.00  0.00    -0.039 C 
BRANCH  26  27
ATOM     27  C   UNL     1      -3.591   6.322  -2.318  0.00  0.00    -0.045 A 
ATOM     28  C   UNL     1      -3.144   7.393  -3.069  0.00  0.00    +0.004 A 
ATOM     29  C   UNL     1      -3.660   7.615  -4.332  0.00  0.00    +0.020 A 
ATOM     30  C   UNL     1      -4.624   6.765  -4.845  0.00  0.00    +0.042 A 
ATOM     31  C   UNL     1      -5.071   5.693  -4.094  0.00  0.00    +0.040 A 
ATOM     32  C   UNL     1      -4.551   5.468  -2.832  0.00  0.00    +0.044 A 
ATOM     33 CL   UNL     1      -5.107   4.120  -1.891  0.00  0.00    -0.083 Cl
ATOM     34 CL   UNL     1      -5.272   7.044  -6.431  0.00  0.00    -0.083 Cl
ENDBRANCH  26  27
ENDBRANCH  24  26
ENDBRANCH  22  24
ENDBRANCH   1  22
TORSDOF 6
