REMARK  Name = ZINC08790758
REMARK  4 active torsions:
REMARK  status: ('A' for Active; 'I' for Inactive)
REMARK    1  A    between atoms: C_1  and  C_2
REMARK    2  A    between atoms: C_16  and  C_18
REMARK    3  A    between atoms: C_18  and  C_19
REMARK    4  A    between atoms: N_31  and  C_34
REMARK                            x       y       z     vdW  Elec       q    Type
REMARK                         _______ _______ _______ _____ _____    ______ ____
ROOT
ATOM      1  C   UNL     1      -4.406  -1.043   3.999  0.00  0.00    +0.046 C 
ATOM      2  C   UNL     1      -3.037  -0.561   3.593  0.00  0.00    -0.028 A 
ATOM      3  C   UNL     1      -1.915  -1.253   4.001  0.00  0.00    +0.025 A 
ATOM      4  C   UNL     1      -0.654  -0.818   3.634  0.00  0.00    +0.042 A 
ATOM      5  C   UNL     1      -0.518   0.317   2.852  0.00  0.00    +0.024 A 
ATOM      6  C   UNL     1      -1.635   1.010   2.443  0.00  0.00    -0.026 A 
ATOM      7  C   UNL     1      -2.909   0.582   2.807  0.00  0.00    +0.039 A 
ATOM      8  N   UNL     1      -3.876   1.439   2.279  0.00  0.00    -0.286 N 
ATOM      9  C   UNL     1      -3.330   2.443   1.566  0.00  0.00    +0.211 C 
ATOM     10  O   UNL     1      -3.925   3.334   0.997  0.00  0.00    -0.277 OA
ATOM     11  C   UNL     1      -1.840   2.246   1.614  0.00  0.00    +0.050 C 
ATOM     12  C   UNL     1      -1.253   2.081   0.184  0.00  0.00    +0.088 C 
ATOM     13  C   UNL     1      -0.706   3.496  -0.152  0.00  0.00    +0.074 C 
ATOM     14  C   UNL     1      -1.032   4.372   1.077  0.00  0.00    -0.053 C 
ATOM     15  C   UNL     1       0.788   3.283  -0.232  0.00  0.00    +0.228 C 
ATOM     16  O   UNL     1       1.607   4.145  -0.470  0.00  0.00    -0.275 OA
ATOM     17  N   UNL     1       1.067   1.996   0.003  0.00  0.00    -0.210 N 
ATOM     18  C   UNL     1      -0.003   1.232   0.248  0.00  0.00    +0.229 C 
ATOM     19  O   UNL     1       0.024   0.042   0.481  0.00  0.00    -0.275 OA
ATOM     20 CL   UNL     1       0.753  -1.693   4.151  0.00  0.00    -0.084 Cl
ATOM     21  H   UNL     1      -4.831   1.325   2.410  0.00  0.00    +0.155 HD
ATOM     22  N   UNL     1      -1.171   3.409   2.172  0.00  0.00    +0.394 N 
ATOM     23  H   UNL     1      -0.247   3.148   2.534  0.00  0.00    -0.083 HD
ATOM     24  H   UNL     1      -1.734   3.813   2.929  0.00  0.00    -0.083 HD
ENDROOT
BRANCH  17  25
ATOM     25  C   UNL     1       2.374   1.489  -0.008  0.00  0.00    +0.044 A 
ATOM     26  C   UNL     1       3.281   1.882   0.967  0.00  0.00    +0.024 A 
ATOM     27  C   UNL     1       4.566   1.377   0.957  0.00  0.00    +0.002 A 
ATOM     28  C   UNL     1       4.954   0.488  -0.029  0.00  0.00    +0.000 A 
ATOM     29  C   UNL     1       4.055   0.099  -1.005  0.00  0.00    +0.002 A 
ATOM     30  C   UNL     1       2.766   0.597  -0.997  0.00  0.00    +0.024 A 
ENDBRANCH  17  25
BRANCH  14  31
ATOM     31  C   UNL     1       0.104   5.362   1.341  0.00  0.00    +0.022 C 
BRANCH  31  32
ATOM     32  C   UNL     1      -0.287   6.286   2.465  0.00  0.00    -0.024 A 
ATOM     33  C   UNL     1      -0.840   7.503   2.342  0.00  0.00    +0.087 A 
ATOM     34  N   UNL     1      -1.056   8.045   3.580  0.00  0.00    -0.360 N 
ATOM     35  H   UNL     1      -1.447   8.917   3.746  0.00  0.00    +0.165 HD
ATOM     36  C   UNL     1      -0.636   7.168   4.555  0.00  0.00    +0.047 A 
ATOM     37  C   UNL     1      -0.141   6.025   3.899  0.00  0.00    +0.003 A 
ATOM     38  C   UNL     1       0.366   4.960   4.645  0.00  0.00    +0.010 A 
ATOM     39  C   UNL     1       0.367   5.027   6.010  0.00  0.00    +0.001 A 
ATOM     40  C   UNL     1      -0.125   6.149   6.661  0.00  0.00    +0.002 A 
ATOM     41  C   UNL     1      -0.624   7.215   5.945  0.00  0.00    +0.026 A 
ENDBRANCH  31  32
ENDBRANCH  14  31
TORSDOF 3
