REMARK  Name = ZINC26725340
REMARK  4 active torsions:
REMARK  status: ('A' for Active; 'I' for Inactive)
REMARK    1  A    between atoms: C_3  and  N_11
REMARK    2  A    between atoms: C_6  and  N_7
REMARK    3  A    between atoms: C_12  and  C_14
REMARK    4  A    between atoms: C_14  and  N_15
REMARK                            x       y       z     vdW  Elec       q    Type
REMARK                         _______ _______ _______ _____ _____    ______ ____
ROOT
ATOM      1  N   UNL     1      -0.340  -2.671   3.054  0.00  0.00    -0.283 N 
ATOM      2  C   UNL     1      -0.678  -1.692   2.192  0.00  0.00    +0.235 C 
ATOM      3  O   UNL     1      -0.713  -0.539   2.566  0.00  0.00    -0.274 OA
ATOM      4  H   UNL     1      -0.217  -3.703   2.694  0.00  0.00    +0.155 HD
ENDROOT
BRANCH   1   7
ATOM      5  C   UNL     1      -0.555  -0.966   6.305  0.00  0.00    +0.034 A 
ATOM      6  C   UNL     1      -0.749  -1.256   4.968  0.00  0.00    +0.026 A 
ATOM      7  C   UNL     1      -0.147  -2.374   4.408  0.00  0.00    +0.048 A 
ATOM      8  C   UNL     1       0.644  -3.201   5.196  0.00  0.00    +0.041 A 
ATOM      9  C   UNL     1       0.838  -2.903   6.531  0.00  0.00    +0.049 A 
ATOM     10  C   UNL     1       0.236  -1.788   7.086  0.00  0.00    +0.127 A 
ATOM     11 BR   UNL     1       1.461  -4.731   4.440  0.00  0.00    -0.048 Br
BRANCH  10  12
ATOM     12  N   UNL     1       0.440  -1.474   8.518  0.00  0.00    +0.056 N 
ATOM     13  O   UNL     1      -0.089  -0.492   9.008  0.00  0.00    -0.126 OA
ATOM     14  O   UNL     1       1.137  -2.197   9.206  0.00  0.00    -0.126 OA
ENDBRANCH  10  12
ENDBRANCH   1   7
BRANCH   2  15
ATOM     15  C   UNL     1      -1.012  -2.030   0.761  0.00  0.00    +0.201 C 
BRANCH  15  16
ATOM     16  N   UNL     1      -1.118  -0.792  -0.022  0.00  0.00    -0.319 N 
ATOM     17  C   UNL     1       0.040   0.074   0.205  0.00  0.00    +0.106 C 
ATOM     18  C   UNL     1      -0.112   1.334  -0.657  0.00  0.00    +0.024 C 
ATOM     19  C   UNL     1       0.028   0.921  -2.124  0.00  0.00    +0.039 C 
ATOM     20  C   UNL     1      -0.829  -0.290  -2.395  0.00  0.00    -0.021 A 
ATOM     21  C   UNL     1      -1.337  -1.072  -1.374  0.00  0.00    +0.069 A 
ATOM     22  C   UNL     1      -2.112  -2.192  -1.687  0.00  0.00    +0.147 A 
ATOM     23  C   UNL     1      -2.376  -2.513  -3.003  0.00  0.00    +0.078 A 
ATOM     24  C   UNL     1      -1.870  -1.722  -4.021  0.00  0.00    +0.126 A 
ATOM     25  C   UNL     1      -1.100  -0.616  -3.715  0.00  0.00    +0.044 A 
ATOM     26  F   UNL     1      -2.128  -2.032  -5.311  0.00  0.00    -0.205 F 
ATOM     27  F   UNL     1      -2.606  -2.964  -0.695  0.00  0.00    -0.203 F 
ENDBRANCH  15  16
ENDBRANCH   2  15
TORSDOF 4
