REMARK  Name = ZINC06677828
REMARK  5 active torsions:
REMARK  status: ('A' for Active; 'I' for Inactive)
REMARK    1  A    between atoms: C_1  and  C_2
REMARK    2  A    between atoms: C_2  and  S_3
REMARK    3  A    between atoms: S_3  and  C_4
REMARK    4  A    between atoms: C_9  and  C_19
REMARK    5  A    between atoms: C_22  and  O_25
REMARK                            x       y       z     vdW  Elec       q    Type
REMARK                         _______ _______ _______ _____ _____    ______ ____
ROOT
ATOM      1  C   UNL     1       0.818  -2.359   1.317  0.00  0.00    +0.210 A 
ATOM      2  N   UNL     1       0.242  -3.033   0.311  0.00  0.00    -0.187 NA
ATOM      3  C   UNL     1       0.381  -4.315   0.508  0.00  0.00    +0.219 A 
ATOM      4  N   UNL     1       1.057  -4.492   1.670  0.00  0.00    -0.220 N 
ATOM      5  N   UNL     1       1.334  -3.220   2.168  0.00  0.00    -0.141 NA
ATOM      6  C   UNL     1       1.387  -5.803   2.215  0.00  0.00    +0.175 C 
ATOM      7  C   UNL     1       1.182  -6.868   1.160  0.00  0.00    +0.041 C 
ATOM      8  C   UNL     1       0.498  -6.627   0.021  0.00  0.00    +0.020 C 
ATOM      9  N   UNL     1      -0.038  -5.392  -0.255  0.00  0.00    -0.287 N 
ATOM     10  C   UNL     1       0.288  -7.718  -1.003  0.00  0.00    +0.052 C 
ATOM     11  C   UNL     1       1.481  -8.675  -0.986  0.00  0.00    +0.014 C 
ATOM     12  C   UNL     1       1.609  -9.261   0.425  0.00  0.00    +0.080 C 
ATOM     13  C   UNL     1       1.740  -8.134   1.412  0.00  0.00    +0.163 C 
ATOM     14  O   UNL     1       2.342  -8.322   2.451  0.00  0.00    -0.292 OA
ATOM     15  H   UNL     1      -0.690  -5.278  -0.964  0.00  0.00    +0.155 HD
ENDROOT
BRANCH   6  16
ATOM     16  C   UNL     1       0.495  -6.093   3.395  0.00  0.00    -0.018 A 
ATOM     17  C   UNL     1      -0.876  -6.139   3.228  0.00  0.00    +0.009 A 
ATOM     18  C   UNL     1      -1.696  -6.404   4.309  0.00  0.00    +0.046 A 
ATOM     19  C   UNL     1      -1.141  -6.625   5.561  0.00  0.00    +0.117 A 
ATOM     20  C   UNL     1       0.236  -6.579   5.725  0.00  0.00    +0.046 A 
ATOM     21  C   UNL     1       1.051  -6.319   4.640  0.00  0.00    +0.009 A 
BRANCH  19  22
ATOM     22  O   UNL     1      -1.945  -6.886   6.625  0.00  0.00    -0.507 OA
ATOM     23  H   UNL     1      -2.128  -7.826   6.758  0.00  0.00    +0.292 HD
ENDBRANCH  19  22
ENDBRANCH   6  16
BRANCH   1  24
ATOM     24  S   UNL     1       0.879  -0.605   1.472  0.00  0.00    -0.085 S 
BRANCH  24  26
ATOM     25  C   UNL     1      -0.019   1.526   0.010  0.00  0.00    +0.016 C 
ATOM     26  C   UNL     1       0.002  -0.004   0.002  0.00  0.00    +0.074 C 
ENDBRANCH  24  26
ENDBRANCH   1  24
TORSDOF 4
