REMARK  Name = ZINC63900761
REMARK  10 active torsions:
REMARK  status: ('A' for Active; 'I' for Inactive)
REMARK    1  A    between atoms: C_1  and  C_2
REMARK    2  A    between atoms: N_4  and  C_5
REMARK    3  A    between atoms: C_5  and  C_7
REMARK    4  A    between atoms: C_5  and  C_17
REMARK    5  A    between atoms: C_7  and  C_8
REMARK    6  A    between atoms: C_17  and  O_19
REMARK    7  A    between atoms: O_19  and  C_20
REMARK    8  A    between atoms: C_20  and  C_21
REMARK    9  A    between atoms: N_23  and  C_24
REMARK   10  A    between atoms: C_25  and  C_33
REMARK                            x       y       z     vdW  Elec       q    Type
REMARK                         _______ _______ _______ _____ _____    ______ ____
ROOT
ATOM      1  C   UNL     1      -1.197  -2.659  -0.458  0.00  0.00    +0.328 C 
ATOM      2  O   UNL     1      -1.798  -1.946   0.311  0.00  0.00    -0.249 OA
ENDROOT
BRANCH   1   3
ATOM      3  C   UNL     1       0.020  -2.136  -1.177  0.00  0.00    +0.186 C 
BRANCH   3   7
ATOM      4  C   UNL     1      -0.018   1.503   0.010  0.00  0.00    +0.109 C 
ATOM      5  C   UNL     1       0.002  -0.004   0.002  0.00  0.00    +0.211 C 
ATOM      6  O   UNL     1       0.020  -0.616   1.049  0.00  0.00    -0.276 OA
ATOM      7  N   UNL     1       0.000  -0.672  -1.169  0.00  0.00    -0.302 N 
ATOM      8  H   UNL     1      -0.015  -0.182  -2.006  0.00  0.00    +0.150 HD
ENDBRANCH   3   7
BRANCH   3   9
ATOM      9  C   UNL     1       1.283  -2.633  -0.470  0.00  0.00    +0.067 C 
BRANCH   9  10
ATOM     10  C   UNL     1       2.497  -2.214  -1.258  0.00  0.00    -0.039 C 
ATOM     11  C   UNL     1       3.258  -1.114  -1.055  0.00  0.00    -0.001 A 
ATOM     12  C   UNL     1       3.185  -0.021  -0.078  0.00  0.00    +0.010 A 
ATOM     13  C   UNL     1       4.111   0.964  -0.125  0.00  0.00    +0.001 A 
ATOM     14  C   UNL     1       5.136   0.967  -1.082  0.00  0.00    +0.002 A 
ATOM     15  C   UNL     1       5.268  -0.003  -2.012  0.00  0.00    +0.026 A 
ATOM     16  C   UNL     1       4.350  -1.088  -2.054  0.00  0.00    +0.043 A 
ATOM     17  N   UNL     1       4.267  -2.131  -2.845  0.00  0.00    -0.380 N 
ATOM     18  C   UNL     1       3.115  -2.940  -2.432  0.00  0.00    +0.144 C 
ATOM     19  H   UNL     1       4.869  -2.335  -3.578  0.00  0.00    +0.160 HD
ENDBRANCH   9  10
ENDBRANCH   3   9
ENDBRANCH   1   3
BRANCH   1  20
ATOM     20  O   UNL     1      -1.613  -3.917  -0.670  0.00  0.00    -0.454 OA
BRANCH  20  21
ATOM     21  C   UNL     1      -2.773  -4.347   0.045  0.00  0.00    +0.328 C 
BRANCH  21  22
ATOM     22  C   UNL     1      -3.088  -5.775  -0.319  0.00  0.00    +0.255 C 
ATOM     23  O   UNL     1      -2.388  -6.367  -1.113  0.00  0.00    -0.272 OA
ATOM     24  N   UNL     1      -4.148  -6.394   0.238  0.00  0.00    -0.276 N 
ATOM     25  H   UNL     1      -4.708  -5.921   0.873  0.00  0.00    +0.155 HD
BRANCH  24  26
ATOM     26  C   UNL     1      -4.438  -7.710  -0.097  0.00  0.00    +0.090 A 
ATOM     27  C   UNL     1      -5.479  -8.497   0.367  0.00  0.00    +0.084 A 
ATOM     28  C   UNL     1      -5.564  -9.853  -0.143  0.00  0.00    -0.018 A 
ATOM     29  C   UNL     1      -4.591 -10.175  -1.024  0.00  0.00    -0.004 A 
ATOM     30  S   UNL     1      -3.611  -8.710  -1.163  0.00  0.00    -0.077 S 
ATOM     31  C   UNL     1      -4.406 -11.488  -1.720  0.00  0.00    +0.043 C 
ATOM     32  C   UNL     1      -5.264 -12.540  -1.001  0.00  0.00    +0.005 C 
ATOM     33  C   UNL     1      -6.672 -11.974  -0.795  0.00  0.00    +0.005 C 
ATOM     34  C   UNL     1      -6.637 -10.858   0.251  0.00  0.00    +0.037 C 
BRANCH  27  35
ATOM     35  C   UNL     1      -6.431  -7.993   1.310  0.00  0.00    +0.102 C 
ATOM     36  N   UNL     1      -7.187  -7.594   2.058  0.00  0.00    -0.191 NA
ENDBRANCH  27  35
ENDBRANCH  24  26
ENDBRANCH  21  22
ENDBRANCH  20  21
ENDBRANCH   1  20
TORSDOF 9
