REMARK  Name = ZINC33959502
REMARK  15 active torsions:
REMARK  status: ('A' for Active; 'I' for Inactive)
REMARK    1  A    between atoms: C_1  and  C_2
REMARK    2  A    between atoms: C_2  and  N_3
REMARK    3  A    between atoms: N_3  and  C_4
REMARK    4  A    between atoms: N_3  and  C_6
REMARK    5  A    between atoms: C_4  and  C_5
REMARK    6  A    between atoms: C_6  and  C_8
REMARK    7  A    between atoms: C_6  and  C_21
REMARK    8  A    between atoms: C_8  and  C_9
REMARK    9  A    between atoms: C_9  and  C_10
REMARK   10  A    between atoms: C_10  and  C_11
REMARK   11  A    between atoms: C_11  and  N_12
REMARK   12  A    between atoms: C_13  and  C_15
REMARK   13  A    between atoms: N_23  and  N_24
REMARK   14  A    between atoms: C_25  and  C_26
REMARK   15  A    between atoms: C_29  and  C_31
REMARK                            x       y       z     vdW  Elec       q    Type
REMARK                         _______ _______ _______ _____ _____    ______ ____
ROOT
ATOM      1  C   UNL     1       2.173  -0.166   1.337  0.00  0.00    +0.021 C 
ENDROOT
BRANCH   1   2
ATOM      2  C   UNL     1       2.363   1.329   1.316  0.00  0.00    +0.219 C 
ATOM      3  O   UNL     1       1.448   2.061   1.632  0.00  0.00    -0.276 OA
ATOM      4  N   UNL     1       3.548   1.852   0.945  0.00  0.00    -0.208 N 
ATOM      5  H   UNL     1       4.279   1.267   0.692  0.00  0.00    +0.177 HD
BRANCH   4   6
ATOM      6  N   UNL     1       3.724   3.242   0.924  0.00  0.00    -0.185 NA
ATOM      7  C   UNL     1       4.869   3.748   0.566  0.00  0.00    +0.176 C 
BRANCH   7   8
ATOM      8  C   UNL     1       5.053   5.200   0.545  0.00  0.00    +0.148 A 
ATOM      9  C   UNL     1       6.204   5.864   0.183  0.00  0.00    +0.051 A 
ATOM     10  C   UNL     1       5.937   7.234   0.308  0.00  0.00    +0.050 A 
ATOM     11  C   UNL     1       4.649   7.354   0.737  0.00  0.00    +0.136 A 
ATOM     12  O   UNL     1       4.123   6.121   0.871  0.00  0.00    -0.454 OA
BRANCH  11  13
ATOM     13  C   UNL     1       3.945   8.623   1.004  0.00  0.00    +0.019 A 
ATOM     14  C   UNL     1       4.600   9.842   0.814  0.00  0.00    +0.011 A 
ATOM     15  C   UNL     1       3.937  11.025   1.066  0.00  0.00    +0.002 A 
ATOM     16  C   UNL     1       2.624  11.007   1.504  0.00  0.00    +0.020 A 
ATOM     17  C   UNL     1       1.968   9.803   1.695  0.00  0.00    +0.042 A 
ATOM     18  C   UNL     1       2.618   8.611   1.441  0.00  0.00    +0.031 A 
ATOM     19 CL   UNL     1       0.322   9.791   2.247  0.00  0.00    -0.084 Cl
ENDBRANCH  11  13
ENDBRANCH   7   8
ENDBRANCH   4   6
ENDBRANCH   1   2
BRANCH   1  20
ATOM     20  N   UNL     1       1.163  -0.546   0.341  0.00  0.00    +0.387 N 
ATOM     21  H   UNL     1       0.776  -1.447   0.581  0.00  0.00    -0.081 HD
BRANCH  20  23
ATOM     22  C   UNL     1      -0.557   0.536   1.707  0.00  0.00    -0.017 C 
ATOM     23  C   UNL     1       0.091   0.458   0.323  0.00  0.00    -0.081 C 
ENDBRANCH  20  23
BRANCH  20  24
ATOM     24  C   UNL     1       1.788  -0.619  -0.986  0.00  0.00    -0.081 C 
ATOM     25  C   UNL     1       2.797  -1.769  -1.012  0.00  0.00    -0.017 C 
ENDBRANCH  20  24
ENDBRANCH   1  20
BRANCH   1  26
ATOM     26  C   UNL     1       1.707  -0.601   2.728  0.00  0.00    -0.006 C 
BRANCH  26  27
ATOM     27  C   UNL     1       1.693  -2.129   2.807  0.00  0.00    +0.000 C 
BRANCH  27  28
ATOM     28  C   UNL     1       1.154  -2.564   4.171  0.00  0.00    +0.019 C 
BRANCH  28  29
ATOM     29  C   UNL     1       1.141  -4.092   4.251  0.00  0.00    +0.104 C 
BRANCH  29  30
ATOM     30  N   UNL     1       0.625  -4.509   5.557  0.00  0.00    -0.311 N 
ATOM     31  C   UNL     1       0.522  -5.819   5.854  0.00  0.00    +0.244 C 
ATOM     32  O   UNL     1       0.857  -6.656   5.038  0.00  0.00    -0.270 OA
ATOM     33  H   UNL     1       0.357  -3.842   6.208  0.00  0.00    +0.149 HD
BRANCH  31  34
ATOM     34  C   UNL     1       0.001  -6.240   7.172  0.00  0.00    +0.037 A 
ATOM     35  C   UNL     1      -0.390  -5.283   8.109  0.00  0.00    +0.013 A 
ATOM     36  C   UNL     1      -0.876  -5.682   9.337  0.00  0.00    +0.001 A 
ATOM     37  C   UNL     1      -0.975  -7.028   9.641  0.00  0.00    +0.000 A 
ATOM     38  C   UNL     1      -0.588  -7.982   8.716  0.00  0.00    +0.001 A 
ATOM     39  C   UNL     1      -0.107  -7.597   7.482  0.00  0.00    +0.013 A 
ENDBRANCH  31  34
ENDBRANCH  29  30
ENDBRANCH  28  29
ENDBRANCH  27  28
ENDBRANCH  26  27
ENDBRANCH   1  26
TORSDOF 13
