REMARK  Name = ZINC40017908
REMARK  14 active torsions:
REMARK  status: ('A' for Active; 'I' for Inactive)
REMARK    1  A    between atoms: C_1  and  C_2
REMARK    2  A    between atoms: C_2  and  N_3
REMARK    3  A    between atoms: N_3  and  C_4
REMARK    4  A    between atoms: N_3  and  C_20
REMARK    5  A    between atoms: C_4  and  C_5
REMARK    6  A    between atoms: C_8  and  O_13
REMARK    7  A    between atoms: C_9  and  O_11
REMARK    8  A    between atoms: O_11  and  C_12
REMARK    9  A    between atoms: O_13  and  C_14
REMARK   10  A    between atoms: C_14  and  C_15
REMARK   11  A    between atoms: C_20  and  C_22
REMARK   12  A    between atoms: C_20  and  C_23
REMARK   13  A    between atoms: N_29  and  C_30
REMARK   14  A    between atoms: N_29  and  C_31
REMARK                            x       y       z     vdW  Elec       q    Type
REMARK                         _______ _______ _______ _____ _____    ______ ____
ROOT
ATOM      1  N   UNL     1       0.761  -0.381  -1.198  0.00  0.00    +0.389 N 
ATOM      2  H   UNL     1       0.376   0.076  -2.010  0.00  0.00    -0.080 HD
ENDROOT
BRANCH   1   4
ATOM      3  C   UNL     1       0.638  -0.607   1.238  0.00  0.00    -0.017 C 
ATOM      4  C   UNL     1      -0.002   0.013  -0.006  0.00  0.00    -0.081 C 
ENDBRANCH   1   4
BRANCH   1   5
ATOM      5  C   UNL     1       2.166   0.016  -1.033  0.00  0.00    -0.002 C 
ATOM      6  C   UNL     1       2.930  -0.262  -2.329  0.00  0.00    -0.005 C 
BRANCH   5   7
ATOM      7  C   UNL     1       2.238   1.488  -0.714  0.00  0.00    +0.123 A 
ATOM      8  N   UNL     1       1.502   2.347  -1.397  0.00  0.00    -0.201 NA
ATOM      9  C   UNL     1       1.562   3.647  -1.119  0.00  0.00    +0.217 A 
ATOM     10  N   UNL     1       2.364   4.080  -0.151  0.00  0.00    -0.181 NA
ATOM     11  C   UNL     1       3.102   3.214   0.533  0.00  0.00    +0.222 A 
ATOM     12  N   UNL     1       3.032   1.914   0.252  0.00  0.00    -0.201 NA
ATOM     13  N   UNL     1       3.936   3.659   1.538  0.00  0.00    -0.306 N 
ATOM     14  C   UNL     1       4.008   5.088   1.851  0.00  0.00    +0.132 C 
ATOM     15  C   UNL     1       4.749   2.702   2.293  0.00  0.00    +0.132 C 
ATOM     16  N   UNL     1       0.794   4.543  -1.833  0.00  0.00    -0.327 N 
ATOM     17  H   UNL     1       0.209   4.226  -2.539  0.00  0.00    +0.145 HD
ATOM     18  H   UNL     1       0.839   5.490  -1.629  0.00  0.00    +0.145 HD
ENDBRANCH   5   7
ENDBRANCH   1   5
BRANCH   1  19
ATOM     19  C   UNL     1       0.682  -1.838  -1.370  0.00  0.00    -0.042 C 
BRANCH  19  20
ATOM     20  C   UNL     1      -0.743  -2.232  -1.661  0.00  0.00    -0.060 A 
ATOM     21  C   UNL     1      -1.602  -2.534  -0.621  0.00  0.00    +0.005 A 
ATOM     22  C   UNL     1      -2.910  -2.897  -0.882  0.00  0.00    +0.049 A 
ATOM     23  C   UNL     1      -3.364  -2.956  -2.190  0.00  0.00    +0.162 A 
ATOM     24  C   UNL     1      -2.500  -2.651  -3.238  0.00  0.00    +0.162 A 
ATOM     25  C   UNL     1      -1.191  -2.284  -2.968  0.00  0.00    +0.051 A 
BRANCH  24  26
ATOM     26  O   UNL     1      -2.941  -2.708  -4.523  0.00  0.00    -0.491 OA
ATOM     27  C   UNL     1      -1.999  -2.381  -5.547  0.00  0.00    +0.277 C 
ENDBRANCH  24  26
BRANCH  23  28
ATOM     28  O   UNL     1      -4.650  -3.312  -2.450  0.00  0.00    -0.483 OA
BRANCH  28  29
ATOM     29  C   UNL     1      -5.480  -3.612  -1.325  0.00  0.00    +0.271 C 
BRANCH  29  30
ATOM     30  C   UNL     1      -6.859  -3.984  -1.804  0.00  0.00    +0.027 A 
ATOM     31  C   UNL     1      -7.352  -5.205  -2.124  0.00  0.00    +0.014 A 
ATOM     32  C   UNL     1      -8.665  -5.310  -2.544  0.00  0.00    +0.008 A 
ATOM     33  C   UNL     1      -9.421  -4.188  -2.623  0.00  0.00    +0.045 A 
ATOM     34  S   UNL     1      -8.272  -2.930  -2.088  0.00  0.00    -0.098 S 
ENDBRANCH  29  30
ENDBRANCH  28  29
ENDBRANCH  23  28
ENDBRANCH  19  20
ENDBRANCH   1  19
TORSDOF 9
