REMARK  Name = ZINC53629616
REMARK  6 active torsions:
REMARK  status: ('A' for Active; 'I' for Inactive)
REMARK    1  A    between atoms: C_6  and  C_7
REMARK    2  A    between atoms: C_11  and  C_21
REMARK    3  A    between atoms: C_15  and  C_17
REMARK    4  A    between atoms: N_23  and  C_24
REMARK    5  A    between atoms: C_24  and  C_25
REMARK    6  A    between atoms: C_25  and  C_26
REMARK                            x       y       z     vdW  Elec       q    Type
REMARK                         _______ _______ _______ _____ _____    ______ ____
ROOT
ATOM      1  C   UNL     1      -1.268  -0.764   0.011  0.00  0.00    +0.050 C 
ATOM      2  N   UNL     1      -1.245  -2.080   0.009  0.00  0.00    -0.342 N 
ATOM      3  C   UNL     1      -2.396  -2.799   0.016  0.00  0.00    +0.116 C 
ATOM      4  C   UNL     1      -2.565  -4.137   0.015  0.00  0.00    +0.045 C 
ATOM      5  C   UNL     1      -4.055  -4.388   0.026  0.00  0.00    +0.185 C 
ATOM      6  N   UNL     1      -4.655  -3.043   0.033  0.00  0.00    -0.218 NA
ATOM      7  N   UNL     1      -3.621  -2.146   0.026  0.00  0.00    -0.215 N 
ATOM      8  C   UNL     1      -3.658  -0.772   0.028  0.00  0.00    +0.133 C 
ATOM      9  C   UNL     1      -2.505  -0.073   0.026  0.00  0.00    +0.055 C 
ATOM     10  H   UNL     1      -5.242  -2.912   0.843  0.00  0.00    +0.146 HD
ATOM     11  H   UNL     1      -0.393  -2.544   0.002  0.00  0.00    +0.167 HD
ENDROOT
BRANCH   1  17
ATOM     12  C   UNL     1      -0.017   1.391   0.010  0.00  0.00    +0.011 A 
ATOM     13  C   UNL     1       1.170   2.094   0.002  0.00  0.00    +0.020 A 
ATOM     14  C   UNL     1       2.378   1.418  -0.013  0.00  0.00    +0.041 A 
ATOM     15  C   UNL     1       2.403   0.034  -0.021  0.00  0.00    +0.020 A 
ATOM     16  C   UNL     1       1.222  -0.680  -0.014  0.00  0.00    +0.011 A 
ATOM     17  C   UNL     1       0.002  -0.004   0.002  0.00  0.00    -0.002 A 
ATOM     18 CL   UNL     1       3.868   2.310  -0.024  0.00  0.00    -0.084 Cl
ENDBRANCH   1  17
BRANCH   8  19
ATOM     19  C   UNL     1      -4.981  -0.050   0.038  0.00  0.00    +0.432 C 
ATOM     20  F   UNL     1      -4.758   1.331   0.038  0.00  0.00    -0.165 F 
ATOM     21  F   UNL     1      -5.714  -0.404  -1.099  0.00  0.00    -0.165 F 
ATOM     22  F   UNL     1      -5.698  -0.407   1.185  0.00  0.00    -0.165 F 
ENDBRANCH   8  19
BRANCH   5  23
ATOM     23  C   UNL     1      -4.452  -5.150   1.265  0.00  0.00    +0.236 C 
ATOM     24  O   UNL     1      -5.221  -4.655   2.061  0.00  0.00    -0.274 OA
ATOM     25  N   UNL     1      -3.951  -6.381   1.488  0.00  0.00    -0.313 N 
ATOM     26  H   UNL     1      -3.336  -6.777   0.851  0.00  0.00    +0.149 HD
BRANCH  25  27
ATOM     27  C   UNL     1      -4.336  -7.121   2.692  0.00  0.00    +0.110 C 
BRANCH  27  28
ATOM     28  C   UNL     1      -3.633  -8.480   2.703  0.00  0.00    +0.073 C 
BRANCH  28  29
ATOM     29  C   UNL     1      -4.029  -9.241   3.941  0.00  0.00    +0.035 A 
ATOM     30  H   UNL     1      -5.760 -11.097   5.756  0.00  0.00    +0.166 HD
ATOM     31  C   UNL     1      -5.129 -10.006   4.082  0.00  0.00    +0.105 A 
ATOM     32  N   UNL     1      -5.101 -10.509   5.355  0.00  0.00    -0.352 N 
ATOM     33  C   UNL     1      -3.984 -10.034   5.948  0.00  0.00    +0.171 A 
ATOM     34  N   UNL     1      -3.345  -9.281   5.095  0.00  0.00    -0.350 N 
ATOM     35  H   UNL     1      -2.509  -8.820   5.268  0.00  0.00    +0.166 HD
ENDBRANCH  28  29
ENDBRANCH  27  28
ENDBRANCH  25  27
ENDBRANCH   5  23
TORSDOF 6
