REMARK  Name = ZINC09258312
REMARK  7 active torsions:
REMARK  status: ('A' for Active; 'I' for Inactive)
REMARK    1  A    between atoms: C_1  and  C_2
REMARK    2  A    between atoms: C_4  and  C_12
REMARK    3  A    between atoms: C_12  and  O_14
REMARK    4  A    between atoms: O_14  and  C_15
REMARK    5  A    between atoms: C_15  and  C_16
REMARK    6  A    between atoms: N_18  and  N_19
REMARK    7  A    between atoms: C_25  and  C_28
REMARK                            x       y       z     vdW  Elec       q    Type
REMARK                         _______ _______ _______ _____ _____    ______ ____
ROOT
ATOM      1  C   UNL     1      -6.949   2.386  -0.109  0.00  0.00    +0.267 C 
ATOM      2  O   UNL     1      -6.246   2.079  -1.048  0.00  0.00    -0.271 OA
ATOM      3  N   UNL     1      -8.274   2.560  -0.288  0.00  0.00    -0.221 N 
ATOM      4  H   UNL     1      -8.837   2.806   0.463  0.00  0.00    +0.174 HD
ENDROOT
BRANCH   3   5
ATOM      5  N   UNL     1      -8.838   2.386  -1.558  0.00  0.00    -0.137 N 
ATOM      6  C   UNL     1      -9.570   1.313  -1.923  0.00  0.00    +0.263 C 
ATOM      7  O   UNL     1      -9.854   0.352  -1.240  0.00  0.00    -0.271 OA
ATOM      8  C   UNL     1      -9.961   1.561  -3.361  0.00  0.00    +0.114 C 
ATOM      9  C   UNL     1     -11.479   1.634  -3.494  0.00  0.00    +0.035 C 
ATOM     10  C   UNL     1     -11.853   1.913  -4.952  0.00  0.00    +0.006 C 
ATOM     11  C   UNL     1     -11.300   0.798  -5.842  0.00  0.00    -0.014 C 
ATOM     12  C   UNL     1      -9.775   0.754  -5.717  0.00  0.00    +0.006 C 
ATOM     13  C   UNL     1      -9.392   0.470  -4.262  0.00  0.00    +0.035 C 
ATOM     14  C   UNL     1     -11.684   1.070  -7.298  0.00  0.00    +0.007 C 
ATOM     15  N   UNL     1      -9.354   2.860  -3.678  0.00  0.00    -0.284 N 
ATOM     16  C   UNL     1      -8.722   3.267  -2.560  0.00  0.00    +0.326 C 
ATOM     17  O   UNL     1      -8.112   4.314  -2.472  0.00  0.00    -0.251 OA
ATOM     18  H   UNL     1      -9.402   3.333  -4.523  0.00  0.00    +0.151 HD
ENDBRANCH   3   5
BRANCH   1  19
ATOM     19  C   UNL     1      -6.343   2.573   1.258  0.00  0.00    +0.329 C 
BRANCH  19  20
ATOM     20  O   UNL     1      -4.913   2.331   1.190  0.00  0.00    -0.452 OA
BRANCH  20  21
ATOM     21  C   UNL     1      -4.216   2.458   2.336  0.00  0.00    +0.340 C 
ATOM     22  O   UNL     1      -4.787   2.762   3.364  0.00  0.00    -0.245 OA
BRANCH  21  26
ATOM     23  C   UNL     1      -0.020   1.038   0.023  0.00  0.00    +0.065 C 
ATOM     24  C   UNL     1      -0.722   1.550   1.255  0.00  0.00    +0.040 A 
ATOM     25  C   UNL     1      -2.098   1.761   1.211  0.00  0.00    +0.038 A 
ATOM     26  C   UNL     1      -2.756   2.226   2.342  0.00  0.00    +0.070 A 
ATOM     27  C   UNL     1      -1.979   2.478   3.502  0.00  0.00    +0.014 A 
ATOM     28  C   UNL     1      -2.564   2.955   4.683  0.00  0.00    +0.011 A 
ATOM     29  C   UNL     1      -1.784   3.185   5.776  0.00  0.00    +0.001 A 
ATOM     30  C   UNL     1      -0.411   2.953   5.736  0.00  0.00    +0.002 A 
ATOM     31  C   UNL     1       0.189   2.490   4.606  0.00  0.00    +0.028 A 
ATOM     32  C   UNL     1      -0.583   2.241   3.457  0.00  0.00    +0.072 A 
ATOM     33  N   UNL     1      -0.019   1.787   2.334  0.00  0.00    -0.252 NA
ENDBRANCH  21  26
ENDBRANCH  20  21
ENDBRANCH  19  20
ENDBRANCH   1  19
TORSDOF 5
