REMARK  Name = ZINC39454213
REMARK  1 active torsions:
REMARK  status: ('A' for Active; 'I' for Inactive)
REMARK    1  A    between atoms: C_22  and  O_24
REMARK                            x       y       z     vdW  Elec       q    Type
REMARK                         _______ _______ _______ _____ _____    ______ ____
ROOT
ATOM      1  C   UNL     1      -0.017   1.386   0.010  0.00  0.00    +0.006 A 
ATOM      2  C   UNL     1       1.129   2.121   0.003  0.00  0.00    +0.028 A 
ATOM      3  C   UNL     1       2.377   1.472  -0.013  0.00  0.00    +0.075 A 
ATOM      4  C   UNL     1       2.406   0.007  -0.020  0.00  0.00    +0.043 A 
ATOM      5  C   UNL     1       3.645  -0.647  -0.035  0.00  0.00    +0.029 A 
ATOM      6  C   UNL     1       4.791   0.137  -0.044  0.00  0.00    +0.068 A 
ATOM      7  C   UNL     1       4.689   1.554  -0.039  0.00  0.00    +0.100 A 
ATOM      8  N   UNL     1       3.518   2.162  -0.022  0.00  0.00    -0.244 NA
ATOM      9  C   UNL     1       5.939   2.335  -0.053  0.00  0.00    +0.082 A 
ATOM     10  C   UNL     1       7.156   1.685  -0.066  0.00  0.00    +0.120 A 
ATOM     11  N   UNL     1       7.226   0.296  -0.071  0.00  0.00    -0.243 N 
ATOM     12  C   UNL     1       6.127  -0.478  -0.060  0.00  0.00    +0.270 A 
ATOM     13  O   UNL     1       6.238  -1.690  -0.064  0.00  0.00    -0.266 OA
ATOM     14  I   UNL     1       9.069  -0.602  -0.097  0.00  0.00    +0.068 I 
ATOM     15  C   UNL     1       8.354   2.437  -0.071  0.00  0.00    +0.185 C 
ATOM     16  O   UNL     1       9.423   1.864  -0.132  0.00  0.00    -0.290 OA
ATOM     17  C   UNL     1       8.316   3.941  -0.000  0.00  0.00    +0.115 C 
ATOM     18  C   UNL     1       7.024   4.448  -0.649  0.00  0.00    +0.146 C 
ATOM     19  N   UNL     1       5.894   3.716  -0.057  0.00  0.00    -0.328 N 
ATOM     20 BR   UNL     1       7.083   4.123  -2.587  0.00  0.00    -0.067 Br
ATOM     21  C   UNL     1       1.189  -0.704  -0.013  0.00  0.00    +0.126 A 
ATOM     22  C   UNL     1       0.002  -0.004   0.002  0.00  0.00    +0.046 A 
ATOM     23  H   UNL     1       5.136   4.190   0.320  0.00  0.00    +0.147 HD
ENDROOT
BRANCH  21  24
ATOM     24  O   UNL     1       1.186  -2.061  -0.019  0.00  0.00    -0.506 OA
ATOM     25  H   UNL     1       1.193  -2.459   0.862  0.00  0.00    +0.292 HD
ENDBRANCH  21  24
TORSDOF 1
