REMARK  Name = ZINC39659612
REMARK  6 active torsions:
REMARK  status: ('A' for Active; 'I' for Inactive)
REMARK    1  A    between atoms: C_1  and  C_2
REMARK    2  A    between atoms: C_2  and  C_34
REMARK    3  A    between atoms: C_5  and  C_8
REMARK    4  A    between atoms: C_8  and  N_9
REMARK    5  A    between atoms: C_10  and  C_12
REMARK    6  A    between atoms: C_23  and  C_25
REMARK                            x       y       z     vdW  Elec       q    Type
REMARK                         _______ _______ _______ _____ _____    ______ ____
ROOT
ATOM      1  C   UNL     1       3.024  -2.657   5.325  0.00  0.00    +0.100 C 
ATOM      2  C   UNL     1       2.235  -1.932   6.438  0.00  0.00    +0.121 C 
ATOM      3  N   UNL     1       1.910  -2.995   7.419  0.00  0.00    -0.296 N 
ATOM      4  C   UNL     1       3.129  -3.837   7.468  0.00  0.00    +0.115 C 
ATOM      5  C   UNL     1       3.612  -3.904   6.006  0.00  0.00    -0.004 C 
ATOM      6  C   UNL     1       5.137  -3.866   5.951  0.00  0.00    -0.010 C 
ATOM      7  C   UNL     1       5.697  -5.144   6.582  0.00  0.00    -0.082 C 
ATOM      8  N   UNL     1       5.190  -6.314   5.855  0.00  0.00    +0.379 N 
ATOM      9  C   UNL     1       3.731  -6.395   5.991  0.00  0.00    -0.082 C 
ATOM     10  C   UNL     1       3.087  -5.170   5.335  0.00  0.00    -0.010 C 
ATOM     11  C   UNL     1       0.764  -3.158   8.111  0.00  0.00    +0.248 C 
ATOM     12  O   UNL     1      -0.189  -2.435   7.889  0.00  0.00    -0.270 OA
ATOM     13  H   UNL     1       5.432  -6.233   4.879  0.00  0.00    -0.086 HD
ATOM     14  H   UNL     1       5.609  -7.151   6.234  0.00  0.00    -0.086 HD
ENDROOT
BRANCH  11  15
ATOM     15  C   UNL     1       0.667  -4.209   9.131  0.00  0.00    +0.052 A 
ATOM     16  C   UNL     1       1.738  -4.543   9.897  0.00  0.00    +0.059 A 
ATOM     17  S   UNL     1       1.198  -5.764  10.912  0.00  0.00    -0.096 S 
ATOM     18  C   UNL     1      -0.485  -5.897  10.374  0.00  0.00    +0.020 A 
ATOM     19  C   UNL     1      -0.590  -4.925   9.361  0.00  0.00    +0.001 A 
ATOM     20  C   UNL     1      -1.840  -4.784   8.729  0.00  0.00    +0.010 A 
ATOM     21  C   UNL     1      -2.901  -5.570   9.105  0.00  0.00    +0.001 A 
ATOM     22  C   UNL     1      -2.773  -6.517  10.110  0.00  0.00    +0.001 A 
ATOM     23  C   UNL     1      -1.555  -6.685  10.741  0.00  0.00    +0.015 A 
ENDBRANCH  11  15
BRANCH   1  25
ATOM     24  N   UNL     1       2.565  -3.124   2.940  0.00  0.00    -0.312 N 
ATOM     25  C   UNL     1       2.101  -3.058   4.203  0.00  0.00    +0.218 C 
ATOM     26  O   UNL     1       0.940  -3.322   4.438  0.00  0.00    -0.275 OA
ATOM     27  H   UNL     1       3.493  -2.914   2.752  0.00  0.00    +0.149 HD
BRANCH  24  28
ATOM     28  C   UNL     1       1.667  -3.514   1.849  0.00  0.00    +0.138 C 
BRANCH  28  33
ATOM     29  C   UNL     1       4.722  -5.044  -1.489  0.00  0.00    +0.074 C 
ATOM     30  C   UNL     1       3.330  -5.136  -0.860  0.00  0.00    +0.165 C 
ATOM     31  O   UNL     1       2.398  -4.364  -1.635  0.00  0.00    -0.347 OA
ATOM     32  C   UNL     1       1.488  -3.796  -0.662  0.00  0.00    +0.196 C 
ATOM     33  C   UNL     1       2.439  -3.510   0.528  0.00  0.00    +0.164 C 
ATOM     34  O   UNL     1       3.370  -4.610   0.474  0.00  0.00    -0.342 OA
ATOM     35  C   UNL     1       2.878  -6.597  -0.822  0.00  0.00    +0.074 C 
ENDBRANCH  28  33
ENDBRANCH  24  28
ENDBRANCH   1  25
TORSDOF 4
