REMARK  Name = ZINC16962435
REMARK  4 active torsions:
REMARK  status: ('A' for Active; 'I' for Inactive)
REMARK    1  A    between atoms: C_8  and  C_12
REMARK    2  A    between atoms: N_14  and  C_15
REMARK    3  A    between atoms: C_18  and  S_21
REMARK    4  A    between atoms: S_21  and  N_24
REMARK                            x       y       z     vdW  Elec       q    Type
REMARK                         _______ _______ _______ _____ _____    ______ ____
ROOT
ATOM      1  C   UNL     1       7.253   3.939   0.194  0.00  0.00    +0.034 A 
ATOM      2  C   UNL     1       7.183   5.235  -0.301  0.00  0.00    +0.025 A 
ATOM      3  C   UNL     1       8.342   5.958  -0.505  0.00  0.00    +0.031 A 
ATOM      4  C   UNL     1       9.571   5.389  -0.228  0.00  0.00    +0.113 A 
ATOM      5  C   UNL     1       9.645   4.097   0.259  0.00  0.00    +0.031 A 
ATOM      6  C   UNL     1       8.490   3.371   0.471  0.00  0.00    +0.025 A 
ENDROOT
BRANCH   1   9
ATOM      7  C   UNL     1       6.003   2.345   1.442  0.00  0.00    +0.224 C 
ATOM      8  O   UNL     1       6.976   2.145   2.138  0.00  0.00    -0.275 OA
ATOM      9  N   UNL     1       6.081   3.205   0.407  0.00  0.00    -0.285 N 
ATOM     10  H   UNL     1       5.324   3.316  -0.190  0.00  0.00    +0.155 HD
BRANCH   7  18
ATOM     11  C   UNL     1       2.257  -1.331   4.711  0.00  0.00    +0.000 A 
ATOM     12  C   UNL     1       1.091  -0.684   4.347  0.00  0.00    +0.004 A 
ATOM     13  C   UNL     1       1.143   0.415   3.515  0.00  0.00    +0.046 A 
ATOM     14  C   UNL     1       2.368   0.883   3.049  0.00  0.00    +0.124 A 
ATOM     15  C   UNL     1       3.534   0.240   3.424  0.00  0.00    -0.005 A 
ATOM     16  C   UNL     1       3.475  -0.868   4.253  0.00  0.00    +0.007 A 
ATOM     17  C   UNL     1       4.883   0.721   2.951  0.00  0.00    +0.055 C 
ATOM     18  C   UNL     1       4.707   1.634   1.734  0.00  0.00    +0.117 C 
ATOM     19  C   UNL     1       3.614   2.661   2.057  0.00  0.00    +0.242 C 
ATOM     20  O   UNL     1       2.379   1.965   2.228  0.00  0.00    -0.491 OA
ENDBRANCH   7  18
ENDBRANCH   1   9
BRANCH   4  21
ATOM     21  S   UNL     1      11.048   6.313  -0.497  0.00  0.00    +0.100 S 
ATOM     22  O   UNL     1      10.684   7.686  -0.440  0.00  0.00    -0.146 OA
ATOM     23  O   UNL     1      12.038   5.752   0.354  0.00  0.00    -0.146 OA
BRANCH  21  24
ATOM     24  N   UNL     1      11.536   6.016  -2.051  0.00  0.00    -0.118 NA
ATOM     25  C   UNL     1      12.606   6.577  -2.511  0.00  0.00    +0.117 C 
ATOM     26  C   UNL     1      13.418   7.519  -1.625  0.00  0.00    +0.073 C 
ATOM     27  C   UNL     1      14.727   6.813  -1.310  0.00  0.00    +0.008 C 
ATOM     28  C   UNL     1      15.822   7.072  -2.346  0.00  0.00    +0.002 C 
ATOM     29  C   UNL     1      15.311   7.006  -3.786  0.00  0.00    +0.019 C 
ATOM     30  C   UNL     1      14.365   5.851  -4.032  0.00  0.00    +0.102 C 
ATOM     31  N   UNL     1      12.996   6.342  -3.748  0.00  0.00    -0.331 N 
ATOM     32  H   UNL     1      12.380   6.492  -4.482  0.00  0.00    +0.147 HD
ENDBRANCH  21  24
ENDBRANCH   4  21
TORSDOF 4
