REMARK  Name = ZINC09135479
REMARK  11 active torsions:
REMARK  status: ('A' for Active; 'I' for Inactive)
REMARK    1  A    between atoms: C_1  and  N_2
REMARK    2  A    between atoms: C_10  and  C_12
REMARK    3  A    between atoms: C_12  and  C_14
REMARK    4  A    between atoms: C_12  and  N_66
REMARK    5  A    between atoms: C_14  and  N_15
REMARK    6  A    between atoms: C_16  and  C_18
REMARK    7  A    between atoms: N_20  and  C_21
REMARK    8  A    between atoms: C_21  and  C_22
REMARK    9  A    between atoms: C_22  and  C_23
REMARK   10  A    between atoms: C_33  and  N_66
REMARK   11  A    between atoms: C_34  and  N_66
REMARK                            x       y       z     vdW  Elec       q    Type
REMARK                         _______ _______ _______ _____ _____    ______ ____
ROOT
ATOM      1  N   UNL     1      -0.879   0.233  -2.297  0.00  0.00    -0.309 N 
ATOM      2  C   UNL     1      -2.165   0.186  -2.698  0.00  0.00    +0.299 C 
ATOM      3  O   UNL     1      -2.697   1.180  -3.147  0.00  0.00    -0.265 OA
ATOM      4  H   UNL     1      -0.453  -0.562  -1.939  0.00  0.00    +0.149 HD
ENDROOT
BRANCH   2   5
ATOM      5  C   UNL     1      -2.935  -1.090  -2.590  0.00  0.00    +0.299 C 
ATOM      6  O   UNL     1      -2.403  -2.084  -2.142  0.00  0.00    -0.265 OA
ATOM      7  N   UNL     1      -4.221  -1.137  -2.991  0.00  0.00    -0.307 N 
ATOM      8  H   UNL     1      -4.646  -0.343  -3.350  0.00  0.00    +0.149 HD
BRANCH   7   9
ATOM      9  C   UNL     1      -4.976  -2.388  -2.885  0.00  0.00    +0.109 C 
BRANCH   9  10
ATOM     10  C   UNL     1      -6.399  -2.170  -3.404  0.00  0.00    +0.056 C 
BRANCH  10  11
ATOM     11  C   UNL     1      -7.176  -3.457  -3.295  0.00  0.00    -0.021 A 
ATOM     12  C   UNL     1      -7.349  -4.370  -4.265  0.00  0.00    +0.087 A 
ATOM     13  N   UNL     1      -8.109  -5.407  -3.798  0.00  0.00    -0.360 N 
ATOM     14  H   UNL     1      -8.367  -6.186  -4.315  0.00  0.00    +0.165 HD
ATOM     15  C   UNL     1      -8.459  -5.178  -2.486  0.00  0.00    +0.047 A 
ATOM     16  C   UNL     1      -7.890  -3.947  -2.114  0.00  0.00    +0.003 A 
ATOM     17  C   UNL     1      -8.080  -3.453  -0.822  0.00  0.00    +0.010 A 
ATOM     18  C   UNL     1      -8.820  -4.170   0.076  0.00  0.00    +0.001 A 
ATOM     19  C   UNL     1      -9.384  -5.386  -0.286  0.00  0.00    +0.002 A 
ATOM     20  C   UNL     1      -9.209  -5.891  -1.556  0.00  0.00    +0.026 A 
ENDBRANCH  10  11
ENDBRANCH   9  10
ENDBRANCH   7   9
ENDBRANCH   2   5
BRANCH   1  21
ATOM     21  C   UNL     1      -0.124   1.484  -2.403  0.00  0.00    +0.094 C 
BRANCH  21  22
ATOM     22  C   UNL     1       1.244   1.312  -1.739  0.00  0.00    -0.021 C 
BRANCH  22  32
ATOM     23  C   UNL     1       4.529   6.677  -1.165  0.00  0.00    +0.129 C 
ATOM     24  N   UNL     1       4.285   6.048  -2.469  0.00  0.00    -0.333 N 
ATOM     25  C   UNL     1       5.535   5.878  -3.212  0.00  0.00    +0.105 C 
ATOM     26  C   UNL     1       5.222   5.194  -4.549  0.00  0.00    +0.024 C 
ATOM     27  C   UNL     1       4.781   3.759  -4.253  0.00  0.00    +0.038 C 
ATOM     28  C   UNL     1       3.761   3.761  -3.143  0.00  0.00    -0.026 A 
ATOM     29  C   UNL     1       3.568   4.861  -2.325  0.00  0.00    +0.033 A 
ATOM     30  C   UNL     1       2.615   4.799  -1.307  0.00  0.00    +0.023 A 
ATOM     31  C   UNL     1       1.864   3.658  -1.123  0.00  0.00    +0.004 A 
ATOM     32  C   UNL     1       2.061   2.561  -1.941  0.00  0.00    -0.059 A 
ATOM     33  C   UNL     1       3.005   2.615  -2.948  0.00  0.00    +0.007 A 
ENDBRANCH  22  32
BRANCH  22  36
ATOM     34  C   UNL     1      -0.163   1.714   0.190  0.00  0.00    -0.096 C 
ATOM     35  C   UNL     1       1.060  -0.367  -0.004  0.00  0.00    -0.096 C 
ATOM     36  N   UNL     1       1.086   1.083  -0.287  0.00  0.00    +0.382 N 
ATOM     37  H   UNL     1       1.882   1.505   0.205  0.00  0.00    -0.082 HD
ENDBRANCH  22  36
ENDBRANCH  21  22
ENDBRANCH   1  21
TORSDOF 8
