REMARK  Name = ZINC04641119
REMARK  6 active torsions:
REMARK  status: ('A' for Active; 'I' for Inactive)
REMARK    1  A    between atoms: C_6  and  C_7
REMARK    2  A    between atoms: C_7  and  C_8
REMARK    3  A    between atoms: N_14  and  C_17
REMARK    4  A    between atoms: N_24  and  C_25
REMARK    5  A    between atoms: C_25  and  C_26
REMARK    6  A    between atoms: C_26  and  C_27
REMARK                            x       y       z     vdW  Elec       q    Type
REMARK                         _______ _______ _______ _____ _____    ______ ____
ROOT
ATOM      1  C   UNL     1      -0.930   1.653   0.516  0.00  0.00    +0.064 C 
ATOM      2  N   UNL     1       0.245   0.961   0.460  0.00  0.00    -0.286 NA
ENDROOT
BRANCH   1   3
ATOM      3  C   UNL     1      -2.127   0.978   0.776  0.00  0.00    +0.210 C 
ATOM      4  C   UNL     1      -3.382   1.707   1.010  0.00  0.00    +0.238 C 
ATOM      5  O   UNL     1      -3.412   2.924   0.985  0.00  0.00    -0.274 OA
ATOM      6  N   UNL     1      -4.500   0.992   1.250  0.00  0.00    -0.238 N 
ATOM      7  C   UNL     1      -4.480  -0.347   1.287  0.00  0.00    +0.319 C 
ATOM      8  O   UNL     1      -5.520  -0.934   1.513  0.00  0.00    -0.251 OA
ATOM      9  N   UNL     1      -3.371  -1.074   1.087  0.00  0.00    -0.193 N 
ATOM     10  C   UNL     1      -2.183  -0.489   0.832  0.00  0.00    +0.245 C 
ATOM     11  O   UNL     1      -1.183  -1.160   0.653  0.00  0.00    -0.274 OA
ATOM     12  H   UNL     1      -5.337   1.458   1.403  0.00  0.00    +0.159 HD
BRANCH   9  13
ATOM     13  C   UNL     1      -3.449  -2.472   1.145  0.00  0.00    +0.045 A 
ATOM     14  C   UNL     1      -3.294  -3.226  -0.011  0.00  0.00    +0.025 A 
ATOM     15  C   UNL     1      -3.366  -4.604   0.050  0.00  0.00    +0.017 A 
ATOM     16  C   UNL     1      -3.602  -5.233   1.259  0.00  0.00    +0.018 A 
ATOM     17  C   UNL     1      -3.761  -4.484   2.412  0.00  0.00    +0.017 A 
ATOM     18  C   UNL     1      -3.685  -3.106   2.358  0.00  0.00    +0.025 A 
ATOM     19 BR   UNL     1      -3.707  -7.119   1.337  0.00  0.00    -0.050 Br
ENDBRANCH   9  13
ENDBRANCH   1   3
BRANCH   1  25
ATOM     20  C   UNL     1      -0.108   3.936   1.069  0.00  0.00    +0.011 A 
ATOM     21  C   UNL     1      -0.117   5.299   0.861  0.00  0.00    +0.020 A 
ATOM     22  C   UNL     1      -0.951   5.851  -0.097  0.00  0.00    +0.041 A 
ATOM     23  C   UNL     1      -1.779   5.040  -0.856  0.00  0.00    +0.020 A 
ATOM     24  C   UNL     1      -1.777   3.675  -0.662  0.00  0.00    +0.011 A 
ATOM     25  C   UNL     1      -0.937   3.110   0.303  0.00  0.00    -0.003 A 
ATOM     26 CL   UNL     1      -0.960   7.569  -0.348  0.00  0.00    -0.084 Cl
ENDBRANCH   1  25
BRANCH   2  27
ATOM     27  C   UNL     1       1.499   1.667   0.188  0.00  0.00    +0.146 C 
BRANCH  27  28
ATOM     28  C   UNL     1       2.669   0.686   0.288  0.00  0.00    +0.060 C 
BRANCH  28  29
ATOM     29  C   UNL     1       3.959   1.413   0.008  0.00  0.00    -0.021 A 
ATOM     30  C   UNL     1       4.593   1.488  -1.173  0.00  0.00    +0.087 A 
ATOM     31  N   UNL     1       5.732   2.236  -1.044  0.00  0.00    -0.360 N 
ATOM     32  H   UNL     1       6.354   2.432  -1.762  0.00  0.00    +0.165 HD
ATOM     33  C   UNL     1       5.866   2.664   0.259  0.00  0.00    +0.047 A 
ATOM     34  C   UNL     1       4.761   2.167   0.974  0.00  0.00    +0.006 A 
ATOM     35  C   UNL     1       4.630   2.446   2.336  0.00  0.00    +0.048 A 
ATOM     36  C   UNL     1       5.587   3.208   2.971  0.00  0.00    +0.124 A 
ATOM     37  C   UNL     1       6.678   3.698   2.263  0.00  0.00    +0.040 A 
ATOM     38  C   UNL     1       6.820   3.431   0.919  0.00  0.00    +0.029 A 
ATOM     39  F   UNL     1       5.463   3.481   4.288  0.00  0.00    -0.205 F 
ENDBRANCH  28  29
ENDBRANCH  27  28
ENDBRANCH   2  27
TORSDOF 6
