REMARK  Name = ZINC35567137
REMARK  13 active torsions:
REMARK  status: ('A' for Active; 'I' for Inactive)
REMARK    1  A    between atoms: C_1  and  C_2
REMARK    2  A    between atoms: C_2  and  C_4
REMARK    3  A    between atoms: C_2  and  O_29
REMARK    4  A    between atoms: C_10  and  C_28
REMARK    5  A    between atoms: C_15  and  C_16
REMARK    6  A    between atoms: C_19  and  O_27
REMARK    7  A    between atoms: C_22  and  O_26
REMARK    8  A    between atoms: O_29  and  C_30
REMARK    9  A    between atoms: C_30  and  C_31
REMARK   10  A    between atoms: C_31  and  C_32
REMARK   11  A    between atoms: C_32  and  C_33
REMARK   12  A    between atoms: C_32  and  C_34
REMARK   13  A    between atoms: C_32  and  O_35
REMARK                            x       y       z     vdW  Elec       q    Type
REMARK                         _______ _______ _______ _____ _____    ______ ____
ROOT
ATOM      1  C   UNL     1      -1.390  -0.707  -0.073  0.00  0.00    +0.024 C 
ATOM      2  C   UNL     1      -1.292  -2.252  -0.171  0.00  0.00    +0.007 C 
ATOM      3  C   UNL     1      -1.853  -2.637  -1.569  0.00  0.00    +0.009 C 
ATOM      4  C   UNL     1      -1.647  -1.356  -2.380  0.00  0.00    +0.021 C 
ATOM      5  C   UNL     1      -2.087  -0.271  -1.352  0.00  0.00    -0.020 C 
ATOM      6  C   UNL     1      -1.740   1.080  -1.933  0.00  0.00    +0.008 C 
ATOM      7  C   UNL     1      -2.658   1.312  -3.146  0.00  0.00    +0.005 C 
ATOM      8  C   UNL     1      -2.484   0.226  -4.205  0.00  0.00    +0.031 C 
ATOM      9  C   UNL     1      -2.529  -1.169  -3.580  0.00  0.00    -0.066 C 
ATOM     10  C   UNL     1      -3.304  -2.144  -4.054  0.00  0.00    -0.000 C 
ATOM     11  C   UNL     1      -3.602  -0.350  -1.155  0.00  0.00    +0.012 C 
ENDROOT
BRANCH  10  12
ATOM     12  C   UNL     1      -4.144  -1.904  -5.230  0.00  0.00    +0.004 C 
ATOM     13  C   UNL     1      -4.929  -2.891  -5.710  0.00  0.00    -0.040 C 
ATOM     14  C   UNL     1      -4.975  -4.259  -5.059  0.00  0.00    +0.067 C 
ATOM     15  C   UNL     1      -6.442  -4.674  -4.910  0.00  0.00    +0.122 C 
ATOM     16  C   UNL     1      -7.122  -4.676  -6.279  0.00  0.00    +0.067 C 
ATOM     17  C   UNL     1      -7.195  -3.246  -6.825  0.00  0.00    +0.147 C 
ATOM     18  C   UNL     1      -5.791  -2.688  -6.894  0.00  0.00    -0.023 C 
ATOM     19  C   UNL     1      -5.352  -2.045  -7.976  0.00  0.00    +0.015 C 
BRANCH  17  20
ATOM     20  O   UNL     1      -7.776  -3.257  -8.130  0.00  0.00    -0.387 OA
ATOM     21  H   UNL     1      -7.852  -2.382  -8.534  0.00  0.00    +0.210 HD
ENDBRANCH  17  20
BRANCH  15  22
ATOM     22  O   UNL     1      -6.510  -5.985  -4.345  0.00  0.00    -0.391 OA
ATOM     23  H   UNL     1      -6.101  -6.059  -3.472  0.00  0.00    +0.210 HD
ENDBRANCH  15  22
ENDBRANCH  10  12
BRANCH   1  25
ATOM     24  C   UNL     1       0.636  -0.427   1.362  0.00  0.00    +0.038 C 
ATOM     25  C   UNL     1       0.007  -0.090   0.008  0.00  0.00    +0.119 C 
BRANCH  25  26
ATOM     26  O   UNL     1       0.822  -0.618  -1.040  0.00  0.00    -0.376 OA
BRANCH  26  27
ATOM     27  C   UNL     1       1.830   0.284  -1.503  0.00  0.00    +0.163 C 
BRANCH  27  28
ATOM     28  C   UNL     1       2.637  -0.383  -2.619  0.00  0.00    +0.062 C 
BRANCH  28  29
ATOM     29  C   UNL     1       3.716   0.583  -3.114  0.00  0.00    +0.063 C 
ATOM     30  C   UNL     1       4.442  -0.034  -4.311  0.00  0.00    +0.041 C 
ATOM     31  C   UNL     1       3.066   1.902  -3.536  0.00  0.00    +0.041 C 
BRANCH  29  32
ATOM     32  O   UNL     1       4.654   0.829  -2.064  0.00  0.00    -0.389 OA
ATOM     33  H   UNL     1       5.105   0.035  -1.746  0.00  0.00    +0.210 HD
ENDBRANCH  29  32
ENDBRANCH  28  29
ENDBRANCH  27  28
ENDBRANCH  26  27
ENDBRANCH  25  26
ENDBRANCH   1  25
TORSDOF 9
