REMARK  Name = ZINC22804354
REMARK  7 active torsions:
REMARK  status: ('A' for Active; 'I' for Inactive)
REMARK    1  A    between atoms: C_4  and  C_7
REMARK    2  A    between atoms: C_7  and  C_8
REMARK    3  A    between atoms: C_7  and  N_14
REMARK    4  A    between atoms: N_17  and  C_20
REMARK    5  A    between atoms: C_20  and  N_21
REMARK    6  A    between atoms: C_28  and  C_31
REMARK    7  A    between atoms: C_28  and  O_39
REMARK                            x       y       z     vdW  Elec       q    Type
REMARK                         _______ _______ _______ _____ _____    ______ ____
ROOT
ATOM      1  N   UNL     1       5.531  -4.958  -4.588  0.00  0.00    -0.255 N 
ATOM      2  C   UNL     1       6.098  -4.433  -5.750  0.00  0.00    +0.044 A 
ATOM      3  C   UNL     1       5.598  -3.516  -6.673  0.00  0.00    +0.024 A 
ATOM      4  C   UNL     1       6.359  -3.144  -7.762  0.00  0.00    +0.002 A 
ATOM      5  C   UNL     1       7.622  -3.677  -7.947  0.00  0.00    +0.000 A 
ATOM      6  C   UNL     1       8.125  -4.588  -7.034  0.00  0.00    +0.009 A 
ATOM      7  C   UNL     1       7.367  -4.961  -5.947  0.00  0.00    +0.016 A 
ATOM      8  C   UNL     1       7.617  -5.908  -4.796  0.00  0.00    +0.189 C 
ATOM      9  C   UNL     1       6.352  -5.823  -3.968  0.00  0.00    +0.259 C 
ATOM     10  O   UNL     1       6.122  -6.423  -2.940  0.00  0.00    -0.272 OA
ENDROOT
BRANCH   8  11
ATOM     11  C   UNL     1       8.822  -5.447  -3.974  0.00  0.00    +0.187 C 
ATOM     12  C   UNL     1       9.159  -6.444  -2.870  0.00  0.00    +0.255 C 
ATOM     13  O   UNL     1       8.402  -6.720  -1.960  0.00  0.00    -0.272 OA
ATOM     14  N   UNL     1      10.349  -6.971  -3.009  0.00  0.00    -0.159 NA
ATOM     15  C   UNL     1      11.179  -6.680  -3.994  0.00  0.00    +0.145 C 
ATOM     16  S   UNL     1      10.379  -5.546  -4.949  0.00  0.00    -0.077 S 
ATOM     17  N   UNL     1      12.427  -7.191  -4.195  0.00  0.00    -0.340 N 
ATOM     18  H   UNL     1      12.790  -7.843  -3.575  0.00  0.00    +0.144 HD
ATOM     19  H   UNL     1      12.952  -6.902  -4.958  0.00  0.00    +0.144 HD
ENDBRANCH   8  11
BRANCH   8  20
ATOM     20  O   UNL     1       7.817  -7.239  -5.277  0.00  0.00    -0.373 OA
ATOM     21  H   UNL     1       7.069  -7.591  -5.779  0.00  0.00    +0.211 HD
ENDBRANCH   8  20
BRANCH   1  22
ATOM     22  C   UNL     1       4.197  -4.604  -4.098  0.00  0.00    +0.200 C 
BRANCH  22  26
ATOM     23  N   UNL     1       3.611  -1.868  -0.933  0.00  0.00    -0.289 NA
ATOM     24  C   UNL     1       3.199  -1.458  -2.282  0.00  0.00    +0.101 C 
ATOM     25  C   UNL     1       3.030  -2.700  -3.160  0.00  0.00    +0.101 C 
ATOM     26  N   UNL     1       4.297  -3.443  -3.203  0.00  0.00    -0.284 NA
ATOM     27  C   UNL     1       4.709  -3.853  -1.853  0.00  0.00    +0.101 C 
ATOM     28  C   UNL     1       4.878  -2.611  -0.975  0.00  0.00    +0.101 C 
BRANCH  23  29
ATOM     29  C   UNL     1       3.711  -0.707  -0.038  0.00  0.00    +0.117 C 
BRANCH  29  33
ATOM     30  C   UNL     1      -0.017   1.378   0.010  0.00  0.00    +0.000 A 
ATOM     31  C   UNL     1       1.171   2.086   0.002  0.00  0.00    +0.000 A 
ATOM     32  C   UNL     1       2.377   1.411  -0.013  0.00  0.00    +0.005 A 
ATOM     33  C   UNL     1       2.396   0.029  -0.020  0.00  0.00    -0.026 A 
ATOM     34  C   UNL     1       1.208  -0.679  -0.012  0.00  0.00    +0.005 A 
ATOM     35  C   UNL     1       0.002  -0.004   0.002  0.00  0.00    +0.000 A 
ENDBRANCH  29  33
BRANCH  29  36
ATOM     36  C   UNL     1       4.044  -1.175   1.356  0.00  0.00    -0.026 A 
ATOM     37  C   UNL     1       3.455  -2.320   1.860  0.00  0.00    +0.005 A 
ATOM     38  C   UNL     1       3.760  -2.748   3.138  0.00  0.00    +0.000 A 
ATOM     39  C   UNL     1       4.654  -2.033   3.912  0.00  0.00    +0.000 A 
ATOM     40  C   UNL     1       5.243  -0.888   3.408  0.00  0.00    +0.000 A 
ATOM     41  C   UNL     1       4.941  -0.462   2.128  0.00  0.00    +0.005 A 
ENDBRANCH  29  36
ENDBRANCH  23  29
ENDBRANCH  22  26
ENDBRANCH   1  22
TORSDOF 7
