REMARK  Name = ZINC01437995
REMARK  4 active torsions:
REMARK  status: ('A' for Active; 'I' for Inactive)
REMARK    1  A    between atoms: C_4  and  C_7
REMARK    2  A    between atoms: C_14  and  N_28
REMARK    3  A    between atoms: C_15  and  C_26
REMARK    4  A    between atoms: C_16  and  C_18
REMARK                            x       y       z     vdW  Elec       q    Type
REMARK                         _______ _______ _______ _____ _____    ______ ____
ROOT
ATOM      1  C   UNL     1       3.991  -0.942  -0.186  0.00  0.00    +0.100 A 
ATOM      2  C   UNL     1       4.136  -2.037   0.671  0.00  0.00    +0.054 A 
ATOM      3  C   UNL     1       5.407  -2.514   0.535  0.00  0.00    +0.223 A 
ATOM      4  N   UNL     1       6.038  -1.746  -0.378  0.00  0.00    -0.246 N 
ATOM      5  H   UNL     1       6.955  -1.853  -0.677  0.00  0.00    +0.192 HD
ATOM      6  N   UNL     1       5.134  -0.769  -0.822  0.00  0.00    -0.171 NA
ATOM      7  O   UNL     1       5.869  -3.579   1.237  0.00  0.00    -0.423 OA
ATOM      8  C   UNL     1       5.134  -4.002   2.286  0.00  0.00    +0.200 C 
ATOM      9  C   UNL     1       3.861  -3.610   2.519  0.00  0.00    +0.098 C 
ATOM     10  C   UNL     1       3.131  -2.652   1.611  0.00  0.00    +0.102 C 
ENDROOT
BRANCH  10  11
ATOM     11  C   UNL     1       2.086  -3.397   0.821  0.00  0.00    -0.033 A 
ATOM     12  C   UNL     1       2.465  -4.392  -0.061  0.00  0.00    +0.007 A 
ATOM     13  C   UNL     1       1.508  -5.076  -0.786  0.00  0.00    +0.040 A 
ATOM     14  C   UNL     1       0.168  -4.764  -0.629  0.00  0.00    +0.137 A 
ATOM     15  C   UNL     1      -0.211  -3.767   0.254  0.00  0.00    +0.053 A 
ATOM     16  C   UNL     1       0.749  -3.088   0.982  0.00  0.00    +0.022 A 
ATOM     17 BR   UNL     1      -2.041  -3.340   0.470  0.00  0.00    -0.047 Br
ATOM     18  F   UNL     1      -0.768  -5.432  -1.338  0.00  0.00    -0.204 F 
ENDBRANCH  10  11
BRANCH   1  22
ATOM     19  C   UNL     1       0.479   1.408  -0.671  0.00  0.00    +0.000 A 
ATOM     20  C   UNL     1       0.876   1.014   0.594  0.00  0.00    +0.001 A 
ATOM     21  C   UNL     1       2.014   0.252   0.757  0.00  0.00    +0.010 A 
ATOM     22  C   UNL     1       2.765  -0.122  -0.355  0.00  0.00    +0.003 A 
ATOM     23  C   UNL     1       2.361   0.277  -1.628  0.00  0.00    +0.010 A 
ATOM     24  C   UNL     1       1.221   1.040  -1.780  0.00  0.00    +0.001 A 
ENDBRANCH   1  22
BRANCH   8  25
ATOM     25  N   UNL     1       5.711  -4.881   3.168  0.00  0.00    -0.328 N 
ATOM     26  H   UNL     1       6.623  -5.180   3.027  0.00  0.00    +0.145 HD
ATOM     27  H   UNL     1       5.208  -5.202   3.932  0.00  0.00    +0.145 HD
ENDBRANCH   8  25
BRANCH   9  28
ATOM     28  C   UNL     1       3.181  -4.123   3.670  0.00  0.00    +0.101 C 
ATOM     29  N   UNL     1       2.642  -4.531   4.583  0.00  0.00    -0.191 NA
ENDBRANCH   9  28
TORSDOF 4
