REMARK  Name = ZINC24976710
REMARK  5 active torsions:
REMARK  status: ('A' for Active; 'I' for Inactive)
REMARK    1  A    between atoms: C_1  and  C_2
REMARK    2  A    between atoms: C_15  and  C_17
REMARK    3  A    between atoms: C_17  and  N_18
REMARK    4  A    between atoms: N_18  and  C_19
REMARK    5  A    between atoms: C_23  and  C_25
REMARK                            x       y       z     vdW  Elec       q    Type
REMARK                         _______ _______ _______ _____ _____    ______ ____
ROOT
ATOM      1  C   UNL     1       0.447   4.069   2.317  0.00  0.00    +0.029 C 
ATOM      2  C   UNL     1       1.591   4.138   1.304  0.00  0.00    +0.087 C 
ATOM      3  C   UNL     1       2.821   3.433   1.877  0.00  0.00    +0.118 C 
ATOM      4  C   UNL     1       3.808   3.138   0.779  0.00  0.00    +0.219 C 
ATOM      5  O   UNL     1       4.808   3.814   0.669  0.00  0.00    -0.275 OA
ATOM      6  N   UNL     1       3.585   2.124  -0.086  0.00  0.00    -0.284 N 
ATOM      7  C   UNL     1       2.390   1.397  -0.034  0.00  0.00    +0.055 A 
ATOM      8  C   UNL     1       2.400   0.012  -0.036  0.00  0.00    +0.025 A 
ATOM      9  C   UNL     1       1.206  -0.685  -0.015  0.00  0.00    +0.002 A 
ATOM     10  C   UNL     1       0.002  -0.004   0.002  0.00  0.00    +0.002 A 
ATOM     11  C   UNL     1      -0.017   1.379   0.010  0.00  0.00    +0.025 A 
ATOM     12  C   UNL     1       1.175   2.084   0.002  0.00  0.00    +0.058 A 
ATOM     13  N   UNL     1       1.177   3.484   0.061  0.00  0.00    -0.265 N 
ATOM     14  C   UNL     1       0.805   4.215  -1.008  0.00  0.00    +0.237 C 
ATOM     15  O   UNL     1       0.810   5.427  -0.946  0.00  0.00    -0.274 OA
ATOM     16  H   UNL     1       4.345   1.865  -0.837  0.00  0.00    +0.155 HD
ENDROOT
BRANCH  14  17
ATOM     17  C   UNL     1       0.382   3.528  -2.281  0.00  0.00    +0.198 C 
BRANCH  17  18
ATOM     18  N   UNL     1       0.028   4.535  -3.285  0.00  0.00    -0.335 N 
ATOM     19  H   UNL     1       0.097   5.605  -3.039  0.00  0.00    +0.147 HD
BRANCH  18  20
ATOM     20  C   UNL     1      -0.398   4.136  -4.555  0.00  0.00    +0.029 A 
ATOM     21  C   UNL     1      -0.480   2.783  -4.867  0.00  0.00    +0.024 A 
ATOM     22  C   UNL     1      -0.905   2.383  -6.119  0.00  0.00    +0.023 A 
ATOM     23  C   UNL     1      -1.242   3.323  -7.073  0.00  0.00    +0.058 A 
ATOM     24  C   UNL     1      -1.157   4.685  -6.771  0.00  0.00    +0.072 A 
ATOM     25  C   UNL     1      -0.733   5.088  -5.504  0.00  0.00    +0.043 A 
ATOM     26 CL   UNL     1      -1.770   2.814  -8.647  0.00  0.00    -0.082 Cl
BRANCH  24  27
ATOM     27  C   UNL     1      -1.506   5.663  -7.758  0.00  0.00    +0.101 C 
ATOM     28  N   UNL     1      -1.782   6.439  -8.540  0.00  0.00    -0.191 NA
ENDBRANCH  24  27
ENDBRANCH  18  20
ENDBRANCH  17  18
ENDBRANCH  14  17
TORSDOF 4
