REMARK  Name = ZINC15866615
REMARK  8 active torsions:
REMARK  status: ('A' for Active; 'I' for Inactive)
REMARK    1  A    between atoms: C_1  and  C_2
REMARK    2  A    between atoms: C_6  and  N_9
REMARK    3  A    between atoms: C_7  and  C_8
REMARK    4  A    between atoms: N_9  and  S_10
REMARK    5  A    between atoms: S_10  and  C_13
REMARK    6  A    between atoms: C_15  and  C_21
REMARK    7  A    between atoms: C_17  and  C_20
REMARK    8  A    between atoms: C_18  and  C_19
REMARK                            x       y       z     vdW  Elec       q    Type
REMARK                         _______ _______ _______ _____ _____    ______ ____
ROOT
ATOM      1  C   UNL     1      -1.130   1.923  -1.393  0.00  0.00    +0.112 A 
ATOM      2  C   UNL     1      -0.716   2.985  -2.171  0.00  0.00    +0.039 A 
ATOM      3  C   UNL     1      -1.370   3.264  -3.369  0.00  0.00    +0.004 A 
ATOM      4  C   UNL     1      -2.440   2.468  -3.775  0.00  0.00    +0.013 A 
ATOM      5  C   UNL     1      -2.845   1.409  -2.989  0.00  0.00    -0.045 A 
ATOM      6  C   UNL     1      -2.189   1.133  -1.803  0.00  0.00    -0.021 A 
ATOM      7  C   UNL     1      -2.632  -0.028  -0.951  0.00  0.00    +0.046 C 
ATOM      8  C   UNL     1      -4.002   0.547  -3.426  0.00  0.00    +0.044 C 
ENDROOT
BRANCH   3   9
ATOM      9  C   UNL     1      -0.929   4.404  -4.211  0.00  0.00    +0.091 A 
ATOM     10  C   UNL     1      -1.593   4.679  -5.429  0.00  0.00    +0.035 A 
ATOM     11  C   UNL     1      -1.164   5.738  -6.173  0.00  0.00    +0.073 A 
ATOM     12  C   UNL     1      -0.072   6.489  -5.685  0.00  0.00    +0.265 A 
ATOM     13  O   UNL     1       0.350   7.442  -6.320  0.00  0.00    -0.266 OA
ATOM     14  N   UNL     1       0.499   6.147  -4.516  0.00  0.00    -0.243 N 
ATOM     15  H   UNL     1       1.248   6.667  -4.186  0.00  0.00    +0.192 HD
ATOM     16  N   UNL     1       0.079   5.150  -3.824  0.00  0.00    -0.171 NA
ENDBRANCH   3   9
BRANCH   1  17
ATOM     17  S   UNL     1      -0.303   1.569   0.122  0.00  0.00    +0.073 S 
ATOM     18  O   UNL     1       0.729   2.535   0.257  0.00  0.00    -0.150 OA
ATOM     19  O   UNL     1      -1.315   1.392   1.105  0.00  0.00    -0.150 OA
BRANCH  17  20
ATOM     20  N   UNL     1       0.442   0.101  -0.058  0.00  0.00    -0.216 N 
ATOM     21  H   UNL     1       0.209  -0.637   0.526  0.00  0.00    +0.174 HD
BRANCH  20  27
ATOM     22  C   UNL     1       2.569  -2.775  -3.429  0.00  0.00    +0.044 C 
ATOM     23  C   UNL     1       2.461  -1.458  -2.704  0.00  0.00    -0.046 A 
ATOM     24  C   UNL     1       3.319  -0.421  -3.023  0.00  0.00    +0.004 A 
ATOM     25  C   UNL     1       3.223   0.788  -2.360  0.00  0.00    +0.002 A 
ATOM     26  C   UNL     1       2.270   0.965  -1.376  0.00  0.00    +0.025 A 
ATOM     27  C   UNL     1       1.407  -0.074  -1.053  0.00  0.00    +0.051 A 
ATOM     28  C   UNL     1       1.509  -1.290  -1.717  0.00  0.00    -0.025 A 
ATOM     29  C   UNL     1       0.579  -2.422  -1.365  0.00  0.00    +0.046 C 
ENDBRANCH  20  27
ENDBRANCH  17  20
ENDBRANCH   1  17
TORSDOF 4
