REMARK  Name = ZINC21247744
REMARK  7 active torsions:
REMARK  status: ('A' for Active; 'I' for Inactive)
REMARK    1  A    between atoms: C_1  and  C_2
REMARK    2  A    between atoms: C_2  and  C_3
REMARK    3  A    between atoms: C_6  and  C_9
REMARK    4  A    between atoms: C_14  and  C_19
REMARK    5  A    between atoms: C_22  and  N_25
REMARK    6  A    between atoms: N_25  and  C_26
REMARK    7  A    between atoms: N_25  and  C_27
REMARK                            x       y       z     vdW  Elec       q    Type
REMARK                         _______ _______ _______ _____ _____    ______ ____
ROOT
ATOM      1  C   UNL     1       2.797  -1.918   4.684  0.00  0.00    +0.136 C 
ATOM      2  C   UNL     1       2.803  -3.427   4.654  0.00  0.00    +0.036 C 
ATOM      3  C   UNL     1       3.874  -4.208   4.434  0.00  0.00    +0.017 C 
ATOM      4  C   UNL     1       3.742  -5.721   4.445  0.00  0.00    +0.059 C 
ATOM      5  C   UNL     1       2.359  -6.128   3.941  0.00  0.00    +0.032 C 
ATOM      6  C   UNL     1       1.318  -5.493   4.870  0.00  0.00    +0.088 C 
ATOM      7  C   UNL     1       1.533  -4.009   4.882  0.00  0.00    +0.163 C 
ATOM      8  O   UNL     1       0.584  -3.280   5.096  0.00  0.00    -0.292 OA
ATOM      9  N   UNL     1       5.131  -3.747   4.208  0.00  0.00    -0.316 N 
ATOM     10  C   UNL     1       5.457  -2.719   3.331  0.00  0.00    +0.052 A 
ATOM     11  C   UNL     1       6.275  -2.917   2.232  0.00  0.00    +0.025 A 
ATOM     12  C   UNL     1       6.656  -1.828   1.466  0.00  0.00    +0.002 A 
ATOM     13  C   UNL     1       6.222  -0.557   1.796  0.00  0.00    +0.002 A 
ATOM     14  C   UNL     1       5.386  -0.361   2.882  0.00  0.00    +0.025 A 
ATOM     15  C   UNL     1       4.989  -1.451   3.640  0.00  0.00    +0.049 A 
ATOM     16  N   UNL     1       4.111  -1.311   4.713  0.00  0.00    -0.331 N 
ATOM     17  H   UNL     1       5.984  -4.194   4.740  0.00  0.00    +0.152 HD
ATOM     18  H   UNL     1       4.428  -0.730   5.591  0.00  0.00    +0.147 HD
ENDROOT
BRANCH   1  22
ATOM     19  C   UNL     1       0.730  -0.506   1.222  0.00  0.00    -0.048 A 
ATOM     20  C   UNL     1       0.209  -0.273   2.482  0.00  0.00    +0.004 A 
ATOM     21  C   UNL     1       0.876  -0.734   3.601  0.00  0.00    +0.006 A 
ATOM     22  C   UNL     1       2.068  -1.419   3.463  0.00  0.00    -0.023 A 
ATOM     23  C   UNL     1       2.592  -1.647   2.204  0.00  0.00    +0.006 A 
ATOM     24  C   UNL     1       1.923  -1.190   1.084  0.00  0.00    +0.004 A 
BRANCH  19  26
ATOM     25  C   UNL     1      -0.970  -1.085  -0.488  0.00  0.00    +0.009 C 
ATOM     26  C   UNL     1       0.001  -0.007   0.001  0.00  0.00    +0.032 C 
ENDBRANCH  19  26
ENDBRANCH   1  22
BRANCH   5  27
ATOM     27  C   UNL     1       2.224  -7.629   3.974  0.00  0.00    -0.043 A 
ATOM     28  C   UNL     1       2.357  -8.307   5.172  0.00  0.00    +0.006 A 
ATOM     29  C   UNL     1       2.229  -9.682   5.207  0.00  0.00    +0.023 A 
ATOM     30  C   UNL     1       1.978 -10.384   4.036  0.00  0.00    +0.029 A 
ATOM     31  C   UNL     1       1.850  -9.701   2.833  0.00  0.00    +0.023 A 
ATOM     32  C   UNL     1       1.974  -8.325   2.806  0.00  0.00    +0.006 A 
BRANCH  30  33
ATOM     33  N   UNL     1       1.853 -11.775   4.067  0.00  0.00    -0.336 N 
ATOM     34  C   UNL     1       1.587 -12.514   2.830  0.00  0.00    +0.129 C 
ATOM     35  C   UNL     1       1.987 -12.495   5.336  0.00  0.00    +0.129 C 
ENDBRANCH  30  33
ENDBRANCH   5  27
TORSDOF 4
