REMARK  Name = ZINC08961151
REMARK  9 active torsions:
REMARK  status: ('A' for Active; 'I' for Inactive)
REMARK    1  A    between atoms: C_1  and  C_2
REMARK    2  A    between atoms: C_2  and  N_3
REMARK    3  A    between atoms: C_14  and  N_19
REMARK    4  A    between atoms: N_19  and  S_20
REMARK    5  A    between atoms: S_20  and  C_23
REMARK    6  A    between atoms: C_26  and  N_29
REMARK    7  A    between atoms: C_30  and  C_32
REMARK    8  A    between atoms: C_32  and  C_33
REMARK    9  A    between atoms: C_32  and  C_34
REMARK                            x       y       z     vdW  Elec       q    Type
REMARK                         _______ _______ _______ _____ _____    ______ ____
ROOT
ATOM      1  N   UNL     1       1.998   0.023  -0.894  0.00  0.00    -0.264 N 
ATOM      2  C   UNL     1       0.946  -0.602  -1.562  0.00  0.00    +0.079 A 
ATOM      3  C   UNL     1       1.210  -1.273  -2.752  0.00  0.00    +0.027 A 
ATOM      4  C   UNL     1       0.205  -1.964  -3.399  0.00  0.00    +0.002 A 
ATOM      5  C   UNL     1      -1.070  -1.994  -2.867  0.00  0.00    +0.004 A 
ATOM      6  C   UNL     1      -1.345  -1.317  -1.694  0.00  0.00    +0.048 A 
ATOM      7  C   UNL     1      -0.344  -0.609  -1.044  0.00  0.00    +0.150 A 
ATOM      8  O   UNL     1      -0.649   0.073   0.087  0.00  0.00    -0.453 OA
ATOM      9  C   UNL     1      -0.516   1.419   0.081  0.00  0.00    +0.141 A 
ATOM     10  C   UNL     1      -1.635   2.220   0.264  0.00  0.00    +0.049 A 
ATOM     11  C   UNL     1      -1.521   3.595   0.229  0.00  0.00    +0.028 A 
ATOM     12  C   UNL     1      -0.283   4.190   0.008  0.00  0.00    +0.049 A 
ATOM     13  C   UNL     1       0.843   3.404  -0.164  0.00  0.00    +0.041 A 
ATOM     14  C   UNL     1       0.736   2.011  -0.115  0.00  0.00    +0.081 A 
ATOM     15  C   UNL     1       1.942   1.181  -0.249  0.00  0.00    +0.255 C 
ATOM     16  O   UNL     1       2.964   1.586   0.270  0.00  0.00    -0.270 OA
ENDROOT
BRANCH   1  18
ATOM     17  C   UNL     1       3.434  -1.502   0.367  0.00  0.00    +0.025 C 
ATOM     18  C   UNL     1       3.291  -0.665  -0.905  0.00  0.00    +0.111 C 
ENDBRANCH   1  18
BRANCH  12  19
ATOM     19  N   UNL     1      -0.177   5.584  -0.039  0.00  0.00    -0.216 N 
ATOM     20  H   UNL     1      -0.232   6.103   0.779  0.00  0.00    +0.174 HD
BRANCH  19  21
ATOM     21  S   UNL     1       0.043   6.349  -1.491  0.00  0.00    +0.072 S 
ATOM     22  O   UNL     1       0.043   7.744  -1.220  0.00  0.00    -0.150 OA
ATOM     23  O   UNL     1       1.132   5.698  -2.132  0.00  0.00    -0.150 OA
BRANCH  21  24
ATOM     24  C   UNL     1      -1.385   6.026  -2.472  0.00  0.00    +0.109 A 
ATOM     25  C   UNL     1      -1.378   4.981  -3.377  0.00  0.00    +0.030 A 
ATOM     26  C   UNL     1      -2.497   4.722  -4.144  0.00  0.00    +0.025 A 
ATOM     27  C   UNL     1      -3.627   5.520  -4.012  0.00  0.00    +0.034 A 
ATOM     28  C   UNL     1      -3.628   6.572  -3.106  0.00  0.00    +0.025 A 
ATOM     29  C   UNL     1      -2.507   6.823  -2.339  0.00  0.00    +0.030 A 
BRANCH  27  30
ATOM     30  N   UNL     1      -4.761   5.263  -4.791  0.00  0.00    -0.285 N 
ATOM     31  C   UNL     1      -5.537   6.283  -5.208  0.00  0.00    +0.220 C 
ATOM     32  O   UNL     1      -5.202   7.428  -4.989  0.00  0.00    -0.275 OA
ATOM     33  H   UNL     1      -4.989   4.351  -5.030  0.00  0.00    +0.155 HD
BRANCH  31  34
ATOM     34  C   UNL     1      -6.820   6.001  -5.946  0.00  0.00    +0.069 C 
ATOM     35  C   UNL     1      -7.504   7.322  -6.303  0.00  0.00    +0.017 C 
ATOM     36  C   UNL     1      -6.511   5.224  -7.227  0.00  0.00    +0.017 C 
ENDBRANCH  31  34
ENDBRANCH  27  30
ENDBRANCH  21  24
ENDBRANCH  19  21
ENDBRANCH  12  19
TORSDOF 6
