REMARK  Name = ZINC27715305
REMARK  7 active torsions:
REMARK  status: ('A' for Active; 'I' for Inactive)
REMARK    1  A    between atoms: C_1  and  C_2
REMARK    2  A    between atoms: C_2  and  C_3
REMARK    3  A    between atoms: C_2  and  C_4
REMARK    4  A    between atoms: C_7  and  S_10
REMARK    5  A    between atoms: S_10  and  N_13
REMARK    6  A    between atoms: N_16  and  C_19
REMARK    7  A    between atoms: C_19  and  C_20
REMARK                            x       y       z     vdW  Elec       q    Type
REMARK                         _______ _______ _______ _____ _____    ______ ____
ROOT
ATOM      1  N   UNL     1      -0.997   1.754  -1.266  0.00  0.00    -0.180 NA
ATOM      2  C   UNL     1      -1.858   0.926  -2.124  0.00  0.00    +0.091 C 
ATOM      3  C   UNL     1      -3.209   1.641  -2.283  0.00  0.00    -0.061 C 
ATOM      4  N   UNL     1      -2.980   3.009  -2.768  0.00  0.00    +0.386 N 
ATOM      5  C   UNL     1      -2.215   3.798  -1.794  0.00  0.00    -0.061 C 
ATOM      6  C   UNL     1      -0.828   3.173  -1.611  0.00  0.00    +0.091 C 
ATOM      7  H   UNL     1      -2.381   2.941  -3.688  0.00  0.00    -0.081 HD
ENDROOT
BRANCH   1   8
ATOM      8  S   UNL     1      -0.232   1.103   0.051  0.00  0.00    +0.061 S 
ATOM      9  O   UNL     1      -0.121  -0.293  -0.193  0.00  0.00    -0.153 OA
ATOM     10  O   UNL     1       0.900   1.922   0.309  0.00  0.00    -0.153 OA
BRANCH   8  14
ATOM     11  C   UNL     1      -3.014   1.583   3.589  0.00  0.00    -0.045 A 
ATOM     12  C   UNL     1      -3.080   0.445   2.807  0.00  0.00    +0.006 A 
ATOM     13  C   UNL     1      -2.231   0.298   1.726  0.00  0.00    +0.029 A 
ATOM     14  C   UNL     1      -1.315   1.290   1.428  0.00  0.00    +0.105 A 
ATOM     15  C   UNL     1      -1.245   2.425   2.213  0.00  0.00    +0.029 A 
ATOM     16  C   UNL     1      -2.098   2.574   3.291  0.00  0.00    +0.006 A 
BRANCH  11  18
ATOM     17  C   UNL     1      -3.118   1.883   6.048  0.00  0.00    +0.012 C 
ATOM     18  C   UNL     1      -3.941   1.743   4.766  0.00  0.00    +0.013 C 
ATOM     19  C   UNL     1      -4.799   2.995   4.572  0.00  0.00    +0.012 C 
ENDBRANCH  11  18
ENDBRANCH   8  14
ENDBRANCH   1   8
BRANCH   4  20
ATOM     20  C   UNL     1      -4.250   3.669  -3.100  0.00  0.00    -0.001 C 
BRANCH  20  21
ATOM     21  C   UNL     1      -3.970   4.953  -3.839  0.00  0.00    +0.117 A 
ATOM     22  N   UNL     1      -5.014   5.774  -4.122  0.00  0.00    -0.196 NA
ATOM     23  C   UNL     1      -4.816   6.939  -4.783  0.00  0.00    +0.281 A 
ATOM     24  O   UNL     1      -5.742   7.684  -5.042  0.00  0.00    -0.265 OA
ATOM     25  C   UNL     1      -3.438   7.268  -5.175  0.00  0.00    +0.067 A 
ATOM     26  C   UNL     1      -3.126   8.442  -5.858  0.00  0.00    +0.017 A 
ATOM     27  C   UNL     1      -1.828   8.701  -6.200  0.00  0.00    +0.021 A 
ATOM     28  C   UNL     1      -0.816   7.807  -5.872  0.00  0.00    +0.043 A 
ATOM     29  C   UNL     1      -1.098   6.639  -5.197  0.00  0.00    +0.048 A 
ATOM     30  C   UNL     1      -2.416   6.353  -4.838  0.00  0.00    +0.080 A 
ATOM     31  N   UNL     1      -2.742   5.219  -4.168  0.00  0.00    -0.234 NA
ATOM     32 CL   UNL     1       0.823   8.165  -6.319  0.00  0.00    -0.083 Cl
ENDBRANCH  20  21
ENDBRANCH   4  20
TORSDOF 5
