REMARK  Name = ZINC65615471
REMARK  7 active torsions:
REMARK  status: ('A' for Active; 'I' for Inactive)
REMARK    1  A    between atoms: C_1  and  C_2
REMARK    2  A    between atoms: C_3  and  C_9
REMARK    3  A    between atoms: C_4  and  C_8
REMARK    4  A    between atoms: N_5  and  C_7
REMARK    5  A    between atoms: C_9  and  C_10
REMARK    6  A    between atoms: C_9  and  N_11
REMARK    7  A    between atoms: C_12  and  C_14
REMARK                            x       y       z     vdW  Elec       q    Type
REMARK                         _______ _______ _______ _____ _____    ______ ____
ROOT
ATOM      1  N   UNL     1      -0.616   0.845  -2.745  0.00  0.00    -0.301 N 
ATOM      2  C   UNL     1      -1.168   1.100  -3.947  0.00  0.00    +0.300 C 
ATOM      3  O   UNL     1      -0.976   0.343  -4.876  0.00  0.00    -0.265 OA
ATOM      4  H   UNL     1      -0.769   1.450  -2.002  0.00  0.00    +0.150 HD
ENDROOT
BRANCH   2   5
ATOM      5  C   UNL     1      -2.017   2.313  -4.136  0.00  0.00    +0.306 C 
ATOM      6  O   UNL     1      -2.210   3.071  -3.207  0.00  0.00    -0.265 OA
ATOM      7  N   UNL     1      -2.570   2.569  -5.338  0.00  0.00    -0.263 N 
ATOM      8  C   UNL     1      -3.405   3.763  -5.546  0.00  0.00    +0.115 C 
ATOM      9  C   UNL     1      -4.854   3.473  -5.252  0.00  0.00    +0.030 C 
ATOM     10  C   UNL     1      -5.534   2.510  -6.212  0.00  0.00    +0.076 C 
ATOM     11  S   UNL     1      -4.895   0.827  -5.968  0.00  0.00    -0.123 S 
ATOM     12  C   UNL     1      -3.365   0.855  -6.872  0.00  0.00    +0.029 A 
ATOM     13  C   UNL     1      -2.360   1.710  -6.418  0.00  0.00    +0.050 A 
ATOM     14  C   UNL     1      -1.131   1.713  -7.071  0.00  0.00    +0.024 A 
ATOM     15  C   UNL     1      -0.935   0.902  -8.173  0.00  0.00    +0.002 A 
ATOM     16  C   UNL     1      -1.947   0.084  -8.640  0.00  0.00    +0.001 A 
ATOM     17  C   UNL     1      -3.182   0.052  -7.979  0.00  0.00    +0.016 A 
ENDBRANCH   2   5
BRANCH   1  18
ATOM     18  C   UNL     1       0.218  -0.346  -2.559  0.00  0.00    +0.104 C 
ATOM     19  C   UNL     1       1.648  -0.043  -3.010  0.00  0.00    +0.033 C 
BRANCH  18  22
ATOM     20  C   UNL     1      -0.183  -3.272  -1.411  0.00  0.00    +0.068 C 
ATOM     21  C   UNL     1       0.045  -2.026  -0.595  0.00  0.00    +0.065 A 
ATOM     22  C   UNL     1       0.222  -0.734  -1.103  0.00  0.00    +0.016 A 
ATOM     23  C   UNL     1       0.397   0.105  -0.056  0.00  0.00    +0.041 A 
ATOM     24  N   UNL     1       0.334  -0.630   1.075  0.00  0.00    -0.271 N 
ATOM     25  N   UNL     1       0.107  -1.963   0.710  0.00  0.00    -0.176 NA
ATOM     26  C   UNL     1       0.473  -0.122   2.442  0.00  0.00    +0.172 C 
ATOM     27  C   UNL     1       0.623   1.592  -0.137  0.00  0.00    +0.065 C 
ENDBRANCH  18  22
ENDBRANCH   1  18
TORSDOF 3
