REMARK  Name = ZINC08234535
REMARK  3 active torsions:
REMARK  status: ('A' for Active; 'I' for Inactive)
REMARK    1  A    between atoms: C_4  and  N_6
REMARK    2  A    between atoms: C_8  and  C_13
REMARK    3  A    between atoms: N_15  and  C_16
REMARK                            x       y       z     vdW  Elec       q    Type
REMARK                         _______ _______ _______ _____ _____    ______ ____
ROOT
ATOM      1  N   UNL     1       1.077   1.993   0.003  0.00  0.00    -0.298 N 
ATOM      2  C   UNL     1       0.711   3.415   0.003  0.00  0.00    +0.121 C 
ATOM      3  C   UNL     1      -0.768   3.460   0.446  0.00  0.00    +0.101 C 
ATOM      4  C   UNL     1      -1.266   2.058   0.019  0.00  0.00    +0.110 C 
ATOM      5  C   UNL     1      -0.014   1.209   0.009  0.00  0.00    +0.217 C 
ATOM      6  O   UNL     1       0.002  -0.004   0.002  0.00  0.00    -0.276 OA
ENDROOT
BRANCH   1  10
ATOM      7  C   UNL     1       3.610  -0.542  -0.689  0.00  0.00    +0.002 C 
ATOM      8  C   UNL     1       3.079  -0.775   0.747  0.00  0.00    +0.002 C 
ATOM      9  C   UNL     1       2.709   0.636   1.248  0.00  0.00    +0.022 C 
ATOM     10  C   UNL     1       2.454   1.494  -0.004  0.00  0.00    +0.076 C 
ATOM     11  C   UNL     1       2.677   0.574  -1.222  0.00  0.00    +0.022 C 
ENDBRANCH   1  10
BRANCH   3  12
ATOM     12  C   UNL     1      -1.518   4.543  -0.286  0.00  0.00    +0.219 C 
ATOM     13  O   UNL     1      -0.942   5.235  -1.100  0.00  0.00    -0.275 OA
ATOM     14  N   UNL     1      -2.827   4.742  -0.038  0.00  0.00    -0.304 N 
ATOM     15  H   UNL     1      -3.287   4.188   0.612  0.00  0.00    +0.149 HD
BRANCH  14  16
ATOM     16  C   UNL     1      -3.556   5.794  -0.750  0.00  0.00    +0.151 C 
ATOM     17  C   UNL     1      -4.688   6.303   0.141  0.00  0.00    +0.042 C 
ATOM     18  C   UNL     1      -5.773   6.946  -0.753  0.00  0.00    +0.079 C 
ATOM     19  S   UNL     1      -5.620   5.961  -2.289  0.00  0.00    -0.086 S 
ATOM     20  C   UNL     1      -4.063   5.238  -2.062  0.00  0.00    +0.209 C 
ATOM     21  O   UNL     1      -3.499   4.454  -2.797  0.00  0.00    -0.283 OA
ENDBRANCH  14  16
ENDBRANCH   3  12
TORSDOF 3
