REMARK  Name = ZINC20706560
REMARK  6 active torsions:
REMARK  status: ('A' for Active; 'I' for Inactive)
REMARK    1  A    between atoms: C_4  and  C_7
REMARK    2  A    between atoms: C_7  and  C_8
REMARK    3  A    between atoms: C_8  and  C_9
REMARK    4  A    between atoms: N_11  and  C_12
REMARK    5  A    between atoms: C_25  and  C_28
REMARK    6  A    between atoms: C_30  and  N_35
REMARK                            x       y       z     vdW  Elec       q    Type
REMARK                         _______ _______ _______ _____ _____    ______ ____
ROOT
ATOM      1  C   UNL     1      -0.021   1.397   0.004  0.00  0.00    +0.034 A 
ATOM      2  C   UNL     1      -1.234   2.074   0.006  0.00  0.00    +0.025 A 
ATOM      3  C   UNL     1      -1.257   3.453   0.019  0.00  0.00    +0.025 A 
ATOM      4  C   UNL     1      -0.070   4.176   0.021  0.00  0.00    +0.031 A 
ATOM      5  C   UNL     1       1.150   3.491   0.004  0.00  0.00    -0.018 A 
ATOM      6  C   UNL     1       1.168   2.113  -0.002  0.00  0.00    +0.029 A 
ATOM      7  C   UNL     1       2.387   4.300  -0.022  0.00  0.00    +0.049 C 
ATOM      8  C   UNL     1       3.673   3.785   0.514  0.00  0.00    -0.023 C 
ATOM      9  C   UNL     1       4.375   4.807   0.987  0.00  0.00    -0.030 C 
ATOM     10  C   UNL     1       3.580   6.105   0.830  0.00  0.00    +0.033 C 
ATOM     11  C   UNL     1       2.137   5.584   0.824  0.00  0.00    +0.029 C 
ATOM     12  C   UNL     1       1.113   6.390   0.045  0.00  0.00    +0.106 C 
ATOM     13  N   UNL     1      -0.123   5.577   0.053  0.00  0.00    -0.336 N 
ATOM     14  H   UNL     1      -1.105   6.070   0.085  0.00  0.00    +0.147 HD
ENDROOT
BRANCH  12  15
ATOM     15  C   UNL     1       1.586   6.604  -1.370  0.00  0.00    -0.007 A 
ATOM     16  C   UNL     1       1.099   5.807  -2.389  0.00  0.00    +0.039 A 
ATOM     17  C   UNL     1       1.530   6.006  -3.688  0.00  0.00    +0.127 A 
ATOM     18  C   UNL     1       2.454   6.996  -3.966  0.00  0.00    +0.034 A 
ATOM     19  C   UNL     1       2.946   7.789  -2.947  0.00  0.00    +0.022 A 
ATOM     20  C   UNL     1       2.511   7.594  -1.648  0.00  0.00    +0.046 A 
ATOM     21 CL   UNL     1       3.128   8.590  -0.367  0.00  0.00    -0.083 Cl
BRANCH  17  22
ATOM     22  N   UNL     1       1.004   5.157  -4.780  0.00  0.00    +0.056 N 
ATOM     23  O   UNL     1       1.386   5.329  -5.923  0.00  0.00    -0.126 OA
ATOM     24  O   UNL     1       0.189   4.285  -4.535  0.00  0.00    -0.126 OA
ENDBRANCH  17  22
ENDBRANCH  12  15
BRANCH   1  27
ATOM     25  C   UNL     1      -0.938  -0.695   0.677  0.00  0.00    +0.218 C 
ATOM     26  O   UNL     1      -1.853  -0.107   1.215  0.00  0.00    -0.275 OA
ATOM     27  N   UNL     1       0.002  -0.004   0.002  0.00  0.00    -0.285 N 
ATOM     28  H   UNL     1       0.788  -0.540  -0.550  0.00  0.00    +0.155 HD
BRANCH  25  29
ATOM     29  C   UNL     1      -0.854  -2.197   0.762  0.00  0.00    +0.101 C 
BRANCH  29  30
ATOM     30  C   UNL     1      -2.034  -2.728   1.578  0.00  0.00    +0.044 C 
BRANCH  30  34
ATOM     31  C   UNL     1      -1.796  -6.986   1.822  0.00  0.00    +0.000 A 
ATOM     32  C   UNL     1      -1.184  -6.204   2.783  0.00  0.00    +0.000 A 
ATOM     33  C   UNL     1      -1.261  -4.826   2.704  0.00  0.00    +0.003 A 
ATOM     34  C   UNL     1      -1.950  -4.230   1.664  0.00  0.00    -0.047 A 
ATOM     35  C   UNL     1      -2.565  -5.013   0.705  0.00  0.00    +0.003 A 
ATOM     36  C   UNL     1      -2.484  -6.391   0.781  0.00  0.00    +0.000 A 
ENDBRANCH  30  34
ENDBRANCH  29  30
ENDBRANCH  25  29
ENDBRANCH   1  27
TORSDOF 6
