REMARK  Name = ZINC28120838
REMARK  10 active torsions:
REMARK  status: ('A' for Active; 'I' for Inactive)
REMARK    1  A    between atoms: C_1  and  C_2
REMARK    2  A    between atoms: C_2  and  C_3
REMARK    3  A    between atoms: C_8  and  C_27
REMARK    4  A    between atoms: C_9  and  C_24
REMARK    5  A    between atoms: C_12  and  C_15
REMARK    6  A    between atoms: C_13  and  O_14
REMARK    7  A    between atoms: C_15  and  N_16
REMARK    8  A    between atoms: C_21  and  C_23
REMARK    9  A    between atoms: C_24  and  C_25
REMARK   10  A    between atoms: C_24  and  C_26
REMARK                            x       y       z     vdW  Elec       q    Type
REMARK                         _______ _______ _______ _____ _____    ______ ____
ROOT
ATOM      1  C   UNL     1       5.091   4.163   0.820  0.00  0.00    -0.005 A 
ATOM      2  C   UNL     1       5.480   3.942   2.111  0.00  0.00    +0.022 A 
ATOM      3  C   UNL     1       4.568   3.420   3.029  0.00  0.00    +0.065 A 
ATOM      4  C   UNL     1       4.953   3.169   4.430  0.00  0.00    +0.202 A 
ATOM      5  O   UNL     1       6.077   3.407   4.837  0.00  0.00    -0.286 OA
ATOM      6  C   UNL     1       3.912   2.615   5.315  0.00  0.00    +0.093 A 
ATOM      7  C   UNL     1       2.676   2.372   4.797  0.00  0.00    +0.122 A 
ATOM      8  O   UNL     1       2.373   2.614   3.521  0.00  0.00    -0.458 OA
ATOM      9  C   UNL     1       3.252   3.124   2.635  0.00  0.00    +0.144 A 
ATOM     10  C   UNL     1       2.874   3.349   1.318  0.00  0.00    +0.021 A 
ATOM     11  C   UNL     1       3.791   3.868   0.418  0.00  0.00    +0.125 A 
ENDROOT
BRANCH   6  12
ATOM     12  C   UNL     1       4.203   2.330   6.734  0.00  0.00    +0.116 A 
ATOM     13  N   UNL     1       3.379   1.940   7.684  0.00  0.00    -0.239 NA
ATOM     14  C   UNL     1       3.788   1.712   8.948  0.00  0.00    +0.079 A 
ATOM     15  C   UNL     1       3.014   1.289  10.054  0.00  0.00    +0.029 A 
ATOM     16  C   UNL     1       3.583   1.109  11.275  0.00  0.00    +0.002 A 
ATOM     17  C   UNL     1       4.936   1.330  11.488  0.00  0.00    +0.001 A 
ATOM     18  C   UNL     1       5.729   1.745  10.434  0.00  0.00    +0.017 A 
ATOM     19  C   UNL     1       5.164   1.929   9.196  0.00  0.00    +0.040 A 
ATOM     20  S   UNL     1       5.762   2.435   7.602  0.00  0.00    -0.067 S 
ENDBRANCH   6  12
BRANCH   7  21
ATOM     21  C   UNL     1       1.610   1.806   5.700  0.00  0.00    +0.050 C 
ATOM     22  C   UNL     1       0.827   2.951   6.344  0.00  0.00    +0.015 C 
ATOM     23  C   UNL     1       0.657   0.934   4.879  0.00  0.00    +0.015 C 
ENDBRANCH   7  21
BRANCH   1  25
ATOM     24  C   UNL     1       5.908   6.247  -0.247  0.00  0.00    +0.009 C 
ATOM     25  C   UNL     1       6.074   4.727  -0.173  0.00  0.00    +0.035 C 
ENDBRANCH   1  25
BRANCH  11  26
ATOM     26  O   UNL     1       3.417   4.092  -0.868  0.00  0.00    -0.506 OA
ATOM     27  H   UNL     1       2.392   3.861  -1.191  0.00  0.00    +0.292 HD
ENDBRANCH  11  26
BRANCH  10  28
ATOM     28  C   UNL     1       1.470   3.036   0.870  0.00  0.00    -0.035 C 
BRANCH  28  29
ATOM     29  N   UNL     1       1.409   1.650   0.386  0.00  0.00    +0.384 N 
ATOM     30  C   UNL     1       2.296   1.456  -0.768  0.00  0.00    -0.078 C 
ATOM     31  C   UNL     1       2.317  -0.025  -1.153  0.00  0.00    -0.019 C 
ATOM     32  C   UNL     1       0.895  -0.479  -1.497  0.00  0.00    -0.003 C 
ATOM     33  C   UNL     1      -0.018  -0.221  -0.295  0.00  0.00    -0.016 C 
ATOM     34  C   UNL     1       0.028   1.266   0.065  0.00  0.00    -0.071 C 
ATOM     35  C   UNL     1      -0.868   1.524   1.278  0.00  0.00    -0.013 C 
ATOM     36  H   UNL     1       1.761   0.992   1.194  0.00  0.00    -0.081 HD
ENDBRANCH  28  29
ENDBRANCH  10  28
TORSDOF 6
