REMARK  Name = ZINC40948589
REMARK  11 active torsions:
REMARK  status: ('A' for Active; 'I' for Inactive)
REMARK    1  A    between atoms: C_1  and  C_2
REMARK    2  A    between atoms: C_9  and  N_14
REMARK    3  A    between atoms: C_10  and  C_11
REMARK    4  A    between atoms: C_15  and  C_17
REMARK    5  A    between atoms: C_17  and  C_18
REMARK    6  A    between atoms: C_18  and  C_19
REMARK    7  A    between atoms: C_19  and  O_20
REMARK    8  A    between atoms: O_20  and  C_21
REMARK    9  A    between atoms: C_24  and  C_28
REMARK   10  A    between atoms: C_28  and  C_29
REMARK   11  A    between atoms: C_28  and  C_30
REMARK                            x       y       z     vdW  Elec       q    Type
REMARK                         _______ _______ _______ _____ _____    ______ ____
ROOT
ATOM      1  N   UNL     1       0.696  -5.847   2.434  0.00  0.00    -0.279 N 
ATOM      2  C   UNL     1       1.677  -6.096   3.324  0.00  0.00    +0.218 C 
ATOM      3  O   UNL     1       2.383  -5.191   3.716  0.00  0.00    -0.275 OA
ATOM      4  H   UNL     1       0.131  -6.571   2.120  0.00  0.00    +0.155 HD
ENDROOT
BRANCH   1  12
ATOM      5  C   UNL     1      -0.019   1.526   0.010  0.00  0.00    +0.008 C 
ATOM      6  C   UNL     1       0.002  -0.004   0.002  0.00  0.00    -0.009 C 
ATOM      7  C   UNL     1      -1.434  -0.537   0.019  0.00  0.00    +0.008 C 
ATOM      8  C   UNL     1      -1.433  -2.045  -0.237  0.00  0.00    +0.037 C 
ATOM      9  C   UNL     1      -0.464  -2.704   0.734  0.00  0.00    -0.023 A 
ATOM     10  C   UNL     1       0.485  -1.986   1.374  0.00  0.00    -0.004 A 
ATOM     11  S   UNL     1       1.343  -3.167   2.373  0.00  0.00    -0.077 S 
ATOM     12  C   UNL     1       0.492  -4.557   1.968  0.00  0.00    +0.084 A 
ATOM     13  C   UNL     1      -0.459  -4.119   1.061  0.00  0.00    +0.068 A 
ATOM     14  C   UNL     1       0.739  -0.515   1.248  0.00  0.00    +0.046 C 
BRANCH  13  15
ATOM     15  C   UNL     1      -1.421  -5.045   0.456  0.00  0.00    +0.244 C 
ATOM     16  O   UNL     1      -1.149  -5.611  -0.587  0.00  0.00    -0.270 OA
ATOM     17  N   UNL     1      -2.608  -5.271   1.055  0.00  0.00    -0.325 N 
ATOM     18  H   UNL     1      -2.825  -4.821   1.886  0.00  0.00    +0.145 HD
ATOM     19  H   UNL     1      -3.244  -5.884   0.655  0.00  0.00    +0.145 HD
ENDBRANCH  13  15
ENDBRANCH   1  12
BRANCH   2  20
ATOM     20  C   UNL     1       1.898  -7.498   3.830  0.00  0.00    +0.099 C 
BRANCH  20  21
ATOM     21  C   UNL     1       3.064  -7.504   4.821  0.00  0.00    +0.050 C 
BRANCH  21  22
ATOM     22  C   UNL     1       3.289  -8.928   5.335  0.00  0.00    +0.229 C 
BRANCH  22  23
ATOM     23  O   UNL     1       4.378  -8.934   6.260  0.00  0.00    -0.491 OA
BRANCH  23  24
ATOM     24  C   UNL     1       4.710 -10.129   6.814  0.00  0.00    +0.134 A 
ATOM     25  C   UNL     1       4.006 -11.274   6.470  0.00  0.00    +0.047 A 
ATOM     26  C   UNL     1       4.346 -12.489   7.035  0.00  0.00    +0.007 A 
ATOM     27  C   UNL     1       5.386 -12.564   7.942  0.00  0.00    -0.044 A 
ATOM     28  C   UNL     1       6.089 -11.425   8.288  0.00  0.00    +0.022 A 
ATOM     29  C   UNL     1       5.758 -10.208   7.721  0.00  0.00    +0.060 A 
ATOM     30 BR   UNL     1       6.725  -8.652   8.187  0.00  0.00    -0.047 Br
BRANCH  27  31
ATOM     31  C   UNL     1       5.753 -13.890   8.557  0.00  0.00    +0.013 C 
ATOM     32  C   UNL     1       7.204 -14.230   8.206  0.00  0.00    +0.012 C 
ATOM     33  C   UNL     1       5.602 -13.807  10.077  0.00  0.00    +0.012 C 
ENDBRANCH  27  31
ENDBRANCH  23  24
ENDBRANCH  22  23
ENDBRANCH  21  22
ENDBRANCH  20  21
ENDBRANCH   2  20
TORSDOF 8
