REMARK  Name = ZINC49122028
REMARK  5 active torsions:
REMARK  status: ('A' for Active; 'I' for Inactive)
REMARK    1  A    between atoms: C_1  and  C_2
REMARK    2  A    between atoms: C_2  and  C_3
REMARK    3  A    between atoms: C_9  and  N_11
REMARK    4  A    between atoms: C_12  and  C_16
REMARK    5  A    between atoms: C_20  and  N_22
REMARK                            x       y       z     vdW  Elec       q    Type
REMARK                         _______ _______ _______ _____ _____    ______ ____
ROOT
ATOM      1  N   UNL     1       1.474  -2.118  -0.310  0.00  0.00    -0.222 N 
ATOM      2  C   UNL     1       1.232  -3.249  -1.018  0.00  0.00    +0.182 A 
ATOM      3  N   UNL     1       2.353  -3.568  -1.629  0.00  0.00    -0.108 NA
ATOM      4  N   UNL     1       3.275  -2.718  -1.351  0.00  0.00    -0.023 NA
ATOM      5  N   UNL     1       2.821  -1.805  -0.563  0.00  0.00    -0.043 NA
ENDROOT
BRANCH   2   6
ATOM      6  C   UNL     1      -0.050  -3.985  -1.091  0.00  0.00    +0.023 A 
ATOM      7  C   UNL     1      -0.908  -4.005   0.010  0.00  0.00    +0.013 A 
ATOM      8  C   UNL     1      -2.103  -4.693  -0.059  0.00  0.00    +0.022 A 
ATOM      9  C   UNL     1      -2.454  -5.363  -1.217  0.00  0.00    +0.062 A 
ATOM     10  C   UNL     1      -1.606  -5.347  -2.319  0.00  0.00    +0.044 A 
ATOM     11  C   UNL     1      -0.406  -4.655  -2.260  0.00  0.00    +0.035 A 
ATOM     12 CL   UNL     1      -3.959  -6.225  -1.295  0.00  0.00    -0.082 Cl
BRANCH  10  13
ATOM     13  N   UNL     1      -1.965  -6.026  -3.487  0.00  0.00    -0.357 N 
ATOM     14  H   UNL     1      -2.806  -6.508  -3.529  0.00  0.00    +0.142 HD
ATOM     15  H   UNL     1      -1.373  -6.015  -4.255  0.00  0.00    +0.142 HD
ENDBRANCH  10  13
ENDBRANCH   2   6
BRANCH   1  21
ATOM     16  C   UNL     1       0.512   0.091   0.108  0.00  0.00    +0.013 C 
ATOM     17  C   UNL     1      -0.472   0.864   0.988  0.00  0.00    +0.005 C 
ATOM     18  C   UNL     1      -0.036   0.763   2.451  0.00  0.00    +0.000 C 
ATOM     19  C   UNL     1      -0.016  -0.707   2.877  0.00  0.00    +0.002 C 
ATOM     20  C   UNL     1       0.968  -1.479   1.996  0.00  0.00    +0.027 C 
ATOM     21  C   UNL     1       0.531  -1.378   0.533  0.00  0.00    +0.114 C 
BRANCH  16  23
ATOM     22  C   UNL     1       0.175   1.648  -1.818  0.00  0.00    +0.004 C 
ATOM     23  C   UNL     1       0.075   0.193  -1.355  0.00  0.00    +0.002 C 
ENDBRANCH  16  23
ENDBRANCH   1  21
TORSDOF 4
