REMARK  Name = ZINC21284090
REMARK  11 active torsions:
REMARK  status: ('A' for Active; 'I' for Inactive)
REMARK    1  A    between atoms: C_1  and  C_2
REMARK    2  A    between atoms: C_5  and  N_8
REMARK    3  A    between atoms: C_9  and  C_36
REMARK    4  A    between atoms: C_10  and  N_14
REMARK    5  A    between atoms: C_11  and  C_13
REMARK    6  A    between atoms: C_15  and  C_17
REMARK    7  A    between atoms: C_17  and  S_18
REMARK    8  A    between atoms: S_18  and  C_19
REMARK    9  A    between atoms: C_22  and  C_30
REMARK   10  A    between atoms: N_23  and  C_24
REMARK   11  A    between atoms: C_34  and  C_35
REMARK                            x       y       z     vdW  Elec       q    Type
REMARK                         _______ _______ _______ _____ _____    ______ ____
ROOT
ATOM      1  C   UNL     1      -2.258   0.235   0.182  0.00  0.00    +0.173 C 
ENDROOT
BRANCH   1   3
ATOM      2  N   UNL     1       0.114   0.764  -0.281  0.00  0.00    -0.282 N 
ATOM      3  C   UNL     1      -1.068   1.159   0.232  0.00  0.00    +0.228 C 
ATOM      4  O   UNL     1      -1.175   2.258   0.734  0.00  0.00    -0.275 OA
ATOM      5  H   UNL     1       0.205  -0.225  -0.755  0.00  0.00    +0.155 HD
BRANCH   2   8
ATOM      6  N   UNL     1       3.233   2.406   0.207  0.00  0.00    -0.235 N 
ATOM      7  C   UNL     1       2.431   1.316   0.348  0.00  0.00    +0.063 A 
ATOM      8  C   UNL     1       1.231   1.616  -0.211  0.00  0.00    +0.078 A 
ATOM      9  C   UNL     1       1.306   2.925  -0.712  0.00  0.00    +0.082 A 
ATOM     10  N   UNL     1       2.499   3.397  -0.457  0.00  0.00    -0.170 NA
ATOM     11  C   UNL     1       0.198   3.662  -1.419  0.00  0.00    +0.069 C 
ATOM     12  C   UNL     1       2.807   0.013   1.006  0.00  0.00    +0.068 C 
BRANCH   6  17
ATOM     13  C   UNL     1       8.601   2.860   1.993  0.00  0.00    +0.044 C 
ATOM     14  C   UNL     1       7.176   2.739   1.519  0.00  0.00    -0.050 A 
ATOM     15  C   UNL     1       6.744   1.570   0.921  0.00  0.00    +0.005 A 
ATOM     16  C   UNL     1       5.439   1.456   0.485  0.00  0.00    +0.028 A 
ATOM     17  C   UNL     1       4.559   2.518   0.649  0.00  0.00    +0.066 A 
ATOM     18  C   UNL     1       4.997   3.693   1.245  0.00  0.00    +0.028 A 
ATOM     19  C   UNL     1       6.303   3.799   1.683  0.00  0.00    +0.005 A 
ENDBRANCH   6  17
ENDBRANCH   2   8
ENDBRANCH   1   3
BRANCH   1  20
ATOM     20  S   UNL     1      -3.684   1.047   0.946  0.00  0.00    -0.076 S 
BRANCH  20  21
ATOM     21  C   UNL     1      -4.895  -0.220   0.755  0.00  0.00    +0.197 A 
ATOM     22  N   UNL     1      -4.712  -1.395   0.199  0.00  0.00    -0.122 NA
ATOM     23  N   UNL     1      -5.804  -2.072   0.227  0.00  0.00    -0.128 NA
ATOM     24  C   UNL     1      -6.753  -1.372   0.802  0.00  0.00    +0.173 A 
ATOM     25  N   UNL     1      -6.200  -0.164   1.165  0.00  0.00    -0.270 N 
BRANCH  25  26
ATOM     26  C   UNL     1      -6.841   0.900   1.815  0.00  0.00    +0.051 A 
ATOM     27  C   UNL     1      -7.309   0.742   3.113  0.00  0.00    +0.026 A 
ATOM     28  C   UNL     1      -7.936   1.794   3.752  0.00  0.00    +0.002 A 
ATOM     29  C   UNL     1      -8.105   3.001   3.098  0.00  0.00    +0.000 A 
ATOM     30  C   UNL     1      -7.644   3.159   1.804  0.00  0.00    +0.002 A 
ATOM     31  C   UNL     1      -7.012   2.112   1.161  0.00  0.00    +0.026 A 
ENDBRANCH  25  26
BRANCH  24  32
ATOM     32  C   UNL     1      -8.151  -1.802   1.025  0.00  0.00    +0.060 A 
ATOM     33  C   UNL     1      -9.224  -1.032   1.666  0.00  0.00    +0.053 A 
ATOM     34  C   UNL     1     -10.311  -1.820   1.644  0.00  0.00    +0.196 A 
ATOM     35  O   UNL     1      -9.996  -2.984   1.055  0.00  0.00    -0.467 OA
ATOM     36  C   UNL     1      -8.710  -2.991   0.673  0.00  0.00    +0.112 A 
ATOM     37  C   UNL     1      -8.004  -4.125  -0.025  0.00  0.00    +0.087 C 
ENDBRANCH  24  32
ENDBRANCH  20  21
ENDBRANCH   1  20
TORSDOF 7
