REMARK  Name = ZINC60356767
REMARK  16 active torsions:
REMARK  status: ('A' for Active; 'I' for Inactive)
REMARK    1  A    between atoms: C_4  and  C_7
REMARK    2  A    between atoms: C_7  and  C_8
REMARK    3  A    between atoms: C_8  and  N_9
REMARK    4  A    between atoms: N_9  and  C_10
REMARK    5  A    between atoms: N_9  and  C_30
REMARK    6  A    between atoms: C_10  and  C_11
REMARK    7  A    between atoms: C_11  and  S_12
REMARK    8  A    between atoms: S_12  and  C_15
REMARK    9  A    between atoms: C_15  and  C_16
REMARK   10  A    between atoms: C_16  and  N_17
REMARK   11  A    between atoms: N_17  and  C_18
REMARK   12  A    between atoms: N_17  and  C_26
REMARK   13  A    between atoms: C_18  and  C_19
REMARK   14  A    between atoms: C_19  and  C_20
REMARK   15  A    between atoms: C_26  and  C_27
REMARK   16  A    between atoms: C_30  and  C_31
REMARK                            x       y       z     vdW  Elec       q    Type
REMARK                         _______ _______ _______ _____ _____    ______ ____
ROOT
ATOM      1  S   UNL     1       5.671  -5.895   5.009  0.00  0.00    -0.034 S 
ATOM      2  O   UNL     1       4.536  -6.730   5.195  0.00  0.00    -0.174 OA
ATOM      3  O   UNL     1       6.568  -6.176   3.944  0.00  0.00    -0.174 OA
ENDROOT
BRANCH   1   4
ATOM      4  C   UNL     1       6.614  -5.854   6.558  0.00  0.00    +0.147 C 
BRANCH   4   5
ATOM      5  C   UNL     1       7.174  -7.247   6.851  0.00  0.00    -0.055 C 
BRANCH   5   6
ATOM      6  N   UNL     1       8.041  -7.188   8.035  0.00  0.00    +0.386 N 
ATOM      7  H   UNL     1       8.744  -6.476   7.902  0.00  0.00    -0.081 HD
BRANCH   6   8
ATOM      8  C   UNL     1       8.693  -8.489   8.231  0.00  0.00    +0.018 C 
BRANCH   8   9
ATOM      9  C   UNL     1       9.646  -8.750   7.093  0.00  0.00    +0.194 C 
ATOM     10  O   UNL     1       9.854  -7.888   6.266  0.00  0.00    -0.278 OA
ATOM     11  N   UNL     1      10.268  -9.942   6.995  0.00  0.00    -0.331 N 
ATOM     12  H   UNL     1      10.102 -10.632   7.656  0.00  0.00    +0.145 HD
ATOM     13  H   UNL     1      10.881 -10.110   6.262  0.00  0.00    +0.145 HD
ENDBRANCH   8   9
ENDBRANCH   6   8
BRANCH   6  14
ATOM     14  C   UNL     1       7.233  -6.862   9.218  0.00  0.00    -0.078 C 
BRANCH  14  15
ATOM     15  C   UNL     1       8.151  -6.677  10.428  0.00  0.00    -0.015 C 
BRANCH  15  16
ATOM     16  C   UNL     1       7.310  -6.337  11.660  0.00  0.00    -0.013 C 
ATOM     17  C   UNL     1       6.631  -4.981  11.456  0.00  0.00    +0.003 C 
ATOM     18  C   UNL     1       5.790  -4.642  12.688  0.00  0.00    +0.000 C 
ATOM     19  C   UNL     1       6.693  -4.579  13.921  0.00  0.00    +0.000 C 
ATOM     20  C   UNL     1       7.372  -5.935  14.125  0.00  0.00    +0.000 C 
ATOM     21  C   UNL     1       8.213  -6.275  12.893  0.00  0.00    +0.003 C 
ENDBRANCH  15  16
ENDBRANCH  14  15
ENDBRANCH   6  14
ENDBRANCH   5   6
ENDBRANCH   4   5
ENDBRANCH   1   4
BRANCH   1  22
ATOM     22  C   UNL     1       5.101  -4.181   4.842  0.00  0.00    +0.147 C 
BRANCH  22  23
ATOM     23  C   UNL     1       4.274  -4.041   3.562  0.00  0.00    -0.055 C 
BRANCH  23  24
ATOM     24  N   UNL     1       3.886  -2.636   3.381  0.00  0.00    +0.386 N 
ATOM     25  H   UNL     1       3.425  -2.304   4.215  0.00  0.00    -0.081 HD
BRANCH  24  26
ATOM     26  C   UNL     1       2.969  -2.524   2.239  0.00  0.00    +0.018 C 
BRANCH  26  27
ATOM     27  C   UNL     1       1.673  -3.222   2.564  0.00  0.00    +0.194 C 
ATOM     28  O   UNL     1       1.485  -3.662   3.679  0.00  0.00    -0.278 OA
ATOM     29  N   UNL     1       0.724  -3.356   1.617  0.00  0.00    -0.331 N 
ATOM     30  H   UNL     1       0.875  -3.004   0.726  0.00  0.00    +0.145 HD
ATOM     31  H   UNL     1      -0.110  -3.805   1.827  0.00  0.00    +0.145 HD
ENDBRANCH  26  27
ENDBRANCH  24  26
BRANCH  24  32
ATOM     32  C   UNL     1       5.084  -1.825   3.128  0.00  0.00    -0.078 C 
BRANCH  32  33
ATOM     33  C   UNL     1       4.696  -0.346   3.063  0.00  0.00    -0.015 C 
BRANCH  33  37
ATOM     34  C   UNL     1       7.383   2.494   1.210  0.00  0.00    +0.000 C 
ATOM     35  C   UNL     1       6.826   2.827   2.596  0.00  0.00    +0.000 C 
ATOM     36  C   UNL     1       5.577   1.982   2.859  0.00  0.00    +0.003 C 
ATOM     37  C   UNL     1       5.944   0.498   2.800  0.00  0.00    -0.013 C 
ATOM     38  C   UNL     1       6.502   0.166   1.414  0.00  0.00    +0.003 C 
ATOM     39  C   UNL     1       7.750   1.010   1.151  0.00  0.00    +0.000 C 
ENDBRANCH  33  37
ENDBRANCH  32  33
ENDBRANCH  24  32
ENDBRANCH  23  24
ENDBRANCH  22  23
ENDBRANCH   1  22
TORSDOF 16
