REMARK  Name = ZINC41037005
REMARK  7 active torsions:
REMARK  status: ('A' for Active; 'I' for Inactive)
REMARK    1  A    between atoms: C_1  and  C_2
REMARK    2  A    between atoms: C_8  and  C_9
REMARK    3  A    between atoms: C_8  and  N_12
REMARK    4  A    between atoms: C_13  and  C_15
REMARK    5  A    between atoms: C_15  and  C_16
REMARK    6  A    between atoms: C_16  and  C_17
REMARK    7  A    between atoms: C_16  and  C_18
REMARK                            x       y       z     vdW  Elec       q    Type
REMARK                         _______ _______ _______ _____ _____    ______ ____
ROOT
ATOM      1  C   UNL     1      -0.019   1.526   0.010  0.00  0.00    +0.010 C 
ATOM      2  C   UNL     1       0.002  -0.004   0.002  0.00  0.00    +0.020 C 
ATOM      3  C   UNL     1       0.718  -0.497  -1.257  0.00  0.00    +0.006 C 
ATOM      4  C   UNL     1       0.739  -2.027  -1.265  0.00  0.00    +0.000 C 
ATOM      5  C   UNL     1       1.479  -2.534  -0.026  0.00  0.00    +0.003 C 
ATOM      6  C   UNL     1       0.763  -2.041   1.233  0.00  0.00    +0.038 C 
ATOM      7  C   UNL     1       0.742  -0.511   1.242  0.00  0.00    +0.138 C 
ENDROOT
BRANCH   7   8
ATOM      8  N   UNL     1       2.116  -0.004   1.231  0.00  0.00    -0.300 N 
ATOM      9  C   UNL     1       2.960  -0.324   2.232  0.00  0.00    +0.214 C 
ATOM     10  O   UNL     1       2.582  -1.031   3.142  0.00  0.00    -0.276 OA
ATOM     11  H   UNL     1       2.419   0.562   0.504  0.00  0.00    +0.150 HD
BRANCH   9  12
ATOM     12  C   UNL     1       4.374   0.198   2.222  0.00  0.00    +0.098 C 
BRANCH  12  13
ATOM     13  C   UNL     1       5.114  -0.309   3.461  0.00  0.00    -0.008 C 
ATOM     14  C   UNL     1       6.582   0.116   3.388  0.00  0.00    +0.008 C 
ATOM     15  C   UNL     1       4.473   0.286   4.716  0.00  0.00    +0.008 C 
ENDBRANCH  12  13
ENDBRANCH   9  12
ENDBRANCH   7   8
BRANCH   7  16
ATOM     16  C   UNL     1       0.037  -0.025   2.481  0.00  0.00    +0.379 C 
ATOM     17  O   UNL     1      -1.125  -0.336   2.684  0.00  0.00    -0.244 OA
ATOM     18  O   UNL     1       0.627   0.680   3.282  0.00  0.00    -0.244 OA
ENDBRANCH   7  16
TORSDOF 4
