REMARK  Name = ZINC10243973
REMARK  5 active torsions:
REMARK  status: ('A' for Active; 'I' for Inactive)
REMARK    1  A    between atoms: N_13  and  C_31
REMARK    2  A    between atoms: C_14  and  S_16
REMARK    3  A    between atoms: S_16  and  C_17
REMARK    4  A    between atoms: C_17  and  C_18
REMARK    5  A    between atoms: N_20  and  C_21
REMARK                            x       y       z     vdW  Elec       q    Type
REMARK                         _______ _______ _______ _____ _____    ______ ____
ROOT
ATOM      1  C   UNL     1      11.546  -2.261   0.319  0.00  0.00    +0.001 A 
ATOM      2  C   UNL     1      12.531  -3.233   0.418  0.00  0.00    +0.002 A 
ATOM      3  C   UNL     1      12.195  -4.566   0.499  0.00  0.00    +0.026 A 
ATOM      4  C   UNL     1      10.855  -4.946   0.482  0.00  0.00    +0.049 A 
ATOM      5  C   UNL     1       9.862  -3.957   0.382  0.00  0.00    +0.026 A 
ATOM      6  C   UNL     1      10.226  -2.612   0.301  0.00  0.00    +0.012 A 
ATOM      7  C   UNL     1       8.571  -4.657   0.389  0.00  0.00    +0.104 A 
ATOM      8  C   UNL     1       8.859  -6.018   0.492  0.00  0.00    +0.132 A 
ATOM      9  N   UNL     1      10.235  -6.176   0.547  0.00  0.00    -0.349 N 
ATOM     10  H   UNL     1      10.694  -7.027   0.620  0.00  0.00    +0.166 HD
ATOM     11  C   UNL     1       7.787  -6.933   0.521  0.00  0.00    +0.283 A 
ATOM     12  O   UNL     1       7.993  -8.132   0.611  0.00  0.00    -0.265 OA
ATOM     13  N   UNL     1       6.526  -6.455   0.448  0.00  0.00    -0.251 N 
ATOM     14  C   UNL     1       6.303  -5.111   0.348  0.00  0.00    +0.177 A 
ATOM     15  N   UNL     1       7.294  -4.248   0.314  0.00  0.00    -0.221 NA
ENDROOT
BRANCH  13  16
ATOM     16  C   UNL     1       5.441  -7.342   0.475  0.00  0.00    +0.087 A 
ATOM     17  C   UNL     1       4.937  -7.860  -0.710  0.00  0.00    +0.029 A 
ATOM     18  C   UNL     1       3.872  -8.739  -0.680  0.00  0.00    +0.002 A 
ATOM     19  C   UNL     1       3.298  -9.093   0.527  0.00  0.00    +0.003 A 
ATOM     20  C   UNL     1       3.793  -8.575   1.710  0.00  0.00    +0.040 A 
ATOM     21  C   UNL     1       4.863  -7.699   1.688  0.00  0.00    +0.147 A 
ATOM     22  F   UNL     1       5.346  -7.192   2.843  0.00  0.00    -0.203 F 
ENDBRANCH  13  16
BRANCH  14  23
ATOM     23  S   UNL     1       4.645  -4.519   0.254  0.00  0.00    -0.078 S 
BRANCH  23  24
ATOM     24  C   UNL     1       4.953  -2.739   0.140  0.00  0.00    +0.173 C 
BRANCH  24  25
ATOM     25  C   UNL     1       3.639  -2.007   0.048  0.00  0.00    +0.227 C 
ATOM     26  O   UNL     1       2.597  -2.628   0.057  0.00  0.00    -0.275 OA
ATOM     27  N   UNL     1       3.621  -0.663  -0.046  0.00  0.00    -0.285 N 
ATOM     28  H   UNL     1       4.453  -0.172  -0.131  0.00  0.00    +0.155 HD
BRANCH  27  29
ATOM     29  C   UNL     1       2.401   0.025  -0.021  0.00  0.00    +0.037 A 
ATOM     30  C   UNL     1       1.346  -0.460   0.740  0.00  0.00    +0.027 A 
ATOM     31  C   UNL     1       0.142   0.217   0.764  0.00  0.00    +0.051 A 
ATOM     32  C   UNL     1      -0.016   1.384   0.030  0.00  0.00    +0.162 A 
ATOM     33  C   UNL     1       1.040   1.873  -0.730  0.00  0.00    +0.164 A 
ATOM     34  C   UNL     1       2.247   1.192  -0.756  0.00  0.00    +0.072 A 
ATOM     35  O   UNL     1       0.906   3.021  -1.451  0.00  0.00    -0.485 OA
ATOM     36  C   UNL     1      -0.429   3.473  -1.699  0.00  0.00    +0.270 C 
ATOM     37  C   UNL     1      -1.216   3.395  -0.384  0.00  0.00    +0.270 C 
ATOM     38  O   UNL     1      -1.213   2.033   0.059  0.00  0.00    -0.485 OA
ENDBRANCH  27  29
ENDBRANCH  24  25
ENDBRANCH  23  24
ENDBRANCH  14  23
TORSDOF 5
