REMARK  Name = ZINC20112350
REMARK  11 active torsions:
REMARK  status: ('A' for Active; 'I' for Inactive)
REMARK    1  A    between atoms: C_1  and  C_2
REMARK    2  A    between atoms: C_2  and  CA_3
REMARK    3  A    between atoms: CA_3  and  C_5
REMARK    4  A    between atoms: CA_3  and  N_7
REMARK    5  A    between atoms: C_5  and  O_6
REMARK    6  A    between atoms: C_8  and  C_9
REMARK    7  A    between atoms: C_12  and  O_39
REMARK    8  A    between atoms: C_15  and  O_38
REMARK    9  A    between atoms: C_24  and  C_37
REMARK   10  A    between atoms: C_25  and  O_36
REMARK   11  A    between atoms: C_28  and  C_30
REMARK                            x       y       z     vdW  Elec       q    Type
REMARK                         _______ _______ _______ _____ _____    ______ ____
ROOT
ATOM      1  C   UNL     1       7.253  -2.889  -2.296  0.00  0.00    +0.038 C 
ATOM      2  C   UNL     1       8.639  -2.404  -2.725  0.00  0.00    +0.018 C 
ATOM      3  C   UNL     1       9.448  -2.010  -1.488  0.00  0.00    +0.032 C 
ATOM      4  C   UNL     1       9.595  -3.225  -0.569  0.00  0.00    +0.117 C 
ATOM      5  C   UNL     1       8.210  -3.710  -0.139  0.00  0.00    +0.067 C 
ATOM      6  C   UNL     1       7.401  -4.103  -1.376  0.00  0.00    +0.079 C 
ATOM      7  C   UNL     1       6.014  -4.588  -0.947  0.00  0.00    +0.036 C 
ATOM      8  C   UNL     1       5.291  -3.467  -0.198  0.00  0.00    +0.009 C 
ATOM      9  C   UNL     1       5.145  -2.252  -1.117  0.00  0.00    +0.025 C 
ATOM     10  C   UNL     1       6.529  -1.768  -1.548  0.00  0.00    +0.009 C 
ATOM     11  C   UNL     1       6.353  -0.568  -2.484  0.00  0.00    +0.005 C 
ATOM     12  C   UNL     1       5.687   0.564  -1.707  0.00  0.00    +0.010 C 
ATOM     13  C   UNL     1       4.292   0.149  -1.232  0.00  0.00    +0.004 C 
ATOM     14  C   UNL     1       4.360  -1.162  -0.430  0.00  0.00    +0.075 C 
ATOM     15  C   UNL     1       4.987  -0.732   0.909  0.00  0.00    +0.036 C 
ATOM     16  C   UNL     1       4.326   0.636   1.194  0.00  0.00    +0.011 C 
ATOM     17  C   UNL     1       3.857   1.189  -0.165  0.00  0.00    +0.027 C 
ATOM     18  C   UNL     1       3.298   0.070  -2.393  0.00  0.00    +0.014 C 
ENDROOT
BRANCH  17  19
ATOM     19  C   UNL     1       2.358   1.343  -0.172  0.00  0.00    -0.022 C 
ATOM     20  C   UNL     1       1.675   2.429  -0.523  0.00  0.00    +0.094 C 
ATOM     21  C   UNL     1       0.239   2.168  -0.391  0.00  0.00    +0.332 C 
ATOM     22  O   UNL     1      -0.641   2.967  -0.642  0.00  0.00    -0.246 OA
ATOM     23  O   UNL     1       0.039   0.910   0.045  0.00  0.00    -0.457 OA
ATOM     24  C   UNL     1       1.345   0.292   0.217  0.00  0.00    +0.264 C 
ENDBRANCH  17  19
BRANCH   1  26
ATOM     25  N   UNL     1       6.975  -3.168  -4.679  0.00  0.00    -0.290 NA
ATOM     26  C   UNL     1       6.456  -3.276  -3.515  0.00  0.00    +0.088 C 
BRANCH  25  27
ATOM     27  CA  UNL     1       6.201  -3.545  -5.864  0.00  0.00    +0.130 C 
BRANCH  27  29
ATOM     28  C   UNL     1       6.962  -5.921  -5.737  0.00  0.00    +0.006 C 
ATOM     29  C   UNL     1       6.925  -4.666  -6.612  0.00  0.00    +0.025 C 
ENDBRANCH  27  29
BRANCH  27  30
ATOM     30  C   UNL     1       6.053  -2.331  -6.784  0.00  0.00    +0.182 C 
BRANCH  30  31
ATOM     31  O   UNL     1       7.338  -1.949  -7.278  0.00  0.00    -0.393 OA
ATOM     32  H   UNL     1       7.433  -1.090  -7.959  0.00  0.00    +0.209 HD
ENDBRANCH  30  31
ENDBRANCH  27  30
ENDBRANCH  25  27
ENDBRANCH   1  26
BRANCH  14  33
ATOM     33  O   UNL     1       3.032  -1.626  -0.180  0.00  0.00    -0.388 OA
ATOM     34  H   UNL     1       2.304  -0.969   0.318  0.00  0.00    +0.210 HD
ENDBRANCH  14  33
BRANCH   6  35
ATOM     35  O   UNL     1       8.077  -5.151  -2.075  0.00  0.00    -0.388 OA
ATOM     36  H   UNL     1       8.275  -6.109  -1.571  0.00  0.00    +0.210 HD
ENDBRANCH   6  35
BRANCH   4  37
ATOM     37  O   UNL     1      10.271  -4.272  -1.267  0.00  0.00    -0.392 OA
ATOM     38  H   UNL     1      10.470  -5.230  -0.764  0.00  0.00    +0.210 HD
ENDBRANCH   4  37
TORSDOF 9
