REMARK  Name = ZINC20538545
REMARK  8 active torsions:
REMARK  status: ('A' for Active; 'I' for Inactive)
REMARK    1  A    between atoms: C_6  and  C_7
REMARK    2  A    between atoms: C_7  and  N_8
REMARK    3  A    between atoms: N_8  and  C_9
REMARK    4  A    between atoms: N_8  and  C_17
REMARK    5  A    between atoms: C_9  and  C_10
REMARK    6  A    between atoms: C_10  and  N_11
REMARK    7  A    between atoms: C_17  and  C_18
REMARK    8  A    between atoms: N_23  and  C_25
REMARK                            x       y       z     vdW  Elec       q    Type
REMARK                         _______ _______ _______ _____ _____    ______ ____
ROOT
ATOM      1  N   UNL     1       1.062  -2.560  -1.448  0.00  0.00    -0.300 NA
ENDROOT
BRANCH   1   2
ATOM      2  C   UNL     1       1.306  -1.859  -0.180  0.00  0.00    +0.119 C 
BRANCH   2   8
ATOM      3  C   UNL     1       0.477   0.500  -0.348  0.00  0.00    +0.007 A 
ATOM      4  C   UNL     1       0.627   1.827  -0.581  0.00  0.00    +0.034 A 
ATOM      5  C   UNL     1       1.895   2.327  -0.938  0.00  0.00    +0.134 A 
ATOM      6  C   UNL     1       3.030   1.377  -1.049  0.00  0.00    +0.134 A 
ATOM      7  C   UNL     1       2.795   0.012  -0.793  0.00  0.00    +0.038 A 
ATOM      8  C   UNL     1       1.548  -0.397  -0.453  0.00  0.00    -0.031 A 
ATOM      9  N   UNL     1       4.027   2.155  -1.388  0.00  0.00    -0.049 NA
ATOM     10  O   UNL     1       3.628   3.299  -1.470  0.00  0.00    -0.242 OA
ATOM     11  N   UNL     1       2.450   3.476  -1.234  0.00  0.00    -0.049 NA
ENDBRANCH   2   8
ENDBRANCH   1   2
BRANCH   1  12
ATOM     12  C   UNL     1       1.195  -4.014  -1.280  0.00  0.00    +0.066 C 
BRANCH  12  13
ATOM     13  C   UNL     1       2.648  -4.358  -0.946  0.00  0.00    -0.063 C 
BRANCH  13  14
ATOM     14  N   UNL     1       2.780  -5.811  -0.778  0.00  0.00    +0.381 N 
ATOM     15  C   UNL     1       2.028  -6.276   0.394  0.00  0.00    -0.079 C 
ATOM     16  C   UNL     1       2.068  -7.805   0.455  0.00  0.00    -0.019 C 
ATOM     17  C   UNL     1       3.525  -8.269   0.543  0.00  0.00    -0.004 C 
ATOM     18  C   UNL     1       4.297  -7.731  -0.665  0.00  0.00    -0.019 C 
ATOM     19  C   UNL     1       4.192  -6.205  -0.693  0.00  0.00    -0.079 C 
ATOM     20  H   UNL     1       2.350  -6.297  -1.667  0.00  0.00    -0.082 HD
ENDBRANCH  13  14
ENDBRANCH  12  13
ENDBRANCH   1  12
BRANCH   1  21
ATOM     21  C   UNL     1      -0.255  -2.212  -1.997  0.00  0.00    +0.086 C 
BRANCH  21  22
ATOM     22  C   UNL     1      -0.318  -2.625  -3.469  0.00  0.00    -0.014 C 
ATOM     23  C   UNL     1       0.723  -1.835  -4.267  0.00  0.00    +0.001 C 
ATOM     24  C   UNL     1       0.611  -2.209  -5.748  0.00  0.00    -0.018 C 
ATOM     25  C   UNL     1      -0.810  -1.923  -6.236  0.00  0.00    -0.078 C 
ATOM     26  N   UNL     1      -1.768  -2.703  -5.442  0.00  0.00    +0.382 N 
ATOM     27  C   UNL     1      -1.713  -2.326  -4.024  0.00  0.00    -0.074 C 
ATOM     28  H   UNL     1      -1.484  -3.762  -5.519  0.00  0.00    -0.081 HD
BRANCH  26  29
ATOM     29  C   UNL     1      -3.131  -2.559  -5.972  0.00  0.00    -0.069 C 
ATOM     30  C   UNL     1      -4.088  -3.520  -5.236  0.00  0.00    -0.015 C 
ATOM     31  C   UNL     1      -5.063  -4.003  -6.338  0.00  0.00    -0.002 C 
ATOM     32  C   UNL     1      -4.139  -4.149  -7.573  0.00  0.00    -0.002 C 
ATOM     33  C   UNL     1      -3.164  -2.959  -7.457  0.00  0.00    -0.015 C 
ENDBRANCH  26  29
ENDBRANCH  21  22
ENDBRANCH   1  21
TORSDOF 8
