REMARK  Name = ZINC20191223
REMARK  4 active torsions:
REMARK  status: ('A' for Active; 'I' for Inactive)
REMARK    1  A    between atoms: C_1  and  C_2
REMARK    2  A    between atoms: C_2  and  C_3
REMARK    3  A    between atoms: C_6  and  C_8
REMARK    4  A    between atoms: C_13  and  C_14
REMARK                            x       y       z     vdW  Elec       q    Type
REMARK                         _______ _______ _______ _____ _____    ______ ____
ROOT
ATOM      1  C   UNL     1       1.255  -0.654  -0.007  0.00  0.00    +0.014 A 
ATOM      2  C   UNL     1       2.420   0.132  -0.011  0.00  0.00    -0.017 A 
ATOM      3  C   UNL     1       2.309   1.500  -0.011  0.00  0.00    +0.047 A 
ATOM      4  N   UNL     1       1.113   2.082   0.003  0.00  0.00    -0.236 NA
ATOM      5  C   UNL     1      -0.017   1.401   0.010  0.00  0.00    +0.135 A 
ATOM      6  C   UNL     1       0.002  -0.004   0.002  0.00  0.00    +0.100 A 
ATOM      7  N   UNL     1      -1.227   2.073   0.019  0.00  0.00    -0.342 N 
ATOM      8  C   UNL     1       3.516   2.405  -0.034  0.00  0.00    +0.056 C 
ATOM      9  C   UNL     1       4.768   1.644   0.396  0.00  0.00    +0.006 C 
ATOM     10  C   UNL     1       4.866   0.362  -0.440  0.00  0.00    +0.005 C 
ATOM     11  C   UNL     1       3.746  -0.581  -0.005  0.00  0.00    +0.037 C 
ATOM     12  H   UNL     1      -2.170   1.508   0.025  0.00  0.00    +0.144 HD
ATOM     13  H   UNL     1      -1.244   3.173   0.021  0.00  0.00    +0.144 HD
ENDROOT
BRANCH   1  17
ATOM     14  C   UNL     1       1.691  -4.767   0.403  0.00  0.00    +0.004 A 
ATOM     15  C   UNL     1       1.116  -4.357  -0.760  0.00  0.00    +0.029 A 
ATOM     16  C   UNL     1       0.929  -3.011  -0.976  0.00  0.00    +0.031 A 
ATOM     17  C   UNL     1       1.339  -2.125  -0.012  0.00  0.00    +0.022 A 
ATOM     18  S   UNL     1       1.995  -3.219   1.237  0.00  0.00    -0.092 S 
ATOM     19 BR   UNL     1       0.575  -5.620  -2.059  0.00  0.00    -0.049 Br
BRANCH  14  21
ATOM     20  C   UNL     1       3.397  -6.566   0.408  0.00  0.00    +0.009 C 
ATOM     21  C   UNL     1       1.993  -6.169   0.867  0.00  0.00    +0.040 C 
ENDBRANCH  14  21
ENDBRANCH   1  17
BRANCH   6  22
ATOM     22  C   UNL     1      -1.217  -0.756   0.003  0.00  0.00    +0.103 C 
ATOM     23  N   UNL     1      -2.183  -1.353   0.004  0.00  0.00    -0.191 NA
ENDBRANCH   6  22
TORSDOF 3
