REMARK  Name = ZINC60154539
REMARK  10 active torsions:
REMARK  status: ('A' for Active; 'I' for Inactive)
REMARK    1  A    between atoms: C_1  and  C_2
REMARK    2  A    between atoms: C_2  and  N_3
REMARK    3  A    between atoms: N_3  and  C_4
REMARK    4  A    between atoms: N_3  and  C_6
REMARK    5  A    between atoms: C_4  and  C_5
REMARK    6  A    between atoms: C_6  and  C_8
REMARK    7  A    between atoms: C_6  and  C_32
REMARK    8  A    between atoms: C_8  and  N_9
REMARK    9  A    between atoms: C_10  and  C_12
REMARK   10  A    between atoms: C_16  and  N_18
REMARK                            x       y       z     vdW  Elec       q    Type
REMARK                         _______ _______ _______ _____ _____    ______ ____
ROOT
ATOM      1  C   UNL     1      -1.274   2.958  -2.248  0.00  0.00    +0.039 A 
ATOM      2  C   UNL     1       0.092   2.672  -2.221  0.00  0.00    +0.013 A 
ATOM      3  C   UNL     1       0.971   3.429  -2.968  0.00  0.00    +0.003 A 
ATOM      4  C   UNL     1       0.503   4.474  -3.744  0.00  0.00    +0.025 A 
ATOM      5  C   UNL     1      -0.854   4.768  -3.777  0.00  0.00    +0.057 A 
ATOM      6  C   UNL     1      -1.746   4.008  -3.035  0.00  0.00    +0.038 A 
ENDROOT
BRANCH   5   7
ATOM      7  N   UNL     1      -1.322   5.826  -4.564  0.00  0.00    -0.188 N 
ATOM      8  C   UNL     1      -0.553   6.919  -4.750  0.00  0.00    +0.240 C 
ATOM      9  O   UNL     1       0.522   7.010  -4.194  0.00  0.00    -0.273 OA
ATOM     10  C   UNL     1      -1.035   8.024  -5.650  0.00  0.00    +0.093 C 
ATOM     11  C   UNL     1       0.153   8.801  -6.222  0.00  0.00    +0.040 C 
ATOM     12  C   UNL     1      -0.324   9.725  -7.307  0.00  0.00    -0.030 C 
ATOM     13  C   UNL     1      -1.467   9.614  -7.905  0.00  0.00    -0.030 C 
ATOM     14  C   UNL     1      -2.480   8.548  -7.596  0.00  0.00    +0.040 C 
ATOM     15  C   UNL     1      -1.824   7.411  -6.816  0.00  0.00    +0.092 C 
ATOM     16  C   UNL     1      -2.863   6.472  -6.264  0.00  0.00    +0.234 C 
ATOM     17  O   UNL     1      -3.941   6.366  -6.810  0.00  0.00    -0.274 OA
ATOM     18  N   UNL     1      -2.587   5.747  -5.163  0.00  0.00    -0.227 N 
ATOM     19  H   UNL     1      -3.267   5.170  -4.782  0.00  0.00    +0.173 HD
ENDBRANCH   5   7
BRANCH   1  21
ATOM     20  N   UNL     1      -1.751   1.205  -0.607  0.00  0.00    -0.313 N 
ATOM     21  C   UNL     1      -2.218   2.148  -1.449  0.00  0.00    +0.244 C 
ATOM     22  O   UNL     1      -3.415   2.333  -1.551  0.00  0.00    -0.270 OA
ATOM     23  H   UNL     1      -0.795   1.104  -0.474  0.00  0.00    +0.149 HD
BRANCH  20  24
ATOM     24  C   UNL     1      -2.686   0.332   0.107  0.00  0.00    +0.094 C 
BRANCH  24  25
ATOM     25  C   UNL     1      -1.911  -0.557   1.082  0.00  0.00    -0.020 C 
BRANCH  25  26
ATOM     26  C   UNL     1      -2.845  -1.577   1.681  0.00  0.00    -0.059 A 
ATOM     27  C   UNL     1      -3.985  -1.956   0.998  0.00  0.00    +0.002 A 
ATOM     28  C   UNL     1      -4.841  -2.892   1.547  0.00  0.00    +0.000 A 
ATOM     29  C   UNL     1      -4.556  -3.450   2.779  0.00  0.00    +0.000 A 
ATOM     30  C   UNL     1      -3.415  -3.072   3.462  0.00  0.00    +0.000 A 
ATOM     31  C   UNL     1      -2.557  -2.139   2.911  0.00  0.00    +0.002 A 
ENDBRANCH  25  26
BRANCH  25  32
ATOM     32  N   UNL     1      -0.829  -1.244   0.364  0.00  0.00    +0.385 N 
ATOM     33  H   UNL     1      -0.256  -0.563  -0.111  0.00  0.00    -0.081 HD
BRANCH  32  35
ATOM     34  C   UNL     1       0.705  -1.017   2.260  0.00  0.00    -0.017 C 
ATOM     35  C   UNL     1      -0.006  -1.995   1.322  0.00  0.00    -0.081 C 
ENDBRANCH  32  35
BRANCH  32  36
ATOM     36  C   UNL     1      -1.405  -2.171  -0.619  0.00  0.00    -0.081 C 
ATOM     37  C   UNL     1      -1.627  -1.437  -1.943  0.00  0.00    -0.017 C 
ENDBRANCH  32  36
ENDBRANCH  25  32
ENDBRANCH  24  25
ENDBRANCH  20  24
ENDBRANCH   1  21
TORSDOF 8
