REMARK  Name = ZINC10245986
REMARK  8 active torsions:
REMARK  status: ('A' for Active; 'I' for Inactive)
REMARK    1  A    between atoms: C_7  and  N_24
REMARK    2  A    between atoms: C_8  and  C_10
REMARK    3  A    between atoms: N_12  and  C_13
REMARK    4  A    between atoms: C_16  and  O_19
REMARK    5  A    between atoms: O_19  and  C_20
REMARK    6  A    between atoms: C_25  and  C_27
REMARK    7  A    between atoms: C_27  and  C_28
REMARK    8  A    between atoms: C_31  and  N_34
REMARK                            x       y       z     vdW  Elec       q    Type
REMARK                         _______ _______ _______ _____ _____    ______ ____
ROOT
ATOM      1  C   UNL     1       0.464   9.610   3.406  0.00  0.00    +0.001 A 
ATOM      2  C   UNL     1       0.569   9.613   4.790  0.00  0.00    +0.004 A 
ATOM      3  C   UNL     1       0.957   8.477   5.468  0.00  0.00    +0.047 A 
ATOM      4  C   UNL     1       1.246   7.314   4.763  0.00  0.00    +0.138 A 
ATOM      5  C   UNL     1       1.143   7.320   3.361  0.00  0.00    +0.042 A 
ATOM      6  C   UNL     1       0.744   8.479   2.693  0.00  0.00    +0.013 A 
ATOM      7  C   UNL     1       1.505   5.965   2.929  0.00  0.00    +0.092 A 
ATOM      8  C   UNL     1       1.797   5.273   4.072  0.00  0.00    +0.212 A 
ATOM      9  O   UNL     1       1.640   6.083   5.143  0.00  0.00    -0.448 OA
ENDROOT
BRANCH   8  10
ATOM     10  C   UNL     1       2.216   3.874   4.126  0.00  0.00    +0.285 C 
ATOM     11  O   UNL     1       2.458   3.270   3.097  0.00  0.00    -0.266 OA
ATOM     12  N   UNL     1       2.334   3.252   5.316  0.00  0.00    -0.279 N 
ATOM     13  H   UNL     1       2.218   3.752   6.139  0.00  0.00    +0.155 HD
BRANCH  12  14
ATOM     14  C   UNL     1       2.625   1.883   5.365  0.00  0.00    +0.034 A 
ATOM     15  C   UNL     1       2.138   1.034   4.380  0.00  0.00    +0.027 A 
ATOM     16  C   UNL     1       2.430  -0.315   4.425  0.00  0.00    +0.048 A 
ATOM     17  C   UNL     1       3.200  -0.824   5.461  0.00  0.00    +0.130 A 
ATOM     18  C   UNL     1       3.682   0.023   6.449  0.00  0.00    +0.048 A 
ATOM     19  C   UNL     1       3.395   1.373   6.402  0.00  0.00    +0.027 A 
BRANCH  17  20
ATOM     20  O   UNL     1       3.482  -2.153   5.509  0.00  0.00    -0.406 OA
BRANCH  20  21
ATOM     21  C   UNL     1       2.953  -2.966   4.459  0.00  0.00    +0.575 C 
ATOM     22  F   UNL     1       3.449  -2.520   3.229  0.00  0.00    -0.133 F 
ATOM     23  F   UNL     1       3.337  -4.296   4.662  0.00  0.00    -0.133 F 
ATOM     24  F   UNL     1       1.557  -2.878   4.459  0.00  0.00    -0.133 F 
ENDBRANCH  20  21
ENDBRANCH  17  20
ENDBRANCH  12  14
ENDBRANCH   8  10
BRANCH   7  25
ATOM     25  N   UNL     1       1.547   5.485   1.625  0.00  0.00    -0.282 N 
ATOM     26  C   UNL     1       0.753   6.029   0.681  0.00  0.00    +0.222 C 
ATOM     27  O   UNL     1      -0.048   6.887   0.983  0.00  0.00    -0.275 OA
ATOM     28  H   UNL     1       2.148   4.759   1.394  0.00  0.00    +0.155 HD
BRANCH  26  29
ATOM     29  C   UNL     1       0.862   5.569  -0.751  0.00  0.00    +0.131 C 
BRANCH  29  30
ATOM     30  C   UNL     1      -0.127   6.328  -1.598  0.00  0.00    -0.038 A 
ATOM     31  C   UNL     1       0.243   7.519  -2.194  0.00  0.00    +0.006 A 
ATOM     32  C   UNL     1      -0.663   8.214  -2.972  0.00  0.00    +0.033 A 
ATOM     33  C   UNL     1      -1.941   7.718  -3.153  0.00  0.00    +0.126 A 
ATOM     34  C   UNL     1      -2.312   6.528  -2.557  0.00  0.00    +0.033 A 
ATOM     35  C   UNL     1      -1.405   5.832  -1.779  0.00  0.00    +0.006 A 
BRANCH  33  36
ATOM     36  N   UNL     1      -2.913   8.463  -3.986  0.00  0.00    +0.056 N 
ATOM     37  O   UNL     1      -2.586   9.512  -4.511  0.00  0.00    -0.126 OA
ATOM     38  O   UNL     1      -4.038   8.027  -4.146  0.00  0.00    -0.126 OA
ENDBRANCH  33  36
ENDBRANCH  29  30
ENDBRANCH  26  29
ENDBRANCH   7  25
TORSDOF 8
