REMARK  Name = ZINC39674209
REMARK  7 active torsions:
REMARK  status: ('A' for Active; 'I' for Inactive)
REMARK    1  A    between atoms: C_1  and  C_2
REMARK    2  A    between atoms: C_4  and  C_9
REMARK    3  A    between atoms: C_5  and  C_8
REMARK    4  A    between atoms: C_9  and  C_11
REMARK    5  A    between atoms: C_9  and  N_12
REMARK    6  A    between atoms: C_13  and  C_15
REMARK    7  A    between atoms: C_26  and  C_28
REMARK                            x       y       z     vdW  Elec       q    Type
REMARK                         _______ _______ _______ _____ _____    ______ ____
ROOT
ATOM      1  C   UNL     1      -2.569  -0.879  -5.498  0.00  0.00    +0.100 C 
ATOM      2  C   UNL     1      -3.319  -2.192  -5.179  0.00  0.00    +0.121 C 
ATOM      3  N   UNL     1      -4.001  -2.550  -6.446  0.00  0.00    -0.296 N 
ATOM      4  C   UNL     1      -3.017  -2.213  -7.502  0.00  0.00    +0.115 C 
ATOM      5  C   UNL     1      -2.372  -0.897  -7.023  0.00  0.00    -0.004 C 
ATOM      6  C   UNL     1      -0.885  -0.885  -7.364  0.00  0.00    -0.010 C 
ATOM      7  C   UNL     1      -0.715  -0.844  -8.886  0.00  0.00    -0.082 C 
ATOM      8  N   UNL     1      -1.370   0.356  -9.421  0.00  0.00    +0.379 N 
ATOM      9  C   UNL     1      -2.815   0.291  -9.170  0.00  0.00    -0.082 C 
ATOM     10  C   UNL     1      -3.074   0.298  -7.661  0.00  0.00    -0.010 C 
ATOM     11  C   UNL     1      -5.236  -3.067  -6.601  0.00  0.00    +0.247 C 
ATOM     12  O   UNL     1      -5.622  -3.397  -7.706  0.00  0.00    -0.270 OA
ATOM     13  H   UNL     1      -0.989   1.175  -8.972  0.00  0.00    -0.086 HD
ATOM     14  H   UNL     1      -1.205   0.412 -10.415  0.00  0.00    -0.086 HD
ENDROOT
BRANCH  11  15
ATOM     15  C   UNL     1      -6.121  -3.231  -5.430  0.00  0.00    +0.045 A 
ATOM     16  C   UNL     1      -5.661  -3.900  -4.290  0.00  0.00    +0.014 A 
ATOM     17  C   UNL     1      -6.484  -4.054  -3.196  0.00  0.00    +0.001 A 
ATOM     18  C   UNL     1      -7.775  -3.549  -3.211  0.00  0.00    +0.012 A 
ATOM     19  C   UNL     1      -8.251  -2.881  -4.333  0.00  0.00    +0.031 A 
ATOM     20  C   UNL     1      -7.422  -2.711  -5.453  0.00  0.00    +0.006 A 
ATOM     21  C   UNL     1      -8.173  -1.965  -6.494  0.00  0.00    -0.006 A 
ATOM     22  C   UNL     1      -7.821  -1.548  -7.770  0.00  0.00    +0.009 A 
ATOM     23  C   UNL     1      -8.733  -0.852  -8.549  0.00  0.00    +0.001 A 
ATOM     24  C   UNL     1      -9.994  -0.570  -8.063  0.00  0.00    +0.001 A 
ATOM     25  C   UNL     1     -10.361  -0.979  -6.791  0.00  0.00    +0.012 A 
ATOM     26  C   UNL     1      -9.457  -1.677  -6.001  0.00  0.00    +0.030 A 
ATOM     27  C   UNL     1      -9.557  -2.247  -4.636  0.00  0.00    +0.194 C 
ATOM     28  O   UNL     1     -10.521  -2.193  -3.900  0.00  0.00    -0.287 OA
ENDBRANCH  11  15
BRANCH   1  30
ATOM     29  N   UNL     1      -0.671   0.324  -4.465  0.00  0.00    -0.309 N 
ATOM     30  C   UNL     1      -1.235  -0.854  -4.797  0.00  0.00    +0.219 C 
ATOM     31  O   UNL     1      -0.669  -1.893  -4.532  0.00  0.00    -0.275 OA
ATOM     32  H   UNL     1      -1.123   1.156  -4.678  0.00  0.00    +0.149 HD
BRANCH  29  33
ATOM     33  C   UNL     1       0.626   0.349  -3.784  0.00  0.00    +0.100 C 
ATOM     34  C   UNL     1       1.749   0.271  -4.821  0.00  0.00    +0.033 C 
BRANCH  33  37
ATOM     35  C   UNL     1       1.603   3.379  -4.583  0.00  0.00    +0.039 C 
ATOM     36  C   UNL     1       0.578   3.053  -3.494  0.00  0.00    +0.154 C 
ATOM     37  C   UNL     1       0.756   1.629  -2.999  0.00  0.00    -0.001 C 
ATOM     38  C   UNL     1       1.054   1.774  -1.706  0.00  0.00    +0.063 C 
ATOM     39  N   UNL     1       1.079   3.081  -1.362  0.00  0.00    -0.159 NA
ATOM     40  N   UNL     1       0.825   3.861  -2.288  0.00  0.00    -0.180 NA
ATOM     41  C   UNL     1       1.326   0.634  -0.757  0.00  0.00    +0.067 C 
ENDBRANCH  33  37
ENDBRANCH  29  33
ENDBRANCH   1  30
TORSDOF 4
