REMARK  Name = ZINC63547185
REMARK  8 active torsions:
REMARK  status: ('A' for Active; 'I' for Inactive)
REMARK    1  A    between atoms: C_1  and  O_2
REMARK    2  A    between atoms: O_2  and  C_3
REMARK    3  A    between atoms: C_9  and  C_12
REMARK    4  A    between atoms: C_12  and  C_13
REMARK    5  A    between atoms: C_13  and  N_14
REMARK    6  A    between atoms: C_15  and  C_17
REMARK    7  A    between atoms: C_22  and  C_31
REMARK    8  A    between atoms: C_24  and  C_27
REMARK                            x       y       z     vdW  Elec       q    Type
REMARK                         _______ _______ _______ _____ _____    ______ ____
ROOT
ATOM      1  C   UNL     1      -2.367  -8.584  -0.999  0.00  0.00    +0.185 C 
ATOM      2  C   UNL     1      -2.583  -8.204   0.448  0.00  0.00    +0.045 C 
ATOM      3  C   UNL     1      -3.883  -8.442   0.722  0.00  0.00    +0.116 C 
ATOM      4  N   UNL     1      -4.560  -8.262   1.884  0.00  0.00    -0.342 N 
ATOM      5  C   UNL     1      -5.841  -8.551   1.973  0.00  0.00    +0.050 C 
ATOM      6  C   UNL     1      -6.537  -9.058   0.848  0.00  0.00    +0.055 C 
ATOM      7  C   UNL     1      -5.879  -9.243  -0.314  0.00  0.00    +0.133 C 
ATOM      8  N   UNL     1      -4.541  -8.938  -0.394  0.00  0.00    -0.215 N 
ATOM      9  N   UNL     1      -3.687  -9.049  -1.462  0.00  0.00    -0.218 NA
ATOM     10  H   UNL     1      -4.010  -8.498  -2.243  0.00  0.00    +0.146 HD
ATOM     11  H   UNL     1      -4.093  -7.915   2.660  0.00  0.00    +0.167 HD
ENDROOT
BRANCH   5  12
ATOM     12  C   UNL     1      -6.557  -8.345   3.252  0.00  0.00    -0.002 A 
ATOM     13  C   UNL     1      -5.878  -7.840   4.361  0.00  0.00    +0.011 A 
ATOM     14  C   UNL     1      -6.550  -7.650   5.551  0.00  0.00    +0.020 A 
ATOM     15  C   UNL     1      -7.896  -7.960   5.646  0.00  0.00    +0.041 A 
ATOM     16  C   UNL     1      -8.575  -8.462   4.548  0.00  0.00    +0.020 A 
ATOM     17  C   UNL     1      -7.915  -8.650   3.352  0.00  0.00    +0.011 A 
ATOM     18 CL   UNL     1      -8.736  -7.718   7.146  0.00  0.00    -0.084 Cl
ENDBRANCH   5  12
BRANCH   1  20
ATOM     19  N   UNL     1      -0.752  -6.781  -1.509  0.00  0.00    -0.313 N 
ATOM     20  C   UNL     1      -1.922  -7.385  -1.796  0.00  0.00    +0.236 C 
ATOM     21  O   UNL     1      -2.617  -6.964  -2.697  0.00  0.00    -0.274 OA
ATOM     22  H   UNL     1      -0.196  -7.118  -0.789  0.00  0.00    +0.149 HD
BRANCH  19  23
ATOM     23  C   UNL     1      -0.319  -5.616  -2.284  0.00  0.00    +0.108 C 
BRANCH  23  24
ATOM     24  C   UNL     1       1.031  -5.126  -1.758  0.00  0.00    +0.052 C 
BRANCH  24  31
ATOM     25  C   UNL     1       0.606  -0.607  -1.056  0.00  0.00    +0.121 A 
ATOM     26  C   UNL     1       1.172   0.195  -2.062  0.00  0.00    +0.047 A 
ATOM     27  C   UNL     1       1.790  -0.325  -3.144  0.00  0.00    +0.029 A 
ATOM     28  C   UNL     1       1.886  -1.780  -3.299  0.00  0.00    +0.043 A 
ATOM     29  N   UNL     1       2.419  -2.528  -4.232  0.00  0.00    -0.380 N 
ATOM     30  C   UNL     1       2.222  -3.937  -3.871  0.00  0.00    +0.144 C 
ATOM     31  C   UNL     1       1.476  -3.927  -2.555  0.00  0.00    -0.040 C 
ATOM     32  C   UNL     1       1.290  -2.626  -2.239  0.00  0.00    +0.002 A 
ATOM     33  C   UNL     1       0.646  -1.960  -1.102  0.00  0.00    +0.055 A 
ATOM     34  H   UNL     1       2.869  -2.205  -5.029  0.00  0.00    +0.160 HD
BRANCH  25  36
ATOM     35  C   UNL     1      -0.017   1.425   0.010  0.00  0.00    +0.277 C 
ATOM     36  O   UNL     1       0.002  -0.004   0.002  0.00  0.00    -0.495 OA
ENDBRANCH  25  36
ENDBRANCH  24  31
ENDBRANCH  23  24
ENDBRANCH  19  23
ENDBRANCH   1  20
BRANCH   7  37
ATOM     37  C   UNL     1      -6.607  -9.782  -1.519  0.00  0.00    +0.432 C 
ATOM     38  F   UNL     1      -7.947 -10.013  -1.190  0.00  0.00    -0.165 F 
ATOM     39  F   UNL     1      -6.536  -8.851  -2.561  0.00  0.00    -0.165 F 
ATOM     40  F   UNL     1      -6.012 -10.981  -1.925  0.00  0.00    -0.165 F 
ENDBRANCH   7  37
TORSDOF 7
