REMARK  Name = ZINC27029810
REMARK  5 active torsions:
REMARK  status: ('A' for Active; 'I' for Inactive)
REMARK    1  A    between atoms: C_1  and  C_2
REMARK    2  A    between atoms: C_9  and  C_11
REMARK    3  A    between atoms: C_11  and  S_12
REMARK    4  A    between atoms: S_12  and  C_13
REMARK    5  A    between atoms: C_18  and  N_22
REMARK                            x       y       z     vdW  Elec       q    Type
REMARK                         _______ _______ _______ _____ _____    ______ ____
ROOT
ATOM      1  C   UNL     1      -1.454  -1.399   7.150  0.00  0.00    +0.168 A 
ATOM      2  N   UNL     1      -0.309  -1.372   7.787  0.00  0.00    -0.222 NA
ATOM      3  C   UNL     1      -0.532  -1.365   9.127  0.00  0.00    +0.090 A 
ATOM      4  C   UNL     1       0.312  -1.340  10.240  0.00  0.00    +0.032 A 
ATOM      5  C   UNL     1      -0.227  -1.341  11.507  0.00  0.00    +0.035 A 
ATOM      6  C   UNL     1      -1.602  -1.366  11.687  0.00  0.00    +0.128 A 
ATOM      7  C   UNL     1      -2.449  -1.391  10.598  0.00  0.00    +0.060 A 
ATOM      8  C   UNL     1      -1.924  -1.390   9.315  0.00  0.00    +0.069 A 
ATOM      9  N   UNL     1      -2.484  -1.406   8.048  0.00  0.00    -0.333 N 
ATOM     10  H   UNL     1      -3.431  -1.421   7.838  0.00  0.00    +0.168 HD
ENDROOT
BRANCH   6  11
ATOM     11  N   UNL     1      -2.165  -1.366  13.056  0.00  0.00    +0.056 N 
ATOM     12  O   UNL     1      -1.426  -1.345  14.013  0.00  0.00    -0.126 OA
ATOM     13  O   UNL     1      -3.363  -1.388  13.218  0.00  0.00    -0.126 OA
ENDBRANCH   6  11
BRANCH   1  14
ATOM     14  S   UNL     1      -1.639  -1.417   5.398  0.00  0.00    -0.082 S 
BRANCH  14  15
ATOM     15  C   UNL     1       0.066  -1.399   4.777  0.00  0.00    +0.134 C 
BRANCH  15  24
ATOM     16  C   UNL     1      -0.018   1.503   0.010  0.00  0.00    +0.047 C 
ATOM     17  C   UNL     1       0.002  -0.004   0.002  0.00  0.00    -0.008 A 
ATOM     18  C   UNL     1       0.006  -0.685  -1.176  0.00  0.00    +0.008 A 
ATOM     19  C   UNL     1       0.025  -2.089  -1.168  0.00  0.00    +0.018 A 
ATOM     20  C   UNL     1       0.039  -2.763   0.001  0.00  0.00    +0.093 A 
ATOM     21  N   UNL     1       0.035  -2.093   1.190  0.00  0.00    -0.306 N 
ATOM     22  C   UNL     1       0.023  -0.722   1.214  0.00  0.00    +0.141 A 
ATOM     23  N   UNL     1       0.030  -0.334   2.482  0.00  0.00    -0.232 NA
ATOM     24  C   UNL     1       0.051  -1.412   3.270  0.00  0.00    +0.070 A 
ATOM     25  C   UNL     1       0.046  -2.516   2.491  0.00  0.00    +0.116 A 
ENDBRANCH  15  24
ENDBRANCH  14  15
ENDBRANCH   1  14
TORSDOF 4
