REMARK  Name = ZINC65440367
REMARK  10 active torsions:
REMARK  status: ('A' for Active; 'I' for Inactive)
REMARK    1  A    between atoms: C_1  and  C_2
REMARK    2  A    between atoms: C_2  and  C_3
REMARK    3  A    between atoms: C_2  and  N_4
REMARK    4  A    between atoms: C_7  and  C_9
REMARK    5  A    between atoms: C_9  and  N_10
REMARK    6  A    between atoms: N_13  and  C_14
REMARK    7  A    between atoms: C_14  and  C_15
REMARK    8  A    between atoms: C_14  and  C_23
REMARK    9  A    between atoms: C_18  and  O_21
REMARK   10  A    between atoms: O_21  and  C_22
REMARK                            x       y       z     vdW  Elec       q    Type
REMARK                         _______ _______ _______ _____ _____    ______ ____
ROOT
ATOM      1  N   UNL     1      -4.674  -2.218  -2.974  0.00  0.00    -0.299 N 
ATOM      2  C   UNL     1      -5.089  -2.596  -4.199  0.00  0.00    +0.300 C 
ATOM      3  O   UNL     1      -4.521  -2.178  -5.189  0.00  0.00    -0.253 OA
ATOM      4  N   UNL     1      -6.134  -3.438  -4.327  0.00  0.00    -0.289 N 
ATOM      5  H   UNL     1      -5.128  -2.552  -2.184  0.00  0.00    +0.150 HD
ATOM      6  H   UNL     1      -6.587  -3.772  -3.537  0.00  0.00    +0.151 HD
ENDROOT
BRANCH   1   7
ATOM      7  C   UNL     1      -3.539  -1.303  -2.835  0.00  0.00    +0.107 C 
BRANCH   7  11
ATOM      8  N   UNL     1      -1.376  -0.512   0.012  0.00  0.00    +0.381 N 
ATOM      9  C   UNL     1      -1.385  -1.992  -0.122  0.00  0.00    -0.078 C 
ATOM     10  C   UNL     1      -2.796  -2.326  -0.653  0.00  0.00    -0.015 C 
ATOM     11  C   UNL     1      -3.276  -1.037  -1.351  0.00  0.00    -0.012 C 
ATOM     12  C   UNL     1      -2.116  -0.033  -1.183  0.00  0.00    -0.074 C 
ATOM     13  H   UNL     1      -1.850  -0.230   0.857  0.00  0.00    -0.081 HD
BRANCH   8  15
ATOM     14  C   UNL     1      -0.019   1.526   0.010  0.00  0.00    -0.014 C 
ATOM     15  C   UNL     1       0.002  -0.004   0.002  0.00  0.00    -0.075 C 
ATOM     16  C   UNL     1       0.742  -0.511   1.242  0.00  0.00    -0.014 C 
ENDBRANCH   8  15
ENDBRANCH   7  11
ENDBRANCH   1   7
BRANCH   4  17
ATOM     17  C   UNL     1      -6.584  -3.849  -5.659  0.00  0.00    +0.135 C 
BRANCH  17  18
ATOM     18  C   UNL     1      -5.765  -5.025  -6.126  0.00  0.00    -0.023 A 
ATOM     19  C   UNL     1      -5.427  -6.028  -5.236  0.00  0.00    +0.008 A 
ATOM     20  C   UNL     1      -4.677  -7.107  -5.663  0.00  0.00    +0.038 A 
ATOM     21  C   UNL     1      -4.263  -7.183  -6.983  0.00  0.00    +0.123 A 
ATOM     22  C   UNL     1      -4.602  -6.178  -7.872  0.00  0.00    +0.038 A 
ATOM     23  C   UNL     1      -5.357  -5.103  -7.444  0.00  0.00    +0.008 A 
ATOM     24  F   UNL     1      -3.529  -8.237  -7.401  0.00  0.00    -0.205 F 
ENDBRANCH  17  18
BRANCH  17  25
ATOM     25  C   UNL     1      -8.038  -4.242  -5.598  0.00  0.00    -0.023 A 
ATOM     26  C   UNL     1      -8.516  -4.955  -4.514  0.00  0.00    +0.009 A 
ATOM     27  C   UNL     1      -9.848  -5.317  -4.456  0.00  0.00    +0.046 A 
ATOM     28  C   UNL     1     -10.706  -4.964  -5.487  0.00  0.00    +0.120 A 
ATOM     29  C   UNL     1     -10.225  -4.248  -6.573  0.00  0.00    +0.046 A 
ATOM     30  C   UNL     1      -8.893  -3.884  -6.624  0.00  0.00    +0.009 A 
BRANCH  28  31
ATOM     31  O   UNL     1     -12.017  -5.319  -5.433  0.00  0.00    -0.495 OA
ATOM     32  C   UNL     1     -12.843  -4.921  -6.529  0.00  0.00    +0.277 C 
ENDBRANCH  28  31
ENDBRANCH  17  25
ENDBRANCH   4  17
TORSDOF 7
