REMARK  Name = ZINC17344236
REMARK  9 active torsions:
REMARK  status: ('A' for Active; 'I' for Inactive)
REMARK    1  A    between atoms: C_1  and  C_2
REMARK    2  A    between atoms: C_2  and  C_3
REMARK    3  A    between atoms: C_3  and  C_4
REMARK    4  A    between atoms: C_4  and  N_5
REMARK    5  A    between atoms: C_6  and  N_32
REMARK    6  A    between atoms: C_7  and  N_14
REMARK    7  A    between atoms: N_14  and  C_15
REMARK    8  A    between atoms: C_15  and  C_16
REMARK    9  A    between atoms: C_22  and  C_24
REMARK                            x       y       z     vdW  Elec       q    Type
REMARK                         _______ _______ _______ _____ _____    ______ ____
ROOT
ATOM      1  N   UNL     1      -0.572  -2.993  -2.413  0.00  0.00    -0.256 N 
ATOM      2  C   UNL     1      -0.378  -2.444  -3.628  0.00  0.00    +0.252 C 
ATOM      3  O   UNL     1      -0.230  -3.159  -4.601  0.00  0.00    -0.270 OA
ENDROOT
BRANCH   1   6
ATOM      4  N   UNL     1      -0.125  -1.436   0.885  0.00  0.00    -0.280 N 
ATOM      5  C   UNL     1       0.087  -2.254  -0.201  0.00  0.00    +0.127 A 
ATOM      6  C   UNL     1      -0.760  -2.164  -1.287  0.00  0.00    +0.140 A 
ATOM      7  C   UNL     1      -1.810  -1.228  -1.254  0.00  0.00    +0.277 A 
ATOM      8  O   UNL     1      -2.571  -1.125  -2.202  0.00  0.00    -0.266 OA
ATOM      9  N   UNL     1      -1.971  -0.448  -0.168  0.00  0.00    -0.273 N 
ATOM     10  H   UNL     1      -2.718   0.217  -0.143  0.00  0.00    +0.173 HD
ATOM     11  C   UNL     1      -1.139  -0.552   0.884  0.00  0.00    +0.331 A 
ATOM     12  O   UNL     1      -1.306   0.165   1.851  0.00  0.00    -0.246 OA
BRANCH   5  13
ATOM     13  N   UNL     1       1.126  -3.154  -0.201  0.00  0.00    -0.343 N 
ATOM     14  H   UNL     1       1.624  -3.320   0.614  0.00  0.00    +0.144 HD
ATOM     15  H   UNL     1       1.361  -3.622  -1.017  0.00  0.00    +0.144 HD
ENDBRANCH   5  13
BRANCH   4  16
ATOM     16  C   UNL     1       0.763  -1.524   2.047  0.00  0.00    +0.128 C 
BRANCH  16  17
ATOM     17  C   UNL     1       0.205  -2.548   3.038  0.00  0.00    +0.021 C 
BRANCH  17  19
ATOM     18  C   UNL     1       0.575  -3.663   5.243  0.00  0.00    +0.004 C 
ATOM     19  C   UNL     1       1.133  -2.639   4.252  0.00  0.00    -0.002 C 
ENDBRANCH  17  19
ENDBRANCH  16  17
ENDBRANCH   4  16
ENDBRANCH   1   6
BRANCH   2  20
ATOM     20  C   UNL     1      -0.345  -0.976  -3.779  0.00  0.00    +0.051 A 
ATOM     21  C   UNL     1       0.004  -0.168  -2.695  0.00  0.00    +0.017 A 
ATOM     22  C   UNL     1       0.033   1.202  -2.841  0.00  0.00    +0.039 A 
ATOM     23  C   UNL     1      -0.284   1.780  -4.061  0.00  0.00    +0.124 A 
ATOM     24  C   UNL     1      -0.632   0.984  -5.141  0.00  0.00    +0.054 A 
ATOM     25  C   UNL     1      -0.659  -0.390  -5.008  0.00  0.00    +0.033 A 
ATOM     26 BR   UNL     1      -1.126  -1.476  -6.484  0.00  0.00    -0.049 Br
ATOM     27  F   UNL     1      -0.255   3.123  -4.198  0.00  0.00    -0.205 F 
ENDBRANCH   2  20
BRANCH   1  28
ATOM     28  C   UNL     1      -0.589  -4.450  -2.261  0.00  0.00    +0.149 C 
BRANCH  28  29
ATOM     29  C   UNL     1      -2.004  -4.952  -2.385  0.00  0.00    -0.030 A 
ATOM     30  C   UNL     1      -2.831  -4.970  -1.278  0.00  0.00    +0.005 A 
ATOM     31  C   UNL     1      -4.131  -5.426  -1.393  0.00  0.00    +0.000 A 
ATOM     32  C   UNL     1      -4.601  -5.874  -2.613  0.00  0.00    +0.000 A 
ATOM     33  C   UNL     1      -3.772  -5.862  -3.720  0.00  0.00    +0.000 A 
ATOM     34  C   UNL     1      -2.474  -5.401  -3.606  0.00  0.00    +0.005 A 
ENDBRANCH  28  29
ENDBRANCH   1  28
TORSDOF 8
