REMARK  Name = ZINC43193628
REMARK  14 active torsions:
REMARK  status: ('A' for Active; 'I' for Inactive)
REMARK    1  A    between atoms: C_3  and  S_8
REMARK    2  A    between atoms: C_6  and  N_7
REMARK    3  A    between atoms: S_8  and  C_9
REMARK    4  A    between atoms: C_11  and  O_40
REMARK    5  A    between atoms: C_13  and  O_39
REMARK    6  A    between atoms: C_15  and  O_22
REMARK    7  A    between atoms: C_17  and  C_20
REMARK    8  A    between atoms: C_20  and  O_21
REMARK    9  A    between atoms: O_22  and  C_23
REMARK   10  A    between atoms: C_25  and  O_38
REMARK   11  A    between atoms: C_27  and  O_37
REMARK   12  A    between atoms: C_29  and  O_36
REMARK   13  A    between atoms: C_31  and  C_34
REMARK   14  A    between atoms: C_34  and  O_35
REMARK                            x       y       z     vdW  Elec       q    Type
REMARK                         _______ _______ _______ _____ _____    ______ ____
ROOT
ATOM      1  C   UNL     1       5.173   1.027  -0.042  0.00  0.00    +0.212 C 
ATOM      2  C   UNL     1       6.544   1.664   0.198  0.00  0.00    +0.185 C 
ATOM      3  C   UNL     1       7.623   0.580   0.121  0.00  0.00    +0.178 C 
ATOM      4  C   UNL     1       7.536  -0.116  -1.241  0.00  0.00    +0.183 C 
ATOM      5  C   UNL     1       6.127  -0.684  -1.426  0.00  0.00    +0.176 C 
ATOM      6  O   UNL     1       5.170   0.371  -1.312  0.00  0.00    -0.355 OA
ENDROOT
BRANCH   3   7
ATOM      7  O   UNL     1       8.913   1.177   0.273  0.00  0.00    -0.386 OA
ATOM      8  H   UNL     1       9.035   1.641   1.112  0.00  0.00    +0.210 HD
ENDBRANCH   3   7
BRANCH   2   9
ATOM      9  O   UNL     1       6.790   2.657  -0.800  0.00  0.00    -0.386 OA
ATOM     10  H   UNL     1       6.141   3.373  -0.811  0.00  0.00    +0.210 HD
ENDBRANCH   2   9
BRANCH   1  11
ATOM     11  S   UNL     1       3.896   2.315  -0.023  0.00  0.00    -0.091 S 
BRANCH  11  14
ATOM     12  C   UNL     1      -0.017   1.385   0.010  0.00  0.00    +0.024 A 
ATOM     13  C   UNL     1       1.169   2.091   0.002  0.00  0.00    +0.016 A 
ATOM     14  C   UNL     1       2.382   1.413  -0.013  0.00  0.00    +0.011 A 
ATOM     15  C   UNL     1       2.400   0.024  -0.021  0.00  0.00    +0.016 A 
ATOM     16  C   UNL     1       1.214  -0.682  -0.013  0.00  0.00    +0.024 A 
ATOM     17  C   UNL     1       0.002  -0.004   0.002  0.00  0.00    +0.025 A 
BRANCH  17  18
ATOM     18  N   UNL     1      -1.201  -0.720   0.010  0.00  0.00    -0.358 N 
ATOM     19  H   UNL     1      -2.047  -0.247   0.020  0.00  0.00    +0.142 HD
ATOM     20  H   UNL     1      -1.188  -1.690   0.004  0.00  0.00    +0.142 HD
ENDBRANCH  17  18
ENDBRANCH  11  14
ENDBRANCH   1  11
BRANCH   5  21
ATOM     21  C   UNL     1       6.013  -1.329  -2.808  0.00  0.00    +0.190 C 
BRANCH  21  22
ATOM     22  O   UNL     1       4.738  -1.961  -2.937  0.00  0.00    -0.392 OA
ATOM     23  H   UNL     1       4.596  -2.392  -3.791  0.00  0.00    +0.210 HD
ENDBRANCH  21  22
ENDBRANCH   5  21
BRANCH   4  24
ATOM     24  O   UNL     1       7.811   0.828  -2.278  0.00  0.00    -0.340 OA
BRANCH  24  25
ATOM     25  C   UNL     1       9.193   0.918  -2.631  0.00  0.00    +0.282 C 
ATOM     26  C   UNL     1       9.405   2.118  -3.559  0.00  0.00    +0.201 C 
ATOM     27  C   UNL     1      10.877   2.172  -3.981  0.00  0.00    +0.179 C 
ATOM     28  C   UNL     1      11.254   0.846  -4.649  0.00  0.00    +0.177 C 
ATOM     29  C   UNL     1      10.970  -0.304  -3.679  0.00  0.00    +0.178 C 
ATOM     30  O   UNL     1       9.592  -0.278  -3.303  0.00  0.00    -0.341 OA
BRANCH  28  31
ATOM     31  O   UNL     1      10.480   0.673  -5.837  0.00  0.00    -0.386 OA
ATOM     32  H   UNL     1      10.608   1.370  -6.495  0.00  0.00    +0.210 HD
ENDBRANCH  28  31
BRANCH  27  33
ATOM     33  O   UNL     1      11.071   3.246  -4.903  0.00  0.00    -0.386 OA
ATOM     34  H   UNL     1      10.844   4.116  -4.546  0.00  0.00    +0.210 HD
ENDBRANCH  27  33
BRANCH  26  35
ATOM     35  O   UNL     1       8.580   1.978  -4.717  0.00  0.00    -0.384 OA
ATOM     36  H   UNL     1       7.634   1.933  -4.522  0.00  0.00    +0.210 HD
ENDBRANCH  26  35
BRANCH  29  37
ATOM     37  C   UNL     1      11.288  -1.637  -4.361  0.00  0.00    +0.190 C 
BRANCH  37  38
ATOM     38  O   UNL     1      11.134  -2.701  -3.420  0.00  0.00    -0.392 OA
ATOM     39  H   UNL     1      11.320  -3.578  -3.784  0.00  0.00    +0.210 HD
ENDBRANCH  37  38
ENDBRANCH  29  37
ENDBRANCH  24  25
ENDBRANCH   4  24
TORSDOF 14
