REMARK  Name = ZINC15229803
REMARK  5 active torsions:
REMARK  status: ('A' for Active; 'I' for Inactive)
REMARK    1  A    between atoms: C_4  and  C_7
REMARK    2  A    between atoms: C_7  and  N_8
REMARK    3  A    between atoms: C_13  and  C_30
REMARK    4  A    between atoms: C_30  and  C_31
REMARK    5  A    between atoms: C_34  and  O_37
REMARK                            x       y       z     vdW  Elec       q    Type
REMARK                         _______ _______ _______ _____ _____    ______ ____
ROOT
ATOM      1  N   UNL     1      -1.766  -8.430   0.507  0.00  0.00    -0.237 N 
ATOM      2  C   UNL     1      -1.131  -7.336   1.044  0.00  0.00    +0.227 C 
ATOM      3  O   UNL     1      -0.491  -7.277   2.072  0.00  0.00    -0.275 OA
ATOM      4  C   UNL     1      -1.403  -6.277   0.102  0.00  0.00    +0.107 C 
ATOM      5  C   UNL     1      -1.375  -4.807  -0.011  0.00  0.00    +0.072 C 
ATOM      6  N   UNL     1      -2.034  -4.636  -1.360  0.00  0.00    -0.295 NA
ATOM      7  C   UNL     1      -3.080  -5.687  -1.449  0.00  0.00    +0.136 C 
ATOM      8  C   UNL     1      -2.915  -6.599  -0.246  0.00  0.00    +0.122 C 
ATOM      9  C   UNL     1      -2.700  -8.080  -0.429  0.00  0.00    +0.229 C 
ATOM     10  O   UNL     1      -3.240  -8.806  -1.235  0.00  0.00    -0.275 OA
ATOM     11  C   UNL     1      -2.969  -6.425  -2.754  0.00  0.00    +0.003 A 
ATOM     12  C   UNL     1      -1.971  -7.175  -3.338  0.00  0.00    +0.008 A 
ATOM     13  C   UNL     1      -2.168  -7.745  -4.582  0.00  0.00    +0.000 A 
ATOM     14  C   UNL     1      -3.369  -7.558  -5.242  0.00  0.00    +0.002 A 
ATOM     15  C   UNL     1      -4.369  -6.802  -4.666  0.00  0.00    +0.023 A 
ATOM     16  C   UNL     1      -4.176  -6.222  -3.415  0.00  0.00    +0.039 A 
ATOM     17  N   UNL     1      -5.020  -5.421  -2.642  0.00  0.00    -0.283 N 
ATOM     18  C   UNL     1      -4.450  -5.057  -1.479  0.00  0.00    +0.243 C 
ATOM     19  O   UNL     1      -4.943  -4.356  -0.620  0.00  0.00    -0.273 OA
ATOM     20  H   UNL     1      -2.477  -3.631  -1.427  0.00  0.00    +0.124 HD
ATOM     21  H   UNL     1      -6.023  -5.162  -3.013  0.00  0.00    +0.155 HD
ENDROOT
BRANCH   1  22
ATOM     22  C   UNL     1      -1.488  -9.813   0.902  0.00  0.00    +0.151 C 
BRANCH  22  26
ATOM     23  C   UNL     1       1.580 -11.418  -1.601  0.00  0.00    +0.000 A 
ATOM     24  C   UNL     1       1.914 -10.771  -0.426  0.00  0.00    +0.000 A 
ATOM     25  C   UNL     1       0.921 -10.252   0.384  0.00  0.00    +0.005 A 
ATOM     26  C   UNL     1      -0.406 -10.379   0.019  0.00  0.00    -0.030 A 
ATOM     27  C   UNL     1      -0.740 -11.030  -1.154  0.00  0.00    +0.005 A 
ATOM     28  C   UNL     1       0.253 -11.546  -1.966  0.00  0.00    +0.000 A 
ENDBRANCH  22  26
ENDBRANCH   1  22
BRANCH   5  29
ATOM     29  C   UNL     1       0.060  -4.277  -0.021  0.00  0.00    +0.054 C 
BRANCH  29  30
ATOM     30  C   UNL     1       0.040  -2.770  -0.013  0.00  0.00    -0.046 A 
ATOM     31  C   UNL     1       0.042  -2.087   1.189  0.00  0.00    +0.007 A 
ATOM     32  C   UNL     1       0.023  -0.705   1.199  0.00  0.00    +0.045 A 
ATOM     33  C   UNL     1       0.002  -0.004   0.002  0.00  0.00    +0.117 A 
ATOM     34  C   UNL     1      -0.006  -0.692  -1.202  0.00  0.00    +0.045 A 
ATOM     35  C   UNL     1       0.019  -2.074  -1.207  0.00  0.00    +0.007 A 
BRANCH  33  36
ATOM     36  O   UNL     1      -0.016   1.355   0.009  0.00  0.00    -0.507 OA
ATOM     37  H   UNL     1      -0.033   1.910  -0.940  0.00  0.00    +0.292 HD
ENDBRANCH  33  36
ENDBRANCH  29  30
ENDBRANCH   5  29
TORSDOF 5
