REMARK  Name = ZINC39660741
REMARK  11 active torsions:
REMARK  status: ('A' for Active; 'I' for Inactive)
REMARK    1  A    between atoms: C_1  and  C_2
REMARK    2  A    between atoms: C_2  and  C_3
REMARK    3  A    between atoms: C_6  and  C_9
REMARK    4  A    between atoms: C_12  and  S_15
REMARK    5  A    between atoms: S_15  and  C_16
REMARK    6  A    between atoms: C_16  and  C_17
REMARK    7  A    between atoms: C_18  and  C_31
REMARK    8  A    between atoms: C_19  and  C_25
REMARK    9  A    between atoms: C_31  and  O_33
REMARK   10  A    between atoms: O_33  and  C_34
REMARK   11  A    between atoms: C_34  and  C_35
REMARK                            x       y       z     vdW  Elec       q    Type
REMARK                         _______ _______ _______ _____ _____    ______ ____
ROOT
ATOM      1  C   UNL     1       8.431  -3.053  -5.511  0.00  0.00    +0.034 C 
ATOM      2  C   UNL     1       9.261  -2.071  -5.927  0.00  0.00    +0.079 C 
ATOM      3  C   UNL     1      10.630  -2.474  -6.435  0.00  0.00    +0.144 C 
ATOM      4  N   UNL     1      10.947  -3.912  -6.434  0.00  0.00    -0.288 N 
ATOM      5  C   UNL     1      10.012  -4.774  -5.986  0.00  0.00    +0.304 C 
ATOM      6  O   UNL     1      10.263  -5.963  -5.981  0.00  0.00    -0.252 OA
ATOM      7  N   UNL     1       8.818  -4.362  -5.542  0.00  0.00    -0.272 N 
ATOM      8  H   UNL     1      11.807  -4.231  -6.747  0.00  0.00    +0.151 HD
ATOM      9  H   UNL     1       8.190  -5.032  -5.229  0.00  0.00    +0.156 HD
ENDROOT
BRANCH   3  10
ATOM     10  C   UNL     1      11.664  -1.771  -5.593  0.00  0.00    -0.023 A 
ATOM     11  C   UNL     1      12.000  -2.273  -4.350  0.00  0.00    +0.006 A 
ATOM     12  C   UNL     1      12.948  -1.629  -3.577  0.00  0.00    +0.000 A 
ATOM     13  C   UNL     1      13.559  -0.481  -4.048  0.00  0.00    +0.000 A 
ATOM     14  C   UNL     1      13.223   0.021  -5.291  0.00  0.00    +0.000 A 
ATOM     15  C   UNL     1      12.279  -0.626  -6.066  0.00  0.00    +0.006 A 
ENDBRANCH   3  10
BRANCH   2  16
ATOM     16  C   UNL     1       8.864  -0.714  -5.889  0.00  0.00    +0.339 C 
ATOM     17  O   UNL     1       8.490  -0.161  -6.907  0.00  0.00    -0.245 OA
BRANCH  16  18
ATOM     18  O   UNL     1       8.901  -0.032  -4.726  0.00  0.00    -0.462 OA
BRANCH  18  19
ATOM     19  C   UNL     1       8.487   1.335  -4.761  0.00  0.00    +0.229 C 
ATOM     20  C   UNL     1       8.597   1.938  -3.360  0.00  0.00    +0.048 C 
ENDBRANCH  18  19
ENDBRANCH  16  18
ENDBRANCH   2  16
BRANCH   1  21
ATOM     21  C   UNL     1       7.060  -2.696  -4.997  0.00  0.00    +0.128 C 
BRANCH  21  22
ATOM     22  S   UNL     1       5.819  -3.106  -6.255  0.00  0.00    -0.081 S 
BRANCH  22  26
ATOM     23  C   UNL     1       2.840  -1.883  -4.085  0.00  0.00    +0.182 A 
ATOM     24  N   UNL     1       4.141  -2.112  -4.317  0.00  0.00    -0.201 NA
ATOM     25  H   UNL     1       2.863  -3.107  -6.955  0.00  0.00    +0.191 HD
ATOM     26  C   UNL     1       4.290  -2.637  -5.513  0.00  0.00    +0.185 A 
ATOM     27  N   UNL     1       3.067  -2.753  -6.075  0.00  0.00    -0.253 N 
ATOM     28  N   UNL     1       2.147  -2.265  -5.133  0.00  0.00    -0.152 NA
BRANCH  23  32
ATOM     29  C   UNL     1       1.222  -0.207  -0.527  0.00  0.00    -0.048 A 
ATOM     30  C   UNL     1       0.381  -0.563  -1.566  0.00  0.00    +0.004 A 
ATOM     31  C   UNL     1       0.901  -1.107  -2.723  0.00  0.00    +0.012 A 
ATOM     32  C   UNL     1       2.276  -1.298  -2.844  0.00  0.00    +0.021 A 
ATOM     33  C   UNL     1       3.119  -0.936  -1.794  0.00  0.00    +0.012 A 
ATOM     34  C   UNL     1       2.588  -0.388  -0.644  0.00  0.00    +0.004 A 
BRANCH  29  36
ATOM     35  C   UNL     1       0.581   1.909   0.595  0.00  0.00    +0.009 C 
ATOM     36  C   UNL     1       0.648   0.387   0.733  0.00  0.00    +0.032 C 
ENDBRANCH  29  36
ENDBRANCH  23  32
ENDBRANCH  22  26
ENDBRANCH  21  22
ENDBRANCH   1  21
TORSDOF 9
