REMARK  Name = ZINC65954533
REMARK  3 active torsions:
REMARK  status: ('A' for Active; 'I' for Inactive)
REMARK    1  A    between atoms: C_5  and  C_6
REMARK    2  A    between atoms: C_8  and  C_11
REMARK    3  A    between atoms: C_11  and  N_12
REMARK                            x       y       z     vdW  Elec       q    Type
REMARK                         _______ _______ _______ _____ _____    ______ ____
ROOT
ATOM      1  C   UNL     1      -1.132  -0.950   0.009  0.00  0.00    +0.209 A 
ATOM      2  N   UNL     1      -1.036  -2.294   0.006  0.00  0.00    -0.192 NA
ATOM      3  C   UNL     1      -2.224  -2.826   0.013  0.00  0.00    +0.211 A 
ATOM      4  O   UNL     1      -3.132  -1.841   0.022  0.00  0.00    -0.340 OA
ATOM      5  N   UNL     1      -2.404  -0.623   0.024  0.00  0.00    -0.056 NA
ENDROOT
BRANCH   1  10
ATOM      6  C   UNL     1      -0.017   1.366   0.010  0.00  0.00    +0.034 A 
ATOM      7  C   UNL     1       1.181   2.044   0.002  0.00  0.00    +0.026 A 
ATOM      8  C   UNL     1       2.342   1.337  -0.013  0.00  0.00    +0.061 A 
ATOM      9  S   UNL     1       1.754  -0.348  -0.017  0.00  0.00    -0.092 S 
ATOM     10  C   UNL     1       0.002  -0.004   0.002  0.00  0.00    +0.061 A 
ATOM     11 BR   UNL     1       1.212   3.935   0.011  0.00  0.00    -0.050 Br
ENDBRANCH   1  10
BRANCH   3  12
ATOM     12  C   UNL     1      -2.527  -4.302   0.013  0.00  0.00    +0.022 C 
BRANCH  12  13
ATOM     13  N   UNL     1      -2.615  -4.785   1.398  0.00  0.00    +0.387 N 
ATOM     14  C   UNL     1      -3.675  -4.053   2.072  0.00  0.00    -0.069 C 
ATOM     15  C   UNL     1      -3.651  -4.321   3.579  0.00  0.00    +0.077 C 
ATOM     16  C   UNL     1      -4.426  -5.595   3.849  0.00  0.00    +0.211 C 
ATOM     17  O   UNL     1      -5.495  -5.548   4.419  0.00  0.00    -0.276 OA
ATOM     18  N   UNL     1      -3.927  -6.771   3.456  0.00  0.00    -0.317 N 
ATOM     19  C   UNL     1      -2.625  -6.828   2.770  0.00  0.00    +0.085 C 
ATOM     20  C   UNL     1      -2.788  -6.228   1.371  0.00  0.00    -0.059 C 
ATOM     21  H   UNL     1      -4.423  -7.588   3.624  0.00  0.00    +0.149 HD
ATOM     22  H   UNL     1      -1.743  -4.577   1.862  0.00  0.00    -0.081 HD
ENDBRANCH  12  13
ENDBRANCH   3  12
TORSDOF 3
