REMARK  Name = ZINC59168530
REMARK  4 active torsions:
REMARK  status: ('A' for Active; 'I' for Inactive)
REMARK    1  A    between atoms: C_4  and  C_7
REMARK    2  A    between atoms: C_7  and  C_8
REMARK    3  A    between atoms: C_14  and  C_17
REMARK    4  A    between atoms: C_20  and  N_23
REMARK                            x       y       z     vdW  Elec       q    Type
REMARK                         _______ _______ _______ _____ _____    ______ ____
ROOT
ATOM      1  C   UNL     1       4.164  -0.959   1.377  0.00  0.00    +0.156 A 
ATOM      2  N   UNL     1       4.903  -0.167   2.096  0.00  0.00    -0.132 NA
ATOM      3  N   UNL     1       5.114  -0.689   3.253  0.00  0.00    -0.121 NA
ATOM      4  C   UNL     1       4.533  -1.846   3.317  0.00  0.00    +0.211 A 
ATOM      5  N   UNL     1       3.863  -2.072   2.142  0.00  0.00    -0.224 N 
ATOM      6  N   UNL     1       3.117  -3.206   2.009  0.00  0.00    -0.263 N 
ATOM      7  C   UNL     1       3.485  -4.311   2.933  0.00  0.00    +0.183 C 
ATOM      8  S   UNL     1       4.217  -3.302   4.291  0.00  0.00    -0.056 S 
ATOM      9  H   UNL     1       2.131  -2.999   2.068  0.00  0.00    +0.168 HD
ENDROOT
BRANCH   7  10
ATOM     10  C   UNL     1       4.511  -5.229   2.319  0.00  0.00    -0.015 A 
ATOM     11  C   UNL     1       5.426  -4.732   1.410  0.00  0.00    +0.008 A 
ATOM     12  C   UNL     1       6.367  -5.573   0.847  0.00  0.00    +0.033 A 
ATOM     13  C   UNL     1       6.393  -6.912   1.192  0.00  0.00    +0.126 A 
ATOM     14  C   UNL     1       5.478  -7.408   2.101  0.00  0.00    +0.033 A 
ATOM     15  C   UNL     1       4.540  -6.566   2.668  0.00  0.00    +0.008 A 
BRANCH  13  16
ATOM     16  N   UNL     1       7.400  -7.813   0.588  0.00  0.00    +0.056 N 
ATOM     17  O   UNL     1       8.200  -7.378  -0.208  0.00  0.00    -0.126 OA
ATOM     18  O   UNL     1       7.422  -8.983   0.890  0.00  0.00    -0.126 OA
ENDBRANCH  13  16
ENDBRANCH   7  10
BRANCH   1  19
ATOM     19  C   UNL     1       3.711  -0.707  -0.038  0.00  0.00    +0.113 C 
BRANCH  19  23
ATOM     20  C   UNL     1      -0.017   1.378   0.010  0.00  0.00    +0.000 A 
ATOM     21  C   UNL     1       1.171   2.086   0.002  0.00  0.00    +0.000 A 
ATOM     22  C   UNL     1       2.377   1.411  -0.013  0.00  0.00    +0.004 A 
ATOM     23  C   UNL     1       2.396   0.029  -0.020  0.00  0.00    -0.040 A 
ATOM     24  C   UNL     1       1.208  -0.679  -0.012  0.00  0.00    +0.004 A 
ATOM     25  C   UNL     1       0.002  -0.004   0.002  0.00  0.00    +0.000 A 
ENDBRANCH  19  23
ENDBRANCH   1  19
TORSDOF 4
