REMARK  Name = ZINC09836191
REMARK  9 active torsions:
REMARK  status: ('A' for Active; 'I' for Inactive)
REMARK    1  A    between atoms: C_1  and  C_2
REMARK    2  A    between atoms: C_2  and  N_61
REMARK    3  A    between atoms: C_6  and  C_8
REMARK    4  A    between atoms: C_8  and  N_9
REMARK    5  A    between atoms: C_10  and  C_12
REMARK    6  A    between atoms: C_12  and  O_32
REMARK    7  A    between atoms: N_22  and  C_23
REMARK    8  A    between atoms: C_26  and  C_30
REMARK    9  A    between atoms: C_27  and  C_29
REMARK                            x       y       z     vdW  Elec       q    Type
REMARK                         _______ _______ _______ _____ _____    ______ ____
ROOT
ATOM      1  C   UNL     1       1.097   3.721   0.445  0.00  0.00    +0.247 C 
ATOM      2  C   UNL     1       1.153   2.219   0.294  0.00  0.00    +0.034 A 
ATOM      3  C   UNL     1       0.066   1.430   0.592  0.00  0.00    +0.025 A 
ATOM      4  C   UNL     1       0.153   0.056   0.442  0.00  0.00    +0.018 A 
ATOM      5  C   UNL     1       1.329  -0.519  -0.006  0.00  0.00    +0.017 A 
ATOM      6  C   UNL     1       2.422   0.272  -0.305  0.00  0.00    +0.025 A 
ATOM      7  C   UNL     1       2.339   1.650  -0.156  0.00  0.00    +0.043 A 
ATOM      8  N   UNL     1       3.432   2.465  -0.453  0.00  0.00    -0.269 N 
ATOM      9  C   UNL     1       3.402   3.798  -0.326  0.00  0.00    +0.314 C 
ATOM     10  O   UNL     1       4.402   4.430  -0.607  0.00  0.00    -0.252 OA
ATOM     11  N   UNL     1       2.317   4.471   0.099  0.00  0.00    -0.214 N 
ATOM     12 BR   UNL     1      -1.337  -1.036   0.848  0.00  0.00    -0.050 Br
ATOM     13  H   UNL     1       4.250   2.048  -0.765  0.00  0.00    +0.156 HD
ENDROOT
BRANCH  11  14
ATOM     14  C   UNL     1       2.348   5.865   0.211  0.00  0.00    +0.042 A 
ATOM     15  C   UNL     1       1.823   6.657  -0.803  0.00  0.00    +0.024 A 
ATOM     16  C   UNL     1       1.850   8.033  -0.687  0.00  0.00    +0.005 A 
ATOM     17  C   UNL     1       2.408   8.623   0.432  0.00  0.00    -0.047 A 
ATOM     18  C   UNL     1       2.936   7.838   1.441  0.00  0.00    -0.046 A 
ATOM     19  C   UNL     1       2.907   6.461   1.333  0.00  0.00    +0.027 A 
ATOM     20  C   UNL     1       3.542   8.486   2.659  0.00  0.00    +0.044 C 
ATOM     21  C   UNL     1       2.441  10.125   0.553  0.00  0.00    +0.044 C 
ENDBRANCH  11  14
BRANCH   1  23
ATOM     22  N   UNL     1       1.607   3.703   2.865  0.00  0.00    -0.313 N 
ATOM     23  C   UNL     1       0.751   4.033   1.878  0.00  0.00    +0.269 C 
ATOM     24  O   UNL     1      -0.298   4.581   2.142  0.00  0.00    -0.270 OA
ATOM     25  H   UNL     1       2.446   3.265   2.653  0.00  0.00    +0.149 HD
BRANCH  22  26
ATOM     26  C   UNL     1       1.270   4.006   4.258  0.00  0.00    +0.089 C 
BRANCH  26  30
ATOM     27  C   UNL     1       3.030   2.996   7.345  0.00  0.00    -0.078 C 
ATOM     28  C   UNL     1       3.081   1.687   6.528  0.00  0.00    -0.020 C 
ATOM     29  C   UNL     1       2.694   2.096   5.092  0.00  0.00    -0.016 C 
ATOM     30  C   UNL     1       2.441   3.617   5.162  0.00  0.00    -0.051 C 
ATOM     31  N   UNL     1       2.124   3.846   6.577  0.00  0.00    +0.382 N 
ATOM     32  H   UNL     1       1.151   3.581   6.766  0.00  0.00    -0.081 HD
BRANCH  31  34
ATOM     33  C   UNL     1       1.582   5.613   8.230  0.00  0.00    -0.017 C 
ATOM     34  C   UNL     1       2.320   5.287   6.930  0.00  0.00    -0.082 C 
ENDBRANCH  31  34
ENDBRANCH  26  30
ENDBRANCH  22  26
ENDBRANCH   1  23
BRANCH   1  35
ATOM     35  O   UNL     1       0.034   4.207  -0.377  0.00  0.00    -0.360 OA
ATOM     36  H   UNL     1      -0.835   3.852  -0.146  0.00  0.00    +0.213 HD
ENDBRANCH   1  35
TORSDOF 6
