REMARK  Name = ZINC36039537
REMARK  13 active torsions:
REMARK  status: ('A' for Active; 'I' for Inactive)
REMARK    1  A    between atoms: C_1  and  C_2
REMARK    2  A    between atoms: C_2  and  C_3
REMARK    3  A    between atoms: C_2  and  C_4
REMARK    4  A    between atoms: C_4  and  N_5
REMARK    5  A    between atoms: N_5  and  C_6
REMARK    6  A    between atoms: C_6  and  C_7
REMARK    7  A    between atoms: C_7  and  N_9
REMARK    8  A    between atoms: C_12  and  C_25
REMARK    9  A    between atoms: N_14  and  C_15
REMARK   10  A    between atoms: C_18  and  C_21
REMARK   11  A    between atoms: C_21  and  C_22
REMARK   12  A    between atoms: C_21  and  C_23
REMARK   13  A    between atoms: C_21  and  C_24
REMARK                            x       y       z     vdW  Elec       q    Type
REMARK                         _______ _______ _______ _____ _____    ______ ____
ROOT
ATOM      1  N   UNL     1      -3.918  -4.685  -0.251  0.00  0.00    -0.148 NA
ATOM      2  C   UNL     1      -3.903  -6.013  -0.368  0.00  0.00    +0.205 A 
ATOM      3  N   UNL     1      -2.796  -6.792  -0.475  0.00  0.00    -0.326 N 
ATOM      4  C   UNL     1      -3.213  -8.113  -0.576  0.00  0.00    +0.066 A 
ATOM      5  C   UNL     1      -4.556  -8.127  -0.531  0.00  0.00    +0.120 A 
ATOM      6  N   UNL     1      -4.994  -6.825  -0.396  0.00  0.00    -0.287 N 
ATOM      7  H   UNL     1      -1.877  -6.481  -0.479  0.00  0.00    +0.169 HD
ENDROOT
BRANCH   6   8
ATOM      8  C   UNL     1      -6.329  -6.412  -0.306  0.00  0.00    +0.049 A 
ATOM      9  C   UNL     1      -6.633  -5.063  -0.180  0.00  0.00    +0.026 A 
ATOM     10  C   UNL     1      -7.950  -4.658  -0.092  0.00  0.00    +0.006 A 
ATOM     11  C   UNL     1      -8.966  -5.595  -0.128  0.00  0.00    -0.042 A 
ATOM     12  C   UNL     1      -8.667  -6.940  -0.252  0.00  0.00    +0.006 A 
ATOM     13  C   UNL     1      -7.352  -7.350  -0.347  0.00  0.00    +0.026 A 
BRANCH  11  14
ATOM     14  C   UNL     1     -10.403  -5.151  -0.031  0.00  0.00    -0.013 C 
ATOM     15  C   UNL     1     -10.725  -4.210  -1.193  0.00  0.00    +0.015 C 
ATOM     16  C   UNL     1     -11.321  -6.373  -0.094  0.00  0.00    +0.015 C 
ATOM     17  C   UNL     1     -10.621  -4.417   1.294  0.00  0.00    +0.015 C 
ENDBRANCH  11  14
ENDBRANCH   6   8
BRANCH   4  18
ATOM     18  C   UNL     1      -2.334  -9.296  -0.711  0.00  0.00    -0.000 A 
ATOM     19  C   UNL     1      -2.887 -10.573  -0.810  0.00  0.00    +0.010 A 
ATOM     20  C   UNL     1      -2.062 -11.671  -0.935  0.00  0.00    +0.001 A 
ATOM     21  C   UNL     1      -0.689 -11.509  -0.962  0.00  0.00    +0.000 A 
ATOM     22  C   UNL     1      -0.133 -10.245  -0.864  0.00  0.00    +0.001 A 
ATOM     23  C   UNL     1      -0.948  -9.138  -0.745  0.00  0.00    +0.010 A 
ENDBRANCH   4  18
BRANCH   1  24
ATOM     24  C   UNL     1      -2.777  -4.006  -0.237  0.00  0.00    +0.222 C 
ATOM     25  O   UNL     1      -1.718  -4.596  -0.331  0.00  0.00    -0.276 OA
BRANCH  24  26
ATOM     26  C   UNL     1      -2.795  -2.505  -0.105  0.00  0.00    +0.017 C 
BRANCH  26  27
ATOM     27  N   UNL     1      -1.416  -1.997  -0.116  0.00  0.00    +0.385 N 
ATOM     28  H   UNL     1      -0.970  -2.253  -0.984  0.00  0.00    -0.085 HD
ATOM     29  H   UNL     1      -0.905  -2.397   0.656  0.00  0.00    -0.085 HD
BRANCH  27  30
ATOM     30  C   UNL     1      -1.433  -0.534   0.013  0.00  0.00    -0.079 C 
BRANCH  30  32
ATOM     31  C   UNL     1      -0.019   1.526   0.010  0.00  0.00    +0.005 C 
ATOM     32  C   UNL     1       0.002  -0.004   0.002  0.00  0.00    -0.034 C 
ATOM     33  C   UNL     1       0.742  -0.511   1.242  0.00  0.00    +0.005 C 
ENDBRANCH  30  32
ENDBRANCH  27  30
ENDBRANCH  26  27
ENDBRANCH  24  26
ENDBRANCH   1  24
TORSDOF 8
