REMARK  Name = ZINC39678357
REMARK  5 active torsions:
REMARK  status: ('A' for Active; 'I' for Inactive)
REMARK    1  A    between atoms: C_4  and  N_33
REMARK    2  A    between atoms: C_5  and  C_7
REMARK    3  A    between atoms: C_7  and  N_8
REMARK    4  A    between atoms: C_9  and  C_11
REMARK    5  A    between atoms: C_22  and  C_24
REMARK                            x       y       z     vdW  Elec       q    Type
REMARK                         _______ _______ _______ _____ _____    ______ ____
ROOT
ATOM      1  C   UNL     1       1.532  -4.709   2.272  0.00  0.00    +0.100 C 
ATOM      2  C   UNL     1       0.677  -4.065   3.387  0.00  0.00    +0.121 C 
ATOM      3  N   UNL     1      -0.306  -5.111   3.756  0.00  0.00    -0.296 N 
ATOM      4  C   UNL     1       0.469  -6.375   3.717  0.00  0.00    +0.115 C 
ATOM      5  C   UNL     1       1.395  -6.224   2.495  0.00  0.00    -0.004 C 
ATOM      6  C   UNL     1       2.760  -6.840   2.787  0.00  0.00    -0.010 C 
ATOM      7  C   UNL     1       2.607  -8.356   2.947  0.00  0.00    -0.082 C 
ATOM      8  N   UNL     1       2.044  -8.925   1.717  0.00  0.00    +0.379 N 
ATOM      9  C   UNL     1       0.693  -8.397   1.493  0.00  0.00    -0.082 C 
ATOM     10  C   UNL     1       0.765  -6.883   1.272  0.00  0.00    -0.010 C 
ATOM     11  C   UNL     1      -1.609  -4.950   4.059  0.00  0.00    +0.248 C 
ATOM     12  O   UNL     1      -2.270  -5.902   4.429  0.00  0.00    -0.270 OA
ATOM     13  H   UNL     1       2.633  -8.681   0.934  0.00  0.00    -0.086 HD
ATOM     14  H   UNL     1       2.002  -9.930   1.802  0.00  0.00    -0.086 HD
ENDROOT
BRANCH  11  15
ATOM     15  C   UNL     1      -2.232  -3.625   3.942  0.00  0.00    +0.052 A 
ATOM     16  C   UNL     1      -1.551  -2.499   4.278  0.00  0.00    +0.059 A 
ATOM     17  S   UNL     1      -2.615  -1.234   3.997  0.00  0.00    -0.096 S 
ATOM     18  C   UNL     1      -4.026  -2.134   3.415  0.00  0.00    +0.020 A 
ATOM     19  C   UNL     1      -3.604  -3.476   3.452  0.00  0.00    +0.001 A 
ATOM     20  C   UNL     1      -4.527  -4.454   3.033  0.00  0.00    +0.010 A 
ATOM     21  C   UNL     1      -5.779  -4.089   2.605  0.00  0.00    +0.001 A 
ATOM     22  C   UNL     1      -6.168  -2.758   2.573  0.00  0.00    +0.001 A 
ATOM     23  C   UNL     1      -5.287  -1.778   2.989  0.00  0.00    +0.015 A 
ENDBRANCH  11  15
BRANCH   1  25
ATOM     24  N   UNL     1       1.848  -3.987  -0.073  0.00  0.00    -0.311 N 
ATOM     25  C   UNL     1       0.997  -4.328   0.915  0.00  0.00    +0.218 C 
ATOM     26  O   UNL     1      -0.199  -4.327   0.713  0.00  0.00    -0.275 OA
ATOM     27  H   UNL     1       2.804  -3.987   0.089  0.00  0.00    +0.149 HD
BRANCH  24  28
ATOM     28  C   UNL     1       1.329  -3.617  -1.392  0.00  0.00    +0.141 C 
BRANCH  28  33
ATOM     29  C   UNL     1       3.866  -1.656  -3.385  0.00  0.00    +0.000 A 
ATOM     30  C   UNL     1       4.587  -2.667  -3.994  0.00  0.00    +0.002 A 
ATOM     31  C   UNL     1       4.257  -3.988  -3.762  0.00  0.00    +0.023 A 
ATOM     32  C   UNL     1       3.199  -4.301  -2.918  0.00  0.00    +0.034 A 
ATOM     33  C   UNL     1       2.477  -3.283  -2.308  0.00  0.00    -0.009 A 
ATOM     34  C   UNL     1       2.813  -1.964  -2.544  0.00  0.00    +0.007 A 
BRANCH  32  35
ATOM     35  N   UNL     1       2.862  -5.636  -2.682  0.00  0.00    -0.330 N 
ATOM     36  C   UNL     1       1.893  -6.326  -3.543  0.00  0.00    +0.105 C 
ATOM     37  C   UNL     1       2.530  -7.617  -4.067  0.00  0.00    +0.019 C 
ATOM     38  C   UNL     1       3.027  -8.452  -2.884  0.00  0.00    +0.003 C 
ATOM     39  C   UNL     1       4.091  -7.666  -2.114  0.00  0.00    +0.019 C 
ATOM     40  C   UNL     1       3.475  -6.378  -1.572  0.00  0.00    +0.105 C 
ENDBRANCH  32  35
ENDBRANCH  28  33
ENDBRANCH  24  28
ENDBRANCH   1  25
TORSDOF 5
