REMARK  Name = ZINC39599308
REMARK  9 active torsions:
REMARK  status: ('A' for Active; 'I' for Inactive)
REMARK    1  A    between atoms: C_1  and  O_2
REMARK    2  A    between atoms: O_2  and  C_3
REMARK    3  A    between atoms: C_9  and  C_12
REMARK    4  A    between atoms: C_12  and  C_13
REMARK    5  A    between atoms: C_13  and  N_14
REMARK    6  A    between atoms: C_15  and  C_17
REMARK    7  A    between atoms: C_28  and  C_30
REMARK    8  A    between atoms: C_34  and  O_35
REMARK    9  A    between atoms: O_35  and  C_36
REMARK                            x       y       z     vdW  Elec       q    Type
REMARK                         _______ _______ _______ _____ _____    ______ ____
ROOT
ATOM      1  C   UNL     1      -2.423  -8.500  -0.811  0.00  0.00    +0.100 C 
ATOM      2  C   UNL     1      -2.287  -8.251   0.708  0.00  0.00    +0.121 C 
ATOM      3  N   UNL     1      -3.636  -7.812   1.137  0.00  0.00    -0.296 N 
ATOM      4  C   UNL     1      -4.566  -8.666   0.360  0.00  0.00    +0.115 C 
ATOM      5  C   UNL     1      -3.919  -8.775  -1.035  0.00  0.00    -0.004 C 
ATOM      6  C   UNL     1      -4.120 -10.178  -1.601  0.00  0.00    -0.010 C 
ATOM      7  C   UNL     1      -5.610 -10.406  -1.870  0.00  0.00    -0.082 C 
ATOM      8  N   UNL     1      -6.099  -9.399  -2.819  0.00  0.00    +0.379 N 
ATOM      9  C   UNL     1      -5.988  -8.059  -2.228  0.00  0.00    -0.082 C 
ATOM     10  C   UNL     1      -4.514  -7.731  -1.975  0.00  0.00    -0.010 C 
ATOM     11  C   UNL     1      -3.946  -6.853   2.031  0.00  0.00    +0.251 C 
ATOM     12  O   UNL     1      -3.067  -6.167   2.518  0.00  0.00    -0.270 OA
ATOM     13  H   UNL     1      -5.548  -9.439  -3.663  0.00  0.00    -0.086 HD
ATOM     14  H   UNL     1      -7.064  -9.588  -3.041  0.00  0.00    -0.086 HD
ENDROOT
BRANCH  11  15
ATOM     15  C   UNL     1      -5.348  -6.635   2.419  0.00  0.00    +0.087 A 
ATOM     16  C   UNL     1      -6.241  -7.680   2.514  0.00  0.00    +0.063 A 
ATOM     17  S   UNL     1      -7.681  -6.953   2.977  0.00  0.00    -0.081 S 
ATOM     18  C   UNL     1      -7.160  -5.253   3.062  0.00  0.00    +0.120 A 
ATOM     19  C   UNL     1      -5.852  -5.315   2.724  0.00  0.00    +0.158 A 
ATOM     20 CL   UNL     1      -8.101  -3.856   3.481  0.00  0.00    -0.072 Cl
BRANCH  19  21
ATOM     21  O   UNL     1      -5.064  -4.207   2.670  0.00  0.00    -0.492 OA
ATOM     22  C   UNL     1      -5.000  -3.515   1.421  0.00  0.00    +0.277 C 
ENDBRANCH  19  21
ENDBRANCH  11  15
BRANCH   1  24
ATOM     23  N   UNL     1      -1.448  -7.414  -2.809  0.00  0.00    -0.315 N 
ATOM     24  C   UNL     1      -1.993  -7.279  -1.583  0.00  0.00    +0.218 C 
ATOM     25  O   UNL     1      -2.137  -6.176  -1.102  0.00  0.00    -0.275 OA
ATOM     26  H   UNL     1      -1.333  -8.297  -3.194  0.00  0.00    +0.149 HD
BRANCH  23  27
ATOM     27  C   UNL     1      -1.030  -6.227  -3.559  0.00  0.00    +0.109 C 
BRANCH  27  28
ATOM     28  C   UNL     1      -0.449  -6.655  -4.908  0.00  0.00    +0.056 C 
BRANCH  28  35
ATOM     29  C   UNL     1       3.483  -4.082  -4.928  0.00  0.00    +0.121 A 
ATOM     30  C   UNL     1       3.425  -3.021  -5.828  0.00  0.00    +0.047 A 
ATOM     31  C   UNL     1       2.300  -2.813  -6.595  0.00  0.00    +0.030 A 
ATOM     32  C   UNL     1       1.209  -3.667  -6.475  0.00  0.00    +0.047 A 
ATOM     33  N   UNL     1      -0.025  -3.719  -7.088  0.00  0.00    -0.360 N 
ATOM     34  C   UNL     1      -0.742  -4.777  -6.601  0.00  0.00    +0.087 A 
ATOM     35  C   UNL     1      -0.020  -5.434  -5.680  0.00  0.00    -0.021 A 
ATOM     36  C   UNL     1       1.265  -4.740  -5.567  0.00  0.00    +0.006 A 
ATOM     37  C   UNL     1       2.413  -4.944  -4.798  0.00  0.00    +0.056 A 
ATOM     38  H   UNL     1      -0.338  -3.097  -7.764  0.00  0.00    +0.165 HD
BRANCH  29  40
ATOM     39  C   UNL     1       5.675  -3.348  -4.366  0.00  0.00    +0.277 C 
ATOM     40  O   UNL     1       4.602  -4.273  -4.178  0.00  0.00    -0.495 OA
ENDBRANCH  29  40
ENDBRANCH  28  35
ENDBRANCH  27  28
ENDBRANCH  23  27
ENDBRANCH   1  24
TORSDOF 7
