REMARK  Name = ZINC38612444
REMARK  8 active torsions:
REMARK  status: ('A' for Active; 'I' for Inactive)
REMARK    1  A    between atoms: C_4  and  C_7
REMARK    2  A    between atoms: C_7  and  O_8
REMARK    3  A    between atoms: O_8  and  C_9
REMARK    4  A    between atoms: C_14  and  C_15
REMARK    5  A    between atoms: C_17  and  C_21
REMARK    6  A    between atoms: N_23  and  N_24
REMARK    7  A    between atoms: C_25  and  C_26
REMARK    8  A    between atoms: C_31  and  O_32
REMARK                            x       y       z     vdW  Elec       q    Type
REMARK                         _______ _______ _______ _____ _____    ______ ____
ROOT
ATOM      1  C   UNL     1       5.029  -1.441   3.942  0.00  0.00    +0.095 C 
ATOM      2  C   UNL     1       3.851  -0.788   3.899  0.00  0.00    +0.041 C 
ATOM      3  C   UNL     1       3.495  -0.585   5.361  0.00  0.00    +0.240 C 
ATOM      4  N   UNL     1       4.624  -1.208   6.072  0.00  0.00    -0.170 NA
ATOM      5  N   UNL     1       5.408  -1.652   5.230  0.00  0.00    -0.153 NA
ENDROOT
BRANCH   1  11
ATOM      6  C   UNL     1       5.318  -1.605   1.466  0.00  0.00    +0.130 A 
ATOM      7  C   UNL     1       6.048  -2.007   0.359  0.00  0.00    +0.046 A 
ATOM      8  C   UNL     1       7.246  -2.676   0.526  0.00  0.00    +0.004 A 
ATOM      9  C   UNL     1       7.723  -2.949   1.796  0.00  0.00    +0.001 A 
ATOM     10  C   UNL     1       7.006  -2.553   2.907  0.00  0.00    +0.014 A 
ATOM     11  C   UNL     1       5.800  -1.873   2.751  0.00  0.00    +0.044 A 
BRANCH   6  12
ATOM     12  O   UNL     1       4.141  -0.946   1.304  0.00  0.00    -0.487 OA
BRANCH  12  13
ATOM     13  C   UNL     1       3.711  -0.707  -0.038  0.00  0.00    +0.264 C 
BRANCH  13  17
ATOM     14  C   UNL     1      -0.017   1.378   0.010  0.00  0.00    +0.000 A 
ATOM     15  C   UNL     1       1.171   2.086   0.002  0.00  0.00    +0.000 A 
ATOM     16  C   UNL     1       2.377   1.411  -0.013  0.00  0.00    +0.007 A 
ATOM     17  C   UNL     1       2.396   0.029  -0.020  0.00  0.00    -0.010 A 
ATOM     18  C   UNL     1       1.208  -0.679  -0.012  0.00  0.00    +0.007 A 
ATOM     19  C   UNL     1       0.002  -0.004   0.002  0.00  0.00    +0.000 A 
ENDBRANCH  13  17
ENDBRANCH  12  13
ENDBRANCH   6  12
ENDBRANCH   1  11
BRANCH   3  20
ATOM     20  C   UNL     1       2.202  -1.283   5.696  0.00  0.00    +0.263 C 
ATOM     21  O   UNL     1       2.220  -2.362   6.250  0.00  0.00    -0.271 OA
ATOM     22  N   UNL     1       1.025  -0.707   5.379  0.00  0.00    -0.205 N 
ATOM     23  H   UNL     1       1.010   0.155   4.936  0.00  0.00    +0.177 HD
BRANCH  22  24
ATOM     24  N   UNL     1      -0.178  -1.356   5.690  0.00  0.00    -0.188 NA
ATOM     25  C   UNL     1      -1.312  -0.802   5.385  0.00  0.00    +0.142 C 
BRANCH  25  26
ATOM     26  C   UNL     1      -2.576  -1.484   5.712  0.00  0.00    +0.037 A 
ATOM     27  C   UNL     1      -3.798  -0.893   5.381  0.00  0.00    +0.028 A 
ATOM     28  C   UNL     1      -4.979  -1.538   5.689  0.00  0.00    +0.019 A 
ATOM     29  C   UNL     1      -4.957  -2.767   6.327  0.00  0.00    +0.019 A 
ATOM     30  C   UNL     1      -3.754  -3.361   6.660  0.00  0.00    +0.047 A 
ATOM     31  C   UNL     1      -2.560  -2.730   6.352  0.00  0.00    +0.126 A 
ATOM     32 BR   UNL     1      -6.633  -0.738   5.240  0.00  0.00    -0.050 Br
BRANCH  31  33
ATOM     33  O   UNL     1      -1.377  -3.316   6.674  0.00  0.00    -0.506 OA
ATOM     34  H   UNL     1      -1.050  -3.082   7.553  0.00  0.00    +0.292 HD
ENDBRANCH  31  33
ENDBRANCH  25  26
ENDBRANCH  22  24
ENDBRANCH   3  20
TORSDOF 8
