REMARK  Name = ZINC08850679
REMARK  16 active torsions:
REMARK  status: ('A' for Active; 'I' for Inactive)
REMARK    1  A    between atoms: C_1  and  C_2
REMARK    2  A    between atoms: C_2  and  O_3
REMARK    3  A    between atoms: O_3  and  C_4
REMARK    4  A    between atoms: C_6  and  C_18
REMARK    5  A    between atoms: C_9  and  O_10
REMARK    6  A    between atoms: O_10  and  C_11
REMARK    7  A    between atoms: C_11  and  C_12
REMARK    8  A    between atoms: N_14  and  C_15
REMARK    9  A    between atoms: N_14  and  C_16
REMARK   10  A    between atoms: C_18  and  N_58
REMARK   11  A    between atoms: C_19  and  C_21
REMARK   12  A    between atoms: C_19  and  C_22
REMARK   13  A    between atoms: C_19  and  N_58
REMARK   14  A    between atoms: C_22  and  C_24
REMARK   15  A    between atoms: C_22  and  O_31
REMARK   16  A    between atoms: C_27  and  O_30
REMARK                            x       y       z     vdW  Elec       q    Type
REMARK                         _______ _______ _______ _____ _____    ______ ____
ROOT
ATOM      1  C   UNL     1       0.807   1.987   2.993  0.00  0.00    +0.163 A 
ATOM      2  C   UNL     1       1.347   1.611   4.212  0.00  0.00    +0.051 A 
ATOM      3  C   UNL     1       0.938   0.438   4.818  0.00  0.00    -0.060 A 
ATOM      4  C   UNL     1      -0.011  -0.363   4.210  0.00  0.00    +0.021 A 
ATOM      5  C   UNL     1      -0.559   0.009   2.996  0.00  0.00    +0.063 A 
ATOM      6  C   UNL     1      -0.148   1.182   2.381  0.00  0.00    +0.176 A 
ATOM      7 BR   UNL     1      -1.863  -1.084   2.172  0.00  0.00    -0.046 Br
ENDROOT
BRANCH   1   8
ATOM      8  O   UNL     1       1.209   3.141   2.396  0.00  0.00    -0.489 OA
BRANCH   8  10
ATOM      9  C   UNL     1       2.516   5.169   2.264  0.00  0.00    +0.048 C 
ATOM     10  C   UNL     1       2.192   3.918   3.083  0.00  0.00    +0.226 C 
ENDBRANCH   8  10
ENDBRANCH   1   8
BRANCH   6  11
ATOM     11  O   UNL     1      -0.682   1.547   1.184  0.00  0.00    -0.478 OA
BRANCH  11  12
ATOM     12  C   UNL     1      -0.013   1.086   0.008  0.00  0.00    +0.325 C 
BRANCH  12  13
ATOM     13  C   UNL     1      -0.742   1.585  -1.213  0.00  0.00    +0.253 C 
ATOM     14  O   UNL     1      -1.736   2.268  -1.088  0.00  0.00    -0.272 OA
ATOM     15  N   UNL     1      -0.288   1.272  -2.443  0.00  0.00    -0.305 N 
ATOM     16  C   UNL     1      -0.997   1.758  -3.630  0.00  0.00    +0.131 C 
ATOM     17  C   UNL     1       0.913   0.447  -2.593  0.00  0.00    +0.131 C 
ENDBRANCH  12  13
ENDBRANCH  11  12
ENDBRANCH   6  11
BRANCH   3  18
ATOM     18  C   UNL     1       1.527   0.031   6.144  0.00  0.00    -0.046 C 
BRANCH  18  19
ATOM     19  N   UNL     1       0.706   0.595   7.232  0.00  0.00    +0.385 N 
ATOM     20  H   UNL     1      -0.254   0.237   7.152  0.00  0.00    -0.085 HD
ATOM     21  H   UNL     1       0.697   1.618   7.154  0.00  0.00    -0.085 HD
BRANCH  19  22
ATOM     22  C   UNL     1       1.260   0.211   8.544  0.00  0.00    -0.041 C 
ATOM     23  C   UNL     1       2.357   1.201   8.943  0.00  0.00    -0.011 C 
BRANCH  22  24
ATOM     24  C   UNL     1       0.143   0.239   9.588  0.00  0.00    +0.130 C 
BRANCH  24  25
ATOM     25  C   UNL     1      -0.937  -0.736   9.195  0.00  0.00    -0.020 A 
ATOM     26  C   UNL     1      -1.873  -0.380   8.242  0.00  0.00    +0.009 A 
ATOM     27  C   UNL     1      -2.861  -1.274   7.875  0.00  0.00    +0.046 A 
ATOM     28  C   UNL     1      -2.920  -2.524   8.473  0.00  0.00    +0.117 A 
ATOM     29  C   UNL     1      -1.983  -2.876   9.433  0.00  0.00    +0.046 A 
ATOM     30  C   UNL     1      -0.993  -1.982   9.792  0.00  0.00    +0.009 A 
BRANCH  28  31
ATOM     31  O   UNL     1      -3.895  -3.403   8.118  0.00  0.00    -0.507 OA
ATOM     32  H   UNL     1      -4.701  -3.330   8.647  0.00  0.00    +0.292 HD
ENDBRANCH  28  31
ENDBRANCH  24  25
BRANCH  24  33
ATOM     33  O   UNL     1      -0.407   1.556   9.663  0.00  0.00    -0.389 OA
ATOM     34  H   UNL     1      -0.787   1.871   8.831  0.00  0.00    +0.210 HD
ENDBRANCH  24  33
ENDBRANCH  22  24
ENDBRANCH  19  22
ENDBRANCH  18  19
ENDBRANCH   3  18
TORSDOF 12
