REMARK  Name = ZINC37435686
REMARK  10 active torsions:
REMARK  status: ('A' for Active; 'I' for Inactive)
REMARK    1  A    between atoms: C_1  and  C_2
REMARK    2  A    between atoms: C_2  and  O_3
REMARK    3  A    between atoms: O_3  and  C_4
REMARK    4  A    between atoms: C_4  and  C_6
REMARK    5  A    between atoms: C_12  and  C_14
REMARK    6  A    between atoms: C_17  and  C_19
REMARK    7  A    between atoms: C_19  and  N_20
REMARK    8  A    between atoms: C_22  and  C_35
REMARK    9  A    between atoms: N_25  and  C_26
REMARK   10  A    between atoms: C_26  and  C_28
REMARK                            x       y       z     vdW  Elec       q    Type
REMARK                         _______ _______ _______ _____ _____    ______ ____
ROOT
ATOM      1  C   UNL     1      -5.422  -6.259  -1.843  0.00  0.00    +0.190 A 
ATOM      2  C   UNL     1      -5.917  -7.183  -2.718  0.00  0.00    +0.055 A 
ATOM      3  C   UNL     1      -5.499  -8.441  -2.257  0.00  0.00    +0.047 A 
ATOM      4  C   UNL     1      -4.776  -8.232  -1.134  0.00  0.00    +0.126 A 
ATOM      5  O   UNL     1      -4.729  -6.916  -0.890  0.00  0.00    -0.453 OA
ENDROOT
BRANCH   1  12
ATOM      6  C   UNL     1      -5.406  -2.470   1.447  0.00  0.00    +0.101 C 
ATOM      7  C   UNL     1      -5.501  -3.996   1.508  0.00  0.00    +0.033 C 
ATOM      8  C   UNL     1      -4.712  -4.601   0.343  0.00  0.00    +0.109 C 
ATOM      9  N   UNL     1      -5.201  -4.016  -0.913  0.00  0.00    -0.295 N 
ATOM     10  C   UNL     1      -5.237  -2.553  -1.044  0.00  0.00    +0.109 C 
ATOM     11  C   UNL     1      -6.020  -1.972   0.137  0.00  0.00    +0.033 C 
ATOM     12  C   UNL     1      -5.608  -4.807  -1.926  0.00  0.00    +0.282 C 
ATOM     13  O   UNL     1      -6.129  -4.315  -2.909  0.00  0.00    -0.267 OA
BRANCH   6  14
ATOM     14  C   UNL     1      -6.153  -1.873   2.611  0.00  0.00    +0.310 C 
ATOM     15  O   UNL     1      -7.081  -1.125   2.414  0.00  0.00    -0.251 OA
BRANCH  14  16
ATOM     16  O   UNL     1      -5.787  -2.171   3.868  0.00  0.00    -0.465 OA
BRANCH  16  18
ATOM     17  C   UNL     1      -5.979  -2.024   6.272  0.00  0.00    +0.048 C 
ATOM     18  C   UNL     1      -6.539  -1.569   4.923  0.00  0.00    +0.229 C 
ENDBRANCH  16  18
ENDBRANCH  14  16
ENDBRANCH   6  14
ENDBRANCH   1  12
BRANCH   4  19
ATOM     19  C   UNL     1      -4.128  -9.304  -0.296  0.00  0.00    +0.197 C 
BRANCH  19  20
ATOM     20  N   UNL     1      -2.768  -9.549  -0.783  0.00  0.00    -0.321 N 
ATOM     21  C   UNL     1      -2.535 -10.478  -1.748  0.00  0.00    +0.098 A 
ATOM     22  C   UNL     1      -1.268 -10.648  -2.144  0.00  0.00    +0.006 A 
ATOM     23  S   UNL     1      -0.402  -9.466  -1.128  0.00  0.00    -0.057 S 
ATOM     24  C   UNL     1      -1.716  -8.845  -0.283  0.00  0.00    +0.166 A 
ATOM     25  N   UNL     1      -1.725  -7.896   0.652  0.00  0.00    -0.152 NA
ATOM     26  C   UNL     1      -0.717 -11.592  -3.181  0.00  0.00    +0.053 C 
BRANCH  25  27
ATOM     27  C   UNL     1      -0.583  -7.311   1.020  0.00  0.00    +0.271 C 
ATOM     28  O   UNL     1       0.469  -7.645   0.501  0.00  0.00    -0.268 OA
BRANCH  27  29
ATOM     29  C   UNL     1      -0.593  -6.255   2.059  0.00  0.00    +0.057 A 
ATOM     30  C   UNL     1      -1.794  -5.874   2.659  0.00  0.00    +0.014 A 
ATOM     31  C   UNL     1      -1.796  -4.891   3.626  0.00  0.00    +0.001 A 
ATOM     32  C   UNL     1      -0.612  -4.282   4.002  0.00  0.00    +0.001 A 
ATOM     33  C   UNL     1       0.582  -4.654   3.412  0.00  0.00    +0.021 A 
ATOM     34  C   UNL     1       0.599  -5.642   2.446  0.00  0.00    +0.053 A 
ATOM     35 CL   UNL     1       2.100  -6.113   1.711  0.00  0.00    -0.083 Cl
ENDBRANCH  27  29
ENDBRANCH  25  27
ENDBRANCH  19  20
ENDBRANCH   4  19
TORSDOF 8
