REMARK  Name = ZINC28869626
REMARK  13 active torsions:
REMARK  status: ('A' for Active; 'I' for Inactive)
REMARK    1  A    between atoms: C_1  and  C_2
REMARK    2  A    between atoms: C_2  and  C_3
REMARK    3  A    between atoms: C_3  and  N_4
REMARK    4  A    between atoms: N_4  and  C_5
REMARK    5  A    between atoms: C_6  and  C_27
REMARK    6  A    between atoms: C_8  and  C_21
REMARK    7  A    between atoms: N_10  and  C_13
REMARK    8  A    between atoms: C_13  and  C_14
REMARK    9  A    between atoms: C_17  and  N_20
REMARK   10  A    between atoms: C_28  and  C_30
REMARK   11  A    between atoms: C_30  and  C_32
REMARK   12  A    between atoms: C_30  and  C_36
REMARK   13  A    between atoms: C_32  and  C_33
REMARK                            x       y       z     vdW  Elec       q    Type
REMARK                         _______ _______ _______ _____ _____    ______ ____
ROOT
ATOM      1  C   UNL     1      -3.512   0.978   3.570  0.00  0.00    +0.098 C 
ATOM      2  C   UNL     1      -3.326   2.281   3.345  0.00  0.00    -0.044 C 
ATOM      3  C   UNL     1      -4.466   3.249   3.523  0.00  0.00    +0.059 C 
ATOM      4  C   UNL     1      -5.786   2.583   3.130  0.00  0.00    +0.111 C 
ATOM      5  N   UNL     1      -5.921   1.292   3.806  0.00  0.00    -0.285 N 
ATOM      6  C   UNL     1      -4.850   0.491   3.962  0.00  0.00    +0.262 C 
ATOM      7  O   UNL     1      -4.983  -0.626   4.421  0.00  0.00    -0.269 OA
ATOM      8  C   UNL     1      -1.971   2.784   2.919  0.00  0.00    +0.041 C 
ENDROOT
BRANCH   4   9
ATOM      9  C   UNL     1      -6.932   3.477   3.527  0.00  0.00    -0.027 A 
ATOM     10  C   UNL     1      -7.217   3.681   4.864  0.00  0.00    +0.005 A 
ATOM     11  C   UNL     1      -8.265   4.506   5.229  0.00  0.00    +0.000 A 
ATOM     12  C   UNL     1      -9.034   5.117   4.257  0.00  0.00    +0.000 A 
ATOM     13  C   UNL     1      -8.752   4.909   2.920  0.00  0.00    +0.000 A 
ATOM     14  C   UNL     1      -7.701   4.089   2.555  0.00  0.00    +0.005 A 
ENDBRANCH   4   9
BRANCH   1  15
ATOM     15  N   UNL     1      -2.446   0.080   3.436  0.00  0.00    -0.266 N 
ATOM     16  C   UNL     1      -2.362  -0.710   2.346  0.00  0.00    +0.234 C 
ATOM     17  O   UNL     1      -1.393  -1.420   2.185  0.00  0.00    -0.274 OA
BRANCH  15  18
ATOM     18  C   UNL     1      -1.421  -0.002   4.480  0.00  0.00    +0.113 C 
BRANCH  18  20
ATOM     19  C   UNL     1      -0.758  -1.151   6.598  0.00  0.00    +0.005 C 
ATOM     20  C   UNL     1      -1.772  -1.130   5.452  0.00  0.00    +0.016 C 
ENDBRANCH  18  20
ENDBRANCH  15  18
BRANCH  16  21
ATOM     21  C   UNL     1      -3.474  -0.709   1.329  0.00  0.00    +0.199 C 
BRANCH  21  22
ATOM     22  C   UNL     1      -3.222   0.372   0.310  0.00  0.00    +0.368 C 
ATOM     23  O   UNL     1      -2.164   0.419  -0.271  0.00  0.00    -0.246 OA
ATOM     24  O   UNL     1      -4.173   1.282   0.047  0.00  0.00    -0.246 OA
ENDBRANCH  21  22
BRANCH  21  25
ATOM     25  C   UNL     1      -3.525  -2.069   0.629  0.00  0.00    +0.149 C 
BRANCH  25  26
ATOM     26  C   UNL     1      -4.712  -2.111  -0.299  0.00  0.00    +0.357 C 
ATOM     27  O   UNL     1      -5.441  -1.153  -0.392  0.00  0.00    -0.246 OA
ATOM     28  O   UNL     1      -4.957  -3.214  -1.024  0.00  0.00    -0.246 OA
ENDBRANCH  25  26
ENDBRANCH  21  25
ENDBRANCH  16  21
ENDBRANCH   1  15
BRANCH   5  29
ATOM     29  C   UNL     1      -7.227   0.870   4.318  0.00  0.00    +0.143 C 
BRANCH  29  30
ATOM     30  C   UNL     1      -7.914   0.007   3.290  0.00  0.00    -0.030 A 
ATOM     31  C   UNL     1      -8.650   0.594   2.277  0.00  0.00    +0.007 A 
ATOM     32  C   UNL     1      -9.276  -0.194   1.331  0.00  0.00    +0.023 A 
ATOM     33  C   UNL     1      -9.174  -1.577   1.404  0.00  0.00    +0.025 A 
ATOM     34  C   UNL     1      -8.439  -2.163   2.426  0.00  0.00    +0.023 A 
ATOM     35  C   UNL     1      -7.811  -1.370   3.366  0.00  0.00    +0.007 A 
BRANCH  33  36
ATOM     36  N   UNL     1      -9.811  -2.377   0.452  0.00  0.00    -0.358 N 
ATOM     37  H   UNL     1      -9.730  -3.472   0.511  0.00  0.00    +0.142 HD
ATOM     38  H   UNL     1     -10.393  -1.911  -0.356  0.00  0.00    +0.142 HD
ENDBRANCH  33  36
ENDBRANCH  29  30
ENDBRANCH   5  29
TORSDOF 11
