REMARK  Name = ZINC12338099
REMARK  10 active torsions:
REMARK  status: ('A' for Active; 'I' for Inactive)
REMARK    1  A    between atoms: C_1  and  O_2
REMARK    2  A    between atoms: O_2  and  C_3
REMARK    3  A    between atoms: C_6  and  O_30
REMARK    4  A    between atoms: C_7  and  C_9
REMARK    5  A    between atoms: C_9  and  N_58
REMARK    6  A    between atoms: C_16  and  C_21
REMARK    7  A    between atoms: C_18  and  O_19
REMARK    8  A    between atoms: O_19  and  C_20
REMARK    9  A    between atoms: C_24  and  S_27
REMARK   10  A    between atoms: S_27  and  C_28
REMARK                            x       y       z     vdW  Elec       q    Type
REMARK                         _______ _______ _______ _____ _____    ______ ____
ROOT
ATOM      1  C   UNL     1      -3.581   2.589  -1.722  0.00  0.00    -0.036 C 
ATOM      2  C   UNL     1      -3.858   2.477  -3.205  0.00  0.00    +0.211 C 
ATOM      3  O   UNL     1      -4.949   3.324  -3.584  0.00  0.00    -0.490 OA
ATOM      4  C   UNL     1      -4.615   4.615  -3.864  0.00  0.00    +0.163 A 
ATOM      5  C   UNL     1      -4.186   5.450  -2.852  0.00  0.00    -0.018 A 
ATOM      6  C   UNL     1      -3.812   6.749  -3.124  0.00  0.00    +0.014 A 
ATOM      7  C   UNL     1      -3.886   7.229  -4.432  0.00  0.00    -0.014 A 
ATOM      8  C   UNL     1      -4.337   6.395  -5.453  0.00  0.00    +0.058 A 
ATOM      9  C   UNL     1      -4.701   5.090  -5.171  0.00  0.00    +0.162 A 
ATOM     10  C   UNL     1      -4.159   4.936  -1.425  0.00  0.00    -0.039 C 
ATOM     11  N   UNL     1      -3.080   3.923  -1.329  0.00  0.00    +0.387 N 
ATOM     12  H   UNL     1      -2.320   4.190  -1.964  0.00  0.00    -0.081 HD
ENDROOT
BRANCH   7  13
ATOM     13  C   UNL     1      -3.485   8.625  -4.735  0.00  0.00    -0.018 A 
ATOM     14  C   UNL     1      -3.039   9.460  -3.712  0.00  0.00    +0.009 A 
ATOM     15  C   UNL     1      -2.662  10.755  -3.996  0.00  0.00    +0.015 A 
ATOM     16  C   UNL     1      -2.737  11.232  -5.301  0.00  0.00    +0.008 A 
ATOM     17  C   UNL     1      -3.187  10.401  -6.321  0.00  0.00    +0.015 A 
ATOM     18  C   UNL     1      -3.560   9.104  -6.042  0.00  0.00    +0.009 A 
BRANCH  16  19
ATOM     19  S   UNL     1      -2.261  12.890  -5.660  0.00  0.00    -0.129 S 
ATOM     20  C   UNL     1      -1.760  13.561  -4.052  0.00  0.00    +0.090 C 
ENDBRANCH  16  19
ENDBRANCH   7  13
BRANCH   9  21
ATOM     21  O   UNL     1      -5.140   4.273  -6.167  0.00  0.00    -0.491 OA
ATOM     22  C   UNL     1      -5.201   4.829  -7.482  0.00  0.00    +0.277 C 
ENDBRANCH   9  21
BRANCH  11  23
ATOM     23  C   UNL     1      -2.557   3.875   0.046  0.00  0.00    -0.039 C 
BRANCH  23  28
ATOM     24  C   UNL     1       0.253   1.381   0.454  0.00  0.00    +0.121 A 
ATOM     25  C   UNL     1       1.329   2.090  -0.057  0.00  0.00    +0.049 A 
ATOM     26  C   UNL     1       1.148   3.374  -0.534  0.00  0.00    +0.049 A 
ATOM     27  C   UNL     1      -0.111   3.956  -0.496  0.00  0.00    +0.118 A 
ATOM     28  C   UNL     1      -1.189   3.245   0.011  0.00  0.00    -0.019 A 
ATOM     29  C   UNL     1      -1.007   1.961   0.487  0.00  0.00    +0.051 A 
BRANCH  24  31
ATOM     30  C   UNL     1       1.755  -0.417   0.860  0.00  0.00    +0.277 C 
ATOM     31  O   UNL     1       0.432   0.118   0.924  0.00  0.00    -0.495 OA
ENDBRANCH  24  31
BRANCH  27  32
ATOM     32  O   UNL     1      -0.289   5.222  -0.960  0.00  0.00    -0.507 OA
ATOM     33  H   UNL     1      -0.512   5.268  -1.899  0.00  0.00    +0.292 HD
ENDBRANCH  27  32
ENDBRANCH  23  28
ENDBRANCH  11  23
TORSDOF 7
