REMARK  Name = ZINC14977103
REMARK  10 active torsions:
REMARK  status: ('A' for Active; 'I' for Inactive)
REMARK    1  A    between atoms: C_1  and  O_2
REMARK    2  A    between atoms: O_2  and  C_3
REMARK    3  A    between atoms: C_7  and  C_9
REMARK    4  A    between atoms: C_9  and  C_10
REMARK    5  A    between atoms: C_10  and  N_63
REMARK    6  A    between atoms: C_11  and  N_63
REMARK    7  A    between atoms: N_22  and  C_25
REMARK    8  A    between atoms: C_25  and  C_26
REMARK    9  A    between atoms: C_26  and  C_27
REMARK   10  A    between atoms: C_27  and  C_28
REMARK                            x       y       z     vdW  Elec       q    Type
REMARK                         _______ _______ _______ _____ _____    ______ ____
ROOT
ATOM      1  C   UNL     1      -0.340   4.734   8.192  0.00  0.00    -0.067 C 
ATOM      2  C   UNL     1      -0.510   4.867   9.708  0.00  0.00    -0.011 C 
ATOM      3  C   UNL     1       0.273   6.077  10.214  0.00  0.00    +0.035 C 
ATOM      4  C   UNL     1      -0.131   7.304   9.401  0.00  0.00    -0.023 A 
ATOM      5  C   UNL     1      -0.741   7.162   8.200  0.00  0.00    -0.006 A 
ATOM      6  S   UNL     1      -1.023   8.817   7.624  0.00  0.00    -0.073 S 
ATOM      7  C   UNL     1      -0.326   9.693   8.989  0.00  0.00    +0.116 A 
ATOM      8  C   UNL     1       0.106   8.663   9.854  0.00  0.00    +0.076 A 
ATOM      9  C   UNL     1       0.732   9.063  11.082  0.00  0.00    +0.262 A 
ATOM     10  O   UNL     1       1.140   8.252  11.896  0.00  0.00    -0.267 OA
ATOM     11  N   UNL     1       0.839  10.398  11.279  0.00  0.00    -0.299 N 
ATOM     12  C   UNL     1       0.392  11.315  10.387  0.00  0.00    +0.203 A 
ATOM     13  N   UNL     1      -0.185  10.988   9.252  0.00  0.00    -0.230 NA
ATOM     14  C   UNL     1      -1.097   5.882   7.510  0.00  0.00    +0.027 C 
ENDROOT
BRANCH   1  15
ATOM     15  N   UNL     1      -0.897   3.441   7.750  0.00  0.00    +0.381 N 
ATOM     16  H   UNL     1      -0.729   2.735   8.475  0.00  0.00    -0.086 HD
ATOM     17  H   UNL     1      -1.907   3.542   7.598  0.00  0.00    -0.086 HD
BRANCH  15  18
ATOM     18  C   UNL     1      -0.256   3.011   6.493  0.00  0.00    -0.078 C 
BRANCH  18  19
ATOM     19  C   UNL     1      -0.853   1.670   6.060  0.00  0.00    +0.016 C 
BRANCH  19  24
ATOM     20  C   UNL     1      -0.149   1.182   2.380  0.00  0.00    +0.120 A 
ATOM     21  C   UNL     1       0.994   0.397   2.421  0.00  0.00    +0.045 A 
ATOM     22  C   UNL     1       1.534   0.028   3.637  0.00  0.00    +0.004 A 
ATOM     23  C   UNL     1       0.936   0.440   4.814  0.00  0.00    +0.004 A 
ATOM     24  C   UNL     1      -0.203   1.222   4.776  0.00  0.00    -0.046 A 
ATOM     25  C   UNL     1      -0.744   1.599   3.561  0.00  0.00    +0.049 A 
BRANCH  20  27
ATOM     26  C   UNL     1      -0.013   1.086   0.008  0.00  0.00    +0.277 C 
ATOM     27  O   UNL     1      -0.682   1.547   1.184  0.00  0.00    -0.495 OA
ENDBRANCH  20  27
ENDBRANCH  19  24
ENDBRANCH  18  19
ENDBRANCH  15  18
ENDBRANCH   1  15
BRANCH  11  28
ATOM     28  C   UNL     1       1.467  10.874  12.514  0.00  0.00    +0.126 C 
BRANCH  28  29
ATOM     29  C   UNL     1       0.399  11.047  13.596  0.00  0.00    +0.026 C 
BRANCH  29  30
ATOM     30  C   UNL     1       1.056  11.543  14.886  0.00  0.00    +0.037 C 
BRANCH  30  31
ATOM     31  C   UNL     1       0.004  11.714  15.951  0.00  0.00    -0.044 A 
ATOM     32  C   UNL     1      -0.657  12.923  16.109  0.00  0.00    +0.023 A 
ATOM     33  C   UNL     1      -1.619  13.041  17.095  0.00  0.00    +0.111 A 
ATOM     34  N   UNL     1      -1.903  12.024  17.885  0.00  0.00    -0.263 NA
ATOM     35  C   UNL     1      -1.292  10.861  17.767  0.00  0.00    +0.111 A 
ATOM     36  C   UNL     1      -0.322  10.668  16.801  0.00  0.00    +0.023 A 
ENDBRANCH  30  31
ENDBRANCH  29  30
ENDBRANCH  28  29
ENDBRANCH  11  28
TORSDOF 9
