REMARK  Name = ZINC39665734
REMARK  13 active torsions:
REMARK  status: ('A' for Active; 'I' for Inactive)
REMARK    1  A    between atoms: C_1  and  C_2
REMARK    2  A    between atoms: C_3  and  C_12
REMARK    3  A    between atoms: C_7  and  O_8
REMARK    4  A    between atoms: O_8  and  C_9
REMARK    5  A    between atoms: C_9  and  C_11
REMARK    6  A    between atoms: C_16  and  C_25
REMARK    7  A    between atoms: N_27  and  C_28
REMARK    8  A    between atoms: C_28  and  C_29
REMARK    9  A    between atoms: C_29  and  C_31
REMARK   10  A    between atoms: C_29  and  O_32
REMARK   11  A    between atoms: O_32  and  C_33
REMARK   12  A    between atoms: C_36  and  O_39
REMARK   13  A    between atoms: O_39  and  C_40
REMARK                            x       y       z     vdW  Elec       q    Type
REMARK                         _______ _______ _______ _____ _____    ______ ____
ROOT
ATOM      1  C   UNL     1       0.995  -0.326  -5.956  0.00  0.00    +0.247 C 
ATOM      2  O   UNL     1       1.183   0.715  -6.553  0.00  0.00    -0.270 OA
ATOM      3  N   UNL     1       0.800  -1.470  -6.641  0.00  0.00    -0.296 N 
ATOM      4  C   UNL     1       0.448  -2.804  -6.100  0.00  0.00    +0.121 C 
ATOM      5  C   UNL     1      -0.565  -3.382  -7.114  0.00  0.00    +0.100 C 
ATOM      6  C   UNL     1      -0.269  -2.641  -8.429  0.00  0.00    -0.004 C 
ATOM      7  C   UNL     1       0.882  -1.677  -8.107  0.00  0.00    +0.115 C 
ATOM      8  C   UNL     1       0.156  -3.631  -9.509  0.00  0.00    -0.010 C 
ATOM      9  C   UNL     1       0.388  -2.878 -10.822  0.00  0.00    -0.082 C 
ATOM     10  N   UNL     1      -0.846  -2.190 -11.219  0.00  0.00    +0.379 N 
ATOM     11  C   UNL     1      -1.197  -1.175 -10.219  0.00  0.00    -0.082 C 
ATOM     12  C   UNL     1      -1.496  -1.856  -8.880  0.00  0.00    -0.010 C 
ATOM     13  H   UNL     1      -0.709  -1.745 -12.114  0.00  0.00    -0.086 HD
ATOM     14  H   UNL     1      -1.595  -2.862 -11.291  0.00  0.00    -0.086 HD
ENDROOT
BRANCH   1  17
ATOM     15  C   UNL     1      -0.228   1.867  -4.519  0.00  0.00    +0.048 C 
ATOM     16  C   UNL     1       0.394   0.714  -3.774  0.00  0.00    +0.004 A 
ATOM     17  C   UNL     1       0.982  -0.338  -4.477  0.00  0.00    +0.043 A 
ATOM     18  C   UNL     1       1.556  -1.402  -3.780  0.00  0.00    +0.013 A 
ATOM     19  C   UNL     1       1.541  -1.411  -2.400  0.00  0.00    +0.004 A 
ATOM     20  C   UNL     1       0.958  -0.367  -1.705  0.00  0.00    +0.047 A 
ATOM     21  C   UNL     1       0.389   0.698  -2.390  0.00  0.00    +0.135 A 
BRANCH  21  22
ATOM     22  O   UNL     1      -0.177   1.724  -1.701  0.00  0.00    -0.426 OA
BRANCH  22  23
ATOM     23  C   UNL     1       0.568   2.816  -1.470  0.00  0.00    +0.309 C 
ATOM     24  O   UNL     1       1.721   2.848  -1.831  0.00  0.00    -0.251 OA
ATOM     25  C   UNL     1      -0.032   4.002  -0.760  0.00  0.00    +0.136 C 
ENDBRANCH  22  23
ENDBRANCH  21  22
ENDBRANCH   1  17
BRANCH   5  26
ATOM     26  C   UNL     1      -0.349  -4.864  -7.284  0.00  0.00    +0.218 C 
ATOM     27  O   UNL     1       0.747  -5.344  -7.084  0.00  0.00    -0.275 OA
ATOM     28  N   UNL     1      -1.374  -5.655  -7.658  0.00  0.00    -0.312 N 
ATOM     29  H   UNL     1      -2.250  -5.271  -7.818  0.00  0.00    +0.149 HD
BRANCH  28  30
ATOM     30  C   UNL     1      -1.164  -7.096  -7.823  0.00  0.00    +0.148 C 
BRANCH  30  31
ATOM     31  C   UNL     1      -2.477  -7.757  -8.249  0.00  0.00    +0.187 C 
ATOM     32  C   UNL     1      -2.290  -9.274  -8.301  0.00  0.00    +0.053 C 
BRANCH  31  33
ATOM     33  O   UNL     1      -2.853  -7.279  -9.542  0.00  0.00    -0.488 OA
BRANCH  33  34
ATOM     34  C   UNL     1      -4.169  -7.366  -9.874  0.00  0.00    +0.121 A 
ATOM     35  C   UNL     1      -4.610  -6.881 -11.096  0.00  0.00    +0.049 A 
ATOM     36  C   UNL     1      -5.947  -6.970 -11.433  0.00  0.00    +0.049 A 
ATOM     37  C   UNL     1      -6.848  -7.545 -10.549  0.00  0.00    +0.120 A 
ATOM     38  C   UNL     1      -6.407  -8.031  -9.328  0.00  0.00    +0.049 A 
ATOM     39  C   UNL     1      -5.069  -7.946  -8.993  0.00  0.00    +0.049 A 
BRANCH  37  40
ATOM     40  O   UNL     1      -8.164  -7.632 -10.881  0.00  0.00    -0.495 OA
ATOM     41  C   UNL     1      -9.035  -8.236  -9.923  0.00  0.00    +0.277 C 
ENDBRANCH  37  40
ENDBRANCH  33  34
ENDBRANCH  31  33
ENDBRANCH  30  31
ENDBRANCH  28  30
ENDBRANCH   5  26
TORSDOF 9
