REMARK  Name = ZINC04276755
REMARK  6 active torsions:
REMARK  status: ('A' for Active; 'I' for Inactive)
REMARK    1  A    between atoms: C_3  and  O_10
REMARK    2  A    between atoms: C_6  and  N_7
REMARK    3  A    between atoms: O_10  and  C_11
REMARK    4  A    between atoms: C_14  and  S_18
REMARK    5  A    between atoms: S_18  and  N_21
REMARK    6  A    between atoms: C_22  and  C_24
REMARK                            x       y       z     vdW  Elec       q    Type
REMARK                         _______ _______ _______ _____ _____    ______ ____
ROOT
ATOM      1  C   UNL     1       2.014   2.473  -0.122  0.00  0.00    +0.165 A 
ATOM      2  C   UNL     1       0.826   1.889   0.296  0.00  0.00    +0.086 A 
ATOM      3  C   UNL     1       0.757   0.521   0.483  0.00  0.00    +0.052 A 
ATOM      4  C   UNL     1       1.870  -0.266   0.254  0.00  0.00    +0.112 A 
ATOM      5  C   UNL     1       3.055   0.312  -0.163  0.00  0.00    +0.052 A 
ATOM      6  C   UNL     1       3.130   1.680  -0.351  0.00  0.00    +0.086 A 
ATOM      7 CL   UNL     1       4.619   2.405  -0.873  0.00  0.00    -0.080 Cl
ATOM      8 CL   UNL     1      -0.575   2.876   0.577  0.00  0.00    -0.080 Cl
ENDROOT
BRANCH   4   9
ATOM      9  S   UNL     1       1.779  -2.009   0.493  0.00  0.00    +0.073 S 
ATOM     10  O   UNL     1       3.105  -2.456   0.737  0.00  0.00    -0.150 OA
ATOM     11  O   UNL     1       0.717  -2.239   1.409  0.00  0.00    -0.150 OA
BRANCH   9  12
ATOM     12  N   UNL     1       1.312  -2.678  -0.949  0.00  0.00    -0.204 N 
ATOM     13  C   UNL     1       2.134  -2.591  -2.042  0.00  0.00    +0.100 C 
ATOM     14  H   UNL     1       3.926  -1.875  -2.664  0.00  0.00    +0.157 HD
ATOM     15  H   UNL     1       0.458  -3.130  -1.020  0.00  0.00    +0.175 HD
ATOM     16  N   UNL     1       3.279  -1.965  -1.880  0.00  0.00    -0.388 N 
ATOM     17  H   UNL     1       3.523  -1.568  -0.966  0.00  0.00    +0.157 HD
BRANCH  13  18
ATOM     18  C   UNL     1       1.710  -3.199  -3.353  0.00  0.00    +0.178 C 
ATOM     19 CL   UNL     1       2.995  -2.922  -4.588  0.00  0.00    -0.117 Cl
ENDBRANCH  13  18
ENDBRANCH   9  12
ENDBRANCH   4   9
BRANCH   1  20
ATOM     20  O   UNL     1       2.084   3.817  -0.307  0.00  0.00    -0.453 OA
BRANCH  20  23
ATOM     21  C   UNL     1       2.910   6.747   1.686  0.00  0.00    +0.036 A 
ATOM     22  C   UNL     1       2.537   5.966   0.610  0.00  0.00    +0.048 A 
ATOM     23  C   UNL     1       2.451   4.588   0.750  0.00  0.00    +0.129 A 
ATOM     24  C   UNL     1       2.735   4.000   1.975  0.00  0.00    +0.048 A 
ATOM     25  C   UNL     1       3.113   4.785   3.046  0.00  0.00    +0.036 A 
ATOM     26  C   UNL     1       3.198   6.158   2.903  0.00  0.00    +0.126 A 
BRANCH  26  27
ATOM     27  N   UNL     1       3.596   6.998   4.055  0.00  0.00    +0.056 N 
ATOM     28  O   UNL     1       3.671   8.207   3.930  0.00  0.00    -0.126 OA
ATOM     29  O   UNL     1       3.850   6.480   5.128  0.00  0.00    -0.126 OA
ENDBRANCH  26  27
ENDBRANCH  20  23
ENDBRANCH   1  20
TORSDOF 6
