REMARK  Name = ZINC05740057
REMARK  8 active torsions:
REMARK  status: ('A' for Active; 'I' for Inactive)
REMARK    1  A    between atoms: C_1  and  C_2
REMARK    2  A    between atoms: C_5  and  N_9
REMARK    3  A    between atoms: C_6  and  C_8
REMARK    4  A    between atoms: N_9  and  C_10
REMARK    5  A    between atoms: C_10  and  C_11
REMARK    6  A    between atoms: N_13  and  N_14
REMARK    7  A    between atoms: C_15  and  C_16
REMARK    8  A    between atoms: C_17  and  C_26
REMARK                            x       y       z     vdW  Elec       q    Type
REMARK                         _______ _______ _______ _____ _____    ______ ____
ROOT
ATOM      1  C   UNL     1      -0.742   1.585  -1.213  0.00  0.00    +0.249 C 
ATOM      2  O   UNL     1      -1.736   2.268  -1.088  0.00  0.00    -0.272 OA
ATOM      3  N   UNL     1      -0.288   1.272  -2.443  0.00  0.00    -0.206 N 
ATOM      4  H   UNL     1       0.507   0.726  -2.543  0.00  0.00    +0.177 HD
ENDROOT
BRANCH   3   5
ATOM      5  N   UNL     1      -0.966   1.736  -3.578  0.00  0.00    -0.188 NA
ATOM      6  C   UNL     1      -0.529   1.435  -4.764  0.00  0.00    +0.140 C 
BRANCH   6   7
ATOM      7  C   UNL     1      -1.241   1.923  -5.956  0.00  0.00    +0.023 A 
ATOM      8  C   UNL     1      -2.366   2.688  -5.976  0.00  0.00    +0.023 A 
ATOM      9  N   UNL     1      -2.728   2.940  -7.265  0.00  0.00    -0.358 N 
ATOM     10  H   UNL     1      -3.497   3.468  -7.532  0.00  0.00    +0.166 HD
ATOM     11  C   UNL     1      -1.846   2.335  -8.136  0.00  0.00    +0.047 A 
ATOM     12  C   UNL     1      -0.879   1.672  -7.362  0.00  0.00    +0.009 A 
ATOM     13  C   UNL     1       0.149   0.966  -7.985  0.00  0.00    +0.010 A 
ATOM     14  C   UNL     1       0.211   0.923  -9.360  0.00  0.00    +0.001 A 
ATOM     15  C   UNL     1      -0.745   1.577 -10.125  0.00  0.00    +0.002 A 
ATOM     16  C   UNL     1      -1.766   2.278  -9.523  0.00  0.00    +0.026 A 
ATOM     17  C   UNL     1      -3.099   3.184  -4.756  0.00  0.00    +0.064 C 
ENDBRANCH   6   7
ENDBRANCH   3   5
BRANCH   1  18
ATOM     18  C   UNL     1      -0.013   1.086   0.008  0.00  0.00    +0.199 C 
BRANCH  18  19
ATOM     19  N   UNL     1      -0.698   1.558   1.213  0.00  0.00    -0.335 N 
ATOM     20  H   UNL     1      -1.495   2.106   1.135  0.00  0.00    +0.147 HD
BRANCH  19  25
ATOM     21  C   UNL     1       1.308   0.190   6.338  0.00  0.00    +0.044 C 
ATOM     22  C   UNL     1       0.774   0.553   4.976  0.00  0.00    -0.050 A 
ATOM     23  C   UNL     1       1.423   0.105   3.839  0.00  0.00    +0.005 A 
ATOM     24  C   UNL     1       0.937   0.437   2.590  0.00  0.00    +0.023 A 
ATOM     25  C   UNL     1      -0.205   1.221   2.475  0.00  0.00    +0.030 A 
ATOM     26  C   UNL     1      -0.850   1.672   3.619  0.00  0.00    -0.029 A 
ATOM     27  C   UNL     1      -0.362   1.333   4.866  0.00  0.00    +0.008 A 
ATOM     28  C   UNL     1      -2.085   2.528   3.500  0.00  0.00    +0.045 C 
ENDBRANCH  19  25
ENDBRANCH  18  19
ENDBRANCH   1  18
TORSDOF 5
