REMARK  Name = ZINC39688735
REMARK  7 active torsions:
REMARK  status: ('A' for Active; 'I' for Inactive)
REMARK    1  A    between atoms: C_1  and  C_2
REMARK    2  A    between atoms: C_2  and  C_4
REMARK    3  A    between atoms: C_2  and  N_12
REMARK    4  A    between atoms: C_4  and  C_5
REMARK    5  A    between atoms: C_13  and  C_15
REMARK    6  A    between atoms: C_26  and  C_28
REMARK    7  A    between atoms: C_31  and  C_33
REMARK                            x       y       z     vdW  Elec       q    Type
REMARK                         _______ _______ _______ _____ _____    ______ ____
ROOT
ATOM      1  C   UNL     1       0.712  -1.094  -3.598  0.00  0.00    +0.100 C 
ATOM      2  C   UNL     1       1.732  -0.041  -4.085  0.00  0.00    +0.121 C 
ATOM      3  N   UNL     1       1.653  -0.098  -5.564  0.00  0.00    -0.294 N 
ATOM      4  C   UNL     1       0.208  -0.272  -5.849  0.00  0.00    +0.115 C 
ATOM      5  C   UNL     1      -0.287  -1.243  -4.759  0.00  0.00    -0.004 C 
ATOM      6  C   UNL     1      -0.277  -2.675  -5.284  0.00  0.00    -0.010 C 
ATOM      7  C   UNL     1      -1.318  -2.812  -6.399  0.00  0.00    -0.082 C 
ATOM      8  N   UNL     1      -2.646  -2.470  -5.875  0.00  0.00    +0.379 N 
ATOM      9  C   UNL     1      -2.673  -1.063  -5.458  0.00  0.00    -0.082 C 
ATOM     10  C   UNL     1      -1.689  -0.852  -4.303  0.00  0.00    -0.010 C 
ATOM     11  C   UNL     1       2.665  -0.011  -6.449  0.00  0.00    +0.282 C 
ATOM     12  O   UNL     1       2.437  -0.076  -7.643  0.00  0.00    -0.267 OA
ATOM     13  H   UNL     1      -3.338  -2.620  -6.594  0.00  0.00    -0.086 HD
ATOM     14  H   UNL     1      -2.856  -3.059  -5.083  0.00  0.00    -0.086 HD
ENDROOT
BRANCH  11  15
ATOM     15  C   UNL     1       4.040   0.161  -5.974  0.00  0.00    +0.190 A 
ATOM     16  C   UNL     1       5.162   0.268  -6.767  0.00  0.00    +0.055 A 
ATOM     17  C   UNL     1       6.253   0.418  -5.904  0.00  0.00    +0.050 A 
ATOM     18  C   UNL     1       5.763   0.397  -4.630  0.00  0.00    +0.136 A 
ATOM     19  O   UNL     1       4.429   0.247  -4.684  0.00  0.00    -0.450 OA
BRANCH  18  20
ATOM     20  C   UNL     1       6.565   0.523  -3.397  0.00  0.00    +0.017 A 
ATOM     21  C   UNL     1       7.950   0.686  -3.476  0.00  0.00    +0.014 A 
ATOM     22  C   UNL     1       8.694   0.804  -2.321  0.00  0.00    +0.039 A 
ATOM     23  C   UNL     1       8.071   0.761  -1.084  0.00  0.00    +0.123 A 
ATOM     24  C   UNL     1       6.697   0.599  -1.000  0.00  0.00    +0.039 A 
ATOM     25  C   UNL     1       5.942   0.485  -2.148  0.00  0.00    +0.014 A 
ATOM     26  F   UNL     1       8.805   0.877   0.044  0.00  0.00    -0.205 F 
ENDBRANCH  18  20
ENDBRANCH  11  15
BRANCH   1  28
ATOM     27  N   UNL     1      -0.407  -1.492  -1.428  0.00  0.00    -0.312 N 
ATOM     28  C   UNL     1       0.006  -0.608  -2.358  0.00  0.00    +0.218 C 
ATOM     29  O   UNL     1      -0.190   0.578  -2.198  0.00  0.00    -0.275 OA
ATOM     30  H   UNL     1      -0.250  -2.440  -1.556  0.00  0.00    +0.149 HD
BRANCH  27  32
ATOM     31  C   UNL     1      -0.056  -0.618   0.829  0.00  0.00    +0.028 C 
ATOM     32  C   UNL     1      -1.092  -1.019  -0.223  0.00  0.00    +0.074 C 
BRANCH  32  33
ATOM     33  C   UNL     1      -1.977  -2.137   0.333  0.00  0.00    +0.057 C 
BRANCH  33  34
ATOM     34  C   UNL     1      -3.073  -2.448  -0.654  0.00  0.00    -0.045 A 
ATOM     35  C   UNL     1      -4.276  -1.770  -0.586  0.00  0.00    +0.006 A 
ATOM     36  C   UNL     1      -5.282  -2.054  -1.490  0.00  0.00    +0.038 A 
ATOM     37  C   UNL     1      -5.084  -3.017  -2.465  0.00  0.00    +0.123 A 
ATOM     38  C   UNL     1      -3.879  -3.695  -2.533  0.00  0.00    +0.038 A 
ATOM     39  C   UNL     1      -2.872  -3.406  -1.630  0.00  0.00    +0.006 A 
ATOM     40  F   UNL     1      -6.067  -3.295  -3.349  0.00  0.00    -0.205 F 
ENDBRANCH  33  34
ENDBRANCH  32  33
ENDBRANCH  27  32
ENDBRANCH   1  28
TORSDOF 6
