REMARK  Name = ZINC09014202
REMARK  6 active torsions:
REMARK  status: ('A' for Active; 'I' for Inactive)
REMARK    1  A    between atoms: C_4  and  C_7
REMARK    2  A    between atoms: C_7  and  C_8
REMARK    3  A    between atoms: C_8  and  N_9
REMARK    4  A    between atoms: C_12  and  C_18
REMARK    5  A    between atoms: C_13  and  O_17
REMARK    6  A    between atoms: C_15  and  O_16
REMARK                            x       y       z     vdW  Elec       q    Type
REMARK                         _______ _______ _______ _____ _____    ______ ____
ROOT
ATOM      1  N   UNL     1       2.931   3.415   0.093  0.00  0.00    -0.262 N 
ATOM      2  C   UNL     1       1.651   2.986   0.102  0.00  0.00    +0.262 A 
ATOM      3  O   UNL     1       0.730   3.780   0.203  0.00  0.00    -0.267 OA
ATOM      4  C   UNL     1       1.400   1.611  -0.003  0.00  0.00    +0.070 A 
ATOM      5  C   UNL     1       2.473   0.747  -0.121  0.00  0.00    +0.224 A 
ATOM      6  N   UNL     1       3.719   1.233  -0.129  0.00  0.00    -0.161 NA
ATOM      7  C   UNL     1       3.948   2.523  -0.025  0.00  0.00    +0.302 A 
ENDROOT
BRANCH   4   8
ATOM      8  C   UNL     1      -0.013   1.086   0.008  0.00  0.00    +0.018 C 
ATOM      9  C   UNL     1      -0.751   1.590  -1.209  0.00  0.00    +0.011 A 
ATOM     10  C   UNL     1      -2.018   2.061  -1.160  0.00  0.00    -0.022 A 
ATOM     11  C   UNL     1      -2.382   2.450  -2.505  0.00  0.00    +0.003 A 
ATOM     12  C   UNL     1      -3.546   2.995  -3.055  0.00  0.00    +0.010 A 
ATOM     13  C   UNL     1      -3.537   3.242  -4.406  0.00  0.00    +0.001 A 
ATOM     14  C   UNL     1      -2.434   2.970  -5.198  0.00  0.00    +0.002 A 
ATOM     15  C   UNL     1      -1.269   2.430  -4.680  0.00  0.00    +0.026 A 
ATOM     16  C   UNL     1      -1.248   2.169  -3.311  0.00  0.00    +0.047 A 
ATOM     17  N   UNL     1      -0.284   1.651  -2.494  0.00  0.00    -0.359 N 
ATOM     18  H   UNL     1       0.598   1.368  -2.781  0.00  0.00    +0.166 HD
ATOM     19  C   UNL     1      -2.831   2.130   0.108  0.00  0.00    +0.018 C 
ATOM     20  C   UNL     1      -2.147   1.243   1.158  0.00  0.00    -0.076 C 
ATOM     21  N   UNL     1      -0.704   1.570   1.222  0.00  0.00    +0.388 N 
ATOM     22  H   UNL     1      -0.591   2.588   1.293  0.00  0.00    -0.084 HD
ATOM     23  H   UNL     1      -0.292   1.121   2.048  0.00  0.00    -0.084 HD
ENDBRANCH   4   8
BRANCH   7  24
ATOM     24  O   UNL     1       5.220   2.970  -0.037  0.00  0.00    -0.479 OA
ATOM     25  H   UNL     1       5.918   2.307  -0.123  0.00  0.00    +0.295 HD
ENDBRANCH   7  24
BRANCH   5  26
ATOM     26  O   UNL     1       2.264  -0.586  -0.229  0.00  0.00    -0.492 OA
ATOM     27  H   UNL     1       3.075  -1.107  -0.307  0.00  0.00    +0.294 HD
ENDBRANCH   5  26
BRANCH   1  28
ATOM     28  C   UNL     1       3.223   4.846   0.207  0.00  0.00    +0.134 C 
BRANCH  28  29
ATOM     29  C   UNL     1       3.267   5.470  -1.190  0.00  0.00    +0.057 C 
BRANCH  29  33
ATOM     30  C   UNL     1       4.118   9.643  -0.860  0.00  0.00    +0.000 A 
ATOM     31  C   UNL     1       5.153   8.734  -0.980  0.00  0.00    +0.000 A 
ATOM     32  C   UNL     1       4.877   7.383  -1.086  0.00  0.00    +0.004 A 
ATOM     33  C   UNL     1       3.567   6.942  -1.073  0.00  0.00    -0.046 A 
ATOM     34  C   UNL     1       2.533   7.851  -0.958  0.00  0.00    +0.004 A 
ATOM     35  C   UNL     1       2.808   9.201  -0.846  0.00  0.00    +0.000 A 
ENDBRANCH  29  33
ENDBRANCH  28  29
ENDBRANCH   1  28
TORSDOF 6
