REMARK  Name = ZINC20553166
REMARK  5 active torsions:
REMARK  status: ('A' for Active; 'I' for Inactive)
REMARK    1  A    between atoms: C_1  and  C_2
REMARK    2  A    between atoms: C_3  and  N_21
REMARK    3  A    between atoms: C_5  and  S_9
REMARK    4  A    between atoms: S_9  and  N_12
REMARK    5  A    between atoms: N_12  and  C_13
REMARK                            x       y       z     vdW  Elec       q    Type
REMARK                         _______ _______ _______ _____ _____    ______ ____
ROOT
ATOM      1  S   UNL     1      -1.502   3.271   1.126  0.00  0.00    +0.092 S 
ATOM      2  O   UNL     1      -2.844   3.718   0.992  0.00  0.00    -0.148 OA
ATOM      3  O   UNL     1      -0.988   2.756   2.346  0.00  0.00    -0.148 OA
ENDROOT
BRANCH   1   8
ATOM      4  C   UNL     1       2.040   7.917  -0.404  0.00  0.00    +0.047 C 
ATOM      5  C   UNL     1       1.155   6.759  -0.023  0.00  0.00    -0.011 A 
ATOM      6  C   UNL     1      -0.165   6.720  -0.455  0.00  0.00    +0.031 A 
ATOM      7  C   UNL     1      -0.977   5.650  -0.102  0.00  0.00    +0.052 A 
ATOM      8  C   UNL     1      -0.471   4.628   0.677  0.00  0.00    +0.113 A 
ATOM      9  C   UNL     1       0.841   4.671   1.111  0.00  0.00    +0.049 A 
ATOM     10  C   UNL     1       1.655   5.733   0.756  0.00  0.00    +0.047 A 
ATOM     11 CL   UNL     1       3.304   5.779   1.296  0.00  0.00    -0.083 Cl
BRANCH   6  12
ATOM     12  N   UNL     1      -0.674   7.756  -1.242  0.00  0.00    -0.358 N 
ATOM     13  H   UNL     1      -1.720   7.724  -1.583  0.00  0.00    +0.142 HD
ATOM     14  H   UNL     1      -0.030   8.602  -1.520  0.00  0.00    +0.142 HD
ENDBRANCH   6  12
ENDBRANCH   1   8
BRANCH   1  15
ATOM     15  N   UNL     1      -1.281   2.091  -0.015  0.00  0.00    -0.098 NA
BRANCH  15  16
ATOM     16  C   UNL     1      -0.029   1.488  -0.163  0.00  0.00    +0.076 A 
ATOM     17  C   UNL     1       0.773   1.807  -1.251  0.00  0.00    +0.028 A 
ATOM     18  C   UNL     1       2.008   1.206  -1.398  0.00  0.00    +0.023 A 
ATOM     19  C   UNL     1       2.446   0.285  -0.463  0.00  0.00    +0.059 A 
ATOM     20  C   UNL     1       1.648  -0.037   0.622  0.00  0.00    +0.061 A 
ATOM     21  C   UNL     1       0.412   0.563   0.774  0.00  0.00    +0.048 A 
ATOM     22 CL   UNL     1       2.202  -1.193   1.793  0.00  0.00    -0.082 Cl
ATOM     23 CL   UNL     1       3.998  -0.469  -0.652  0.00  0.00    -0.082 Cl
ENDBRANCH  15  16
ENDBRANCH   1  15
TORSDOF 4
