REMARK  Name = ZINC22607928
REMARK  4 active torsions:
REMARK  status: ('A' for Active; 'I' for Inactive)
REMARK    1  A    between atoms: C_1  and  C_2
REMARK    2  A    between atoms: C_8  and  N_10
REMARK    3  A    between atoms: N_16  and  S_17
REMARK    4  A    between atoms: S_17  and  C_20
REMARK                            x       y       z     vdW  Elec       q    Type
REMARK                         _______ _______ _______ _____ _____    ______ ____
ROOT
ATOM      1  N   UNL     1      -0.715   1.573  -1.182  0.00  0.00    -0.268 NA
ATOM      2  C   UNL     1      -2.017   0.898  -1.337  0.00  0.00    +0.193 C 
ATOM      3  N   UNL     1      -2.697   1.511  -2.489  0.00  0.00    -0.303 N 
ATOM      4  C   UNL     1      -1.952   1.790  -3.612  0.00  0.00    +0.202 C 
ATOM      5  N   UNL     1      -0.656   1.747  -3.584  0.00  0.00    -0.303 N 
ATOM      6  C   UNL     1       0.100   1.388  -2.389  0.00  0.00    +0.193 C 
ATOM      7  N   UNL     1      -2.591   2.121  -4.784  0.00  0.00    -0.097 NA
ATOM      8  H   UNL     1      -3.773   1.735  -2.437  0.00  0.00    +0.150 HD
ATOM      9  H   UNL     1      -0.127   1.996  -4.516  0.00  0.00    +0.150 HD
ENDROOT
BRANCH   1  16
ATOM     10  C   UNL     1      -1.051   2.904   1.371  0.00  0.00    +0.009 C 
ATOM     11  C   UNL     1      -0.841   1.393   1.257  0.00  0.00    +0.003 C 
ATOM     12  C   UNL     1      -0.105   0.886   2.499  0.00  0.00    +0.005 C 
ATOM     13  C   UNL     1       0.106  -0.626   2.385  0.00  0.00    +0.000 C 
ATOM     14  C   UNL     1       0.938  -0.932   1.139  0.00  0.00    +0.002 C 
ATOM     15  C   UNL     1       0.202  -0.425  -0.103  0.00  0.00    +0.019 C 
ATOM     16  C   UNL     1      -0.009   1.086   0.010  0.00  0.00    +0.062 C 
ENDBRANCH   1  16
BRANCH   7  17
ATOM     17  S   UNL     1      -1.708   2.458  -6.143  0.00  0.00    +0.102 S 
ATOM     18  O   UNL     1      -2.643   2.732  -7.177  0.00  0.00    -0.146 OA
ATOM     19  O   UNL     1      -0.706   3.389  -5.755  0.00  0.00    -0.146 OA
BRANCH  17  20
ATOM     20  C   UNL     1      -0.870   0.978  -6.601  0.00  0.00    +0.113 A 
ATOM     21  C   UNL     1       0.392   0.715  -6.102  0.00  0.00    +0.029 A 
ATOM     22  C   UNL     1       1.047  -0.449  -6.457  0.00  0.00    +0.002 A 
ATOM     23  C   UNL     1       0.445  -1.346  -7.320  0.00  0.00    +0.000 A 
ATOM     24  C   UNL     1      -0.815  -1.080  -7.824  0.00  0.00    +0.002 A 
ATOM     25  C   UNL     1      -1.472   0.081  -7.464  0.00  0.00    +0.029 A 
ENDBRANCH  17  20
ENDBRANCH   7  17
TORSDOF 3
