REMARK  Name = ZINC66732752
REMARK  4 active torsions:
REMARK  status: ('A' for Active; 'I' for Inactive)
REMARK    1  A    between atoms: C_1  and  C_2
REMARK    2  A    between atoms: C_4  and  C_28
REMARK    3  A    between atoms: C_12  and  C_14
REMARK    4  A    between atoms: C_17  and  C_22
REMARK                            x       y       z     vdW  Elec       q    Type
REMARK                         _______ _______ _______ _____ _____    ______ ____
ROOT
ATOM      1  C   UNL     1      -0.994   0.546  -0.564  0.00  0.00    +0.044 C 
ATOM      2  C   UNL     1       0.054  -0.490  -0.251  0.00  0.00    -0.048 A 
ATOM      3  C   UNL     1       0.994  -0.835  -1.206  0.00  0.00    +0.007 A 
ATOM      4  C   UNL     1       1.954  -1.786  -0.923  0.00  0.00    -0.045 A 
ATOM      5  C   UNL     1       1.985  -2.400   0.318  0.00  0.00    -0.023 A 
ATOM      6  C   UNL     1       1.046  -2.053   1.276  0.00  0.00    +0.040 A 
ATOM      7  C   UNL     1       0.081  -1.094   0.990  0.00  0.00    +0.027 A 
ATOM      8  N   UNL     1       1.058  -2.652   2.543  0.00  0.00    -0.267 N 
ATOM      9  C   UNL     1       1.873  -3.856   2.751  0.00  0.00    +0.114 C 
ATOM     10  C   UNL     1       3.240  -3.616   2.097  0.00  0.00    +0.024 C 
ATOM     11  C   UNL     1       3.043  -3.437   0.592  0.00  0.00    +0.039 C 
ATOM     12  C   UNL     1       0.334  -2.131   3.553  0.00  0.00    +0.256 C 
ATOM     13  O   UNL     1      -0.248  -1.074   3.403  0.00  0.00    -0.269 OA
ATOM     14  C   UNL     1       2.974  -2.157  -1.969  0.00  0.00    +0.044 C 
ENDROOT
BRANCH  12  15
ATOM     15  C   UNL     1       0.248  -2.841   4.838  0.00  0.00    +0.101 A 
ATOM     16  C   UNL     1       0.421  -2.152   6.038  0.00  0.00    +0.020 A 
ATOM     17  C   UNL     1       0.334  -2.851   7.238  0.00  0.00    +0.027 A 
ATOM     18  C   UNL     1       0.080  -4.207   7.228  0.00  0.00    +0.049 A 
ATOM     19  N   UNL     1      -0.089  -4.878   6.051  0.00  0.00    -0.321 N 
ATOM     20  H   UNL     1      -0.268  -5.832   6.066  0.00  0.00    +0.169 HD
ATOM     21  C   UNL     1      -0.018  -4.234   4.871  0.00  0.00    +0.261 A 
ATOM     22  O   UNL     1      -0.177  -4.849   3.831  0.00  0.00    -0.267 OA
BRANCH  18  23
ATOM     23  C   UNL     1      -0.011  -4.943   8.507  0.00  0.00    +0.001 A 
ATOM     24  C   UNL     1       0.152  -4.282   9.730  0.00  0.00    +0.029 A 
ATOM     25  C   UNL     1       0.059  -5.008  10.900  0.00  0.00    +0.111 A 
ATOM     26  N   UNL     1      -0.179  -6.305  10.876  0.00  0.00    -0.263 NA
ATOM     27  C   UNL     1      -0.339  -6.966   9.746  0.00  0.00    +0.111 A 
ATOM     28  C   UNL     1      -0.268  -6.319   8.529  0.00  0.00    +0.029 A 
ENDBRANCH  18  23
ENDBRANCH  12  15
TORSDOF 2
