REMARK  Name = ZINC54382437
REMARK  7 active torsions:
REMARK  status: ('A' for Active; 'I' for Inactive)
REMARK    1  A    between atoms: C_1  and  C_2
REMARK    2  A    between atoms: N_7  and  C_9
REMARK    3  A    between atoms: C_9  and  C_10
REMARK    4  A    between atoms: C_9  and  C_11
REMARK    5  A    between atoms: C_9  and  C_12
REMARK    6  A    between atoms: C_12  and  N_13
REMARK    7  A    between atoms: N_16  and  C_17
REMARK                            x       y       z     vdW  Elec       q    Type
REMARK                         _______ _______ _______ _____ _____    ______ ____
ROOT
ATOM      1  N   UNL     1       2.187  -4.374   1.147  0.00  0.00    -0.300 N 
ATOM      2  C   UNL     1       2.265  -5.668   0.779  0.00  0.00    +0.304 C 
ATOM      3  O   UNL     1       1.626  -6.511   1.379  0.00  0.00    -0.253 OA
ATOM      4  N   UNL     1       3.050  -6.029  -0.256  0.00  0.00    -0.269 N 
ATOM      5  H   UNL     1       2.696  -3.702   0.668  0.00  0.00    +0.150 HD
ATOM      6  H   UNL     1       3.505  -5.350  -0.778  0.00  0.00    +0.156 HD
ENDROOT
BRANCH   4   7
ATOM      7  C   UNL     1       3.208  -7.383  -0.577  0.00  0.00    +0.038 A 
ATOM      8  C   UNL     1       3.505  -7.757  -1.881  0.00  0.00    +0.027 A 
ATOM      9  C   UNL     1       3.662  -9.093  -2.202  0.00  0.00    +0.051 A 
ATOM     10  C   UNL     1       3.523 -10.058  -1.219  0.00  0.00    +0.162 A 
ATOM     11  C   UNL     1       3.227  -9.687   0.085  0.00  0.00    +0.164 A 
ATOM     12  C   UNL     1       3.073  -8.351   0.410  0.00  0.00    +0.072 A 
ATOM     13  O   UNL     1       3.094 -10.648   1.045  0.00  0.00    -0.488 OA
ATOM     14  C   UNL     1       1.957 -11.505   0.919  0.00  0.00    +0.232 C 
ATOM     15  C   UNL     1       2.251 -12.655  -0.032  0.00  0.00    +0.082 C 
ATOM     16  C   UNL     1       2.497 -12.180  -1.455  0.00  0.00    +0.232 C 
ATOM     17  O   UNL     1       3.678 -11.379  -1.526  0.00  0.00    -0.488 OA
ENDBRANCH   4   7
BRANCH   1  18
ATOM     18  C   UNL     1       1.334  -3.983   2.272  0.00  0.00    +0.093 C 
BRANCH  18  19
ATOM     19  C   UNL     1       1.331  -2.459   2.404  0.00  0.00    -0.055 C 
ATOM     20  C   UNL     1       0.485  -2.053   3.613  0.00  0.00    -0.008 C 
ATOM     21  C   UNL     1       0.741  -1.838   1.137  0.00  0.00    -0.008 C 
BRANCH  19  27
ATOM     22  C   UNL     1       4.163   1.520   2.743  0.00  0.00    +0.005 C 
ATOM     23  C   UNL     1       4.157  -0.009   2.719  0.00  0.00    -0.031 C 
ATOM     24  C   UNL     1       4.782  -0.544   4.010  0.00  0.00    -0.001 C 
ATOM     25  C   UNL     1       4.701  -2.073   4.011  0.00  0.00    -0.018 C 
ATOM     26  C   UNL     1       3.240  -2.501   3.853  0.00  0.00    -0.078 C 
ATOM     27  N   UNL     1       2.708  -1.981   2.588  0.00  0.00    +0.384 N 
ATOM     28  C   UNL     1       2.717  -0.513   2.608  0.00  0.00    -0.075 C 
ATOM     29  H   UNL     1       3.280  -2.308   1.824  0.00  0.00    -0.081 HD
ENDBRANCH  19  27
ENDBRANCH  18  19
ENDBRANCH   1  18
TORSDOF 4
