REMARK  Name = ZINC48839974
REMARK  5 active torsions:
REMARK  status: ('A' for Active; 'I' for Inactive)
REMARK    1  A    between atoms: C_1  and  S_2
REMARK    2  A    between atoms: S_2  and  N_5
REMARK    3  A    between atoms: N_5  and  C_6
REMARK    4  A    between atoms: N_14  and  C_16
REMARK    5  A    between atoms: C_16  and  C_17
REMARK                            x       y       z     vdW  Elec       q    Type
REMARK                         _______ _______ _______ _____ _____    ______ ____
ROOT
ATOM      1  C   UNL     1       2.110   0.013  -1.599  0.00  0.00    +0.051 A 
ATOM      2  C   UNL     1       3.014  -0.005  -0.547  0.00  0.00    +0.025 A 
ATOM      3  C   UNL     1       4.313   0.416  -0.753  0.00  0.00    +0.002 A 
ATOM      4  C   UNL     1       4.706   0.853  -2.003  0.00  0.00    +0.005 A 
ATOM      5  C   UNL     1       3.805   0.874  -3.058  0.00  0.00    -0.028 A 
ATOM      6  C   UNL     1       2.510   0.447  -2.860  0.00  0.00    -0.019 A 
ATOM      7  C   UNL     1       1.501   0.435  -3.979  0.00  0.00    +0.053 C 
ATOM      8  C   UNL     1       1.990   1.311  -5.133  0.00  0.00    +0.090 C 
ATOM      9  N   UNL     1       3.371   0.922  -5.462  0.00  0.00    -0.285 NA
ATOM     10  C   UNL     1       4.283   1.367  -4.399  0.00  0.00    +0.121 C 
ENDROOT
BRANCH   1  11
ATOM     11  N   UNL     1       0.795  -0.411  -1.394  0.00  0.00    -0.221 N 
ATOM     12  H   UNL     1       0.323  -0.884  -2.097  0.00  0.00    +0.173 HD
BRANCH  11  14
ATOM     13  C   UNL     1       0.040   1.701   0.201  0.00  0.00    +0.218 C 
ATOM     14  S   UNL     1       0.042  -0.106   0.049  0.00  0.00    +0.040 S 
ATOM     15  O   UNL     1       0.895  -0.679   1.031  0.00  0.00    -0.155 OA
ATOM     16  O   UNL     1      -1.285  -0.585  -0.126  0.00  0.00    -0.155 OA
ENDBRANCH  11  14
ENDBRANCH   1  11
BRANCH   9  17
ATOM     17  C   UNL     1       3.776   1.470  -6.764  0.00  0.00    +0.204 C 
BRANCH  17  18
ATOM     18  C   UNL     1       5.058   0.872  -7.170  0.00  0.00    +0.078 C 
ATOM     19  N   UNL     1       6.048   0.410  -7.483  0.00  0.00    -0.195 NA
ENDBRANCH  17  18
ENDBRANCH   9  17
TORSDOF 4
