REMARK  Name = ZINC38509237
REMARK  10 active torsions:
REMARK  status: ('A' for Active; 'I' for Inactive)
REMARK    1  A    between atoms: C_1  and  C_2
REMARK    2  A    between atoms: C_2  and  O_3
REMARK    3  A    between atoms: O_3  and  C_4
REMARK    4  A    between atoms: N_6  and  C_29
REMARK    5  A    between atoms: C_8  and  C_9
REMARK    6  A    between atoms: C_15  and  S_17
REMARK    7  A    between atoms: S_17  and  C_18
REMARK    8  A    between atoms: C_18  and  C_19
REMARK    9  A    between atoms: N_21  and  C_22
REMARK   10  A    between atoms: C_25  and  C_28
REMARK                            x       y       z     vdW  Elec       q    Type
REMARK                         _______ _______ _______ _____ _____    ______ ____
ROOT
ATOM      1  C   UNL     1       2.009  -1.889  -3.605  0.00  0.00    +0.273 C 
ATOM      2  O   UNL     1       2.054  -0.679  -3.714  0.00  0.00    -0.268 OA
ATOM      3  N   UNL     1       2.563  -2.673  -4.551  0.00  0.00    -0.258 N 
ATOM      4  C   UNL     1       3.187  -2.096  -5.654  0.00  0.00    +0.189 A 
ATOM      5  N   UNL     1       3.345  -0.822  -5.952  0.00  0.00    -0.125 NA
ATOM      6  N   UNL     1       4.002  -0.465  -7.107  0.00  0.00    -0.133 NA
ATOM      7  C   UNL     1       4.470  -1.401  -7.912  0.00  0.00    +0.160 A 
ATOM      8  S   UNL     1       3.993  -2.885  -7.039  0.00  0.00    -0.024 S 
ATOM      9  H   UNL     1       2.527  -3.638  -4.464  0.00  0.00    +0.157 HD
ENDROOT
BRANCH   1  14
ATOM     10  C   UNL     1       0.724  -1.811  -1.366  0.00  0.00    +0.171 A 
ATOM     11  C   UNL     1       0.256  -2.778  -0.536  0.00  0.00    +0.161 A 
ATOM     12  N   UNL     1       0.593  -3.976  -1.089  0.00  0.00    -0.236 N 
ATOM     13  N   UNL     1       1.229  -3.792  -2.189  0.00  0.00    -0.158 NA
ATOM     14  C   UNL     1       1.348  -2.500  -2.437  0.00  0.00    +0.189 A 
BRANCH  12  15
ATOM     15  C   UNL     1       0.290  -5.228  -0.537  0.00  0.00    +0.066 A 
ATOM     16  C   UNL     1      -0.409  -5.309   0.660  0.00  0.00    +0.030 A 
ATOM     17  C   UNL     1      -0.707  -6.543   1.203  0.00  0.00    +0.040 A 
ATOM     18  C   UNL     1      -0.307  -7.700   0.554  0.00  0.00    +0.124 A 
ATOM     19  C   UNL     1       0.390  -7.621  -0.640  0.00  0.00    +0.040 A 
ATOM     20  C   UNL     1       0.684  -6.389  -1.189  0.00  0.00    +0.030 A 
ATOM     21  F   UNL     1      -0.598  -8.907   1.087  0.00  0.00    -0.205 F 
ENDBRANCH  12  15
BRANCH  10  22
ATOM     22  O   UNL     1       0.613  -0.464  -1.206  0.00  0.00    -0.488 OA
BRANCH  22  24
ATOM     23  C   UNL     1      -0.090   1.527  -0.030  0.00  0.00    +0.048 C 
ATOM     24  C   UNL     1      -0.065  -0.003  -0.036  0.00  0.00    +0.226 C 
ENDBRANCH  22  24
ENDBRANCH  10  22
ENDBRANCH   1  14
BRANCH   7  25
ATOM     25  S   UNL     1       5.337  -1.233  -9.436  0.00  0.00    -0.088 S 
BRANCH  25  26
ATOM     26  C   UNL     1       5.458   0.561  -9.676  0.00  0.00    +0.172 C 
BRANCH  26  27
ATOM     27  C   UNL     1       6.189   0.848 -10.963  0.00  0.00    +0.227 C 
ATOM     28  O   UNL     1       6.589  -0.068 -11.650  0.00  0.00    -0.275 OA
ATOM     29  N   UNL     1       6.398   2.122 -11.349  0.00  0.00    -0.285 N 
ATOM     30  H   UNL     1       6.020   2.853 -10.835  0.00  0.00    +0.155 HD
BRANCH  29  31
ATOM     31  C   UNL     1       7.160   2.390 -12.492  0.00  0.00    +0.033 A 
ATOM     32  C   UNL     1       7.982   3.509 -12.533  0.00  0.00    +0.023 A 
ATOM     33  C   UNL     1       8.732   3.771 -13.663  0.00  0.00    +0.005 A 
ATOM     34  C   UNL     1       8.666   2.921 -14.752  0.00  0.00    -0.050 A 
ATOM     35  C   UNL     1       7.848   1.807 -14.713  0.00  0.00    +0.005 A 
ATOM     36  C   UNL     1       7.099   1.536 -13.585  0.00  0.00    +0.023 A 
ATOM     37  C   UNL     1       9.486   3.210 -15.982  0.00  0.00    +0.044 C 
ENDBRANCH  29  31
ENDBRANCH  26  27
ENDBRANCH  25  26
ENDBRANCH   7  25
TORSDOF 8
