REMARK  Name = ZINC19631814
REMARK  9 active torsions:
REMARK  status: ('A' for Active; 'I' for Inactive)
REMARK    1  A    between atoms: C_1  and  C_2
REMARK    2  A    between atoms: C_2  and  O_3
REMARK    3  A    between atoms: O_3  and  C_4
REMARK    4  A    between atoms: C_4  and  C_6
REMARK    5  A    between atoms: C_10  and  N_11
REMARK    6  A    between atoms: C_12  and  C_14
REMARK    7  A    between atoms: C_20  and  O_25
REMARK    8  A    between atoms: O_25  and  C_26
REMARK    9  A    between atoms: C_28  and  C_32
REMARK                            x       y       z     vdW  Elec       q    Type
REMARK                         _______ _______ _______ _____ _____    ______ ____
ROOT
ATOM      1  N   UNL     1       4.771   5.510  -0.017  0.00  0.00    -0.275 N 
ATOM      2  C   UNL     1       3.567   6.114  -0.002  0.00  0.00    +0.254 C 
ATOM      3  O   UNL     1       3.495   7.329   0.004  0.00  0.00    -0.270 OA
ATOM      4  H   UNL     1       4.836   4.412  -0.023  0.00  0.00    +0.156 HD
ENDROOT
BRANCH   2   5
ATOM      5  C   UNL     1       2.338   5.305   0.006  0.00  0.00    +0.097 A 
ATOM      6  C   UNL     1       2.404   3.925  -0.001  0.00  0.00    +0.030 A 
ATOM      7  C   UNL     1       1.149   3.171   0.008  0.00  0.00    +0.022 A 
ATOM      8  C   UNL     1       1.164   1.770   0.001  0.00  0.00    +0.012 A 
ATOM      9  C   UNL     1      -0.013   1.076   0.008  0.00  0.00    +0.004 A 
ATOM     10  C   UNL     1      -1.226   1.748   0.017  0.00  0.00    +0.049 A 
ATOM     11  C   UNL     1      -1.265   3.131   0.030  0.00  0.00    +0.163 A 
ATOM     12  C   UNL     1      -0.075   3.859   0.023  0.00  0.00    +0.179 A 
ATOM     13  O   UNL     1      -0.110   5.210   0.030  0.00  0.00    -0.435 OA
ATOM     14  C   UNL     1       1.014   5.951   0.022  0.00  0.00    +0.205 A 
ATOM     15  N   UNL     1       0.931   7.254   0.029  0.00  0.00    -0.369 N 
ATOM     16  H   UNL     1      -0.055   7.742   0.041  0.00  0.00    +0.159 HD
ATOM     17  H   UNL     1       1.846   7.864   0.023  0.00  0.00    +0.159 HD
BRANCH  11  18
ATOM     18  O   UNL     1      -2.460   3.779   0.045  0.00  0.00    -0.491 OA
ATOM     19  C   UNL     1      -3.637   2.968   0.052  0.00  0.00    +0.277 C 
ENDBRANCH  11  18
ENDBRANCH   2   5
BRANCH   1  24
ATOM     20  C   UNL     1       7.247   5.838  -0.035  0.00  0.00    +0.091 A 
ATOM     21  C   UNL     1       8.287   6.853  -0.045  0.00  0.00    -0.021 A 
ATOM     22  C   UNL     1       7.846   8.129  -0.034  0.00  0.00    -0.004 A 
ATOM     23  S   UNL     1       6.080   7.998  -0.018  0.00  0.00    -0.077 S 
ATOM     24  C   UNL     1       5.928   6.272  -0.025  0.00  0.00    +0.087 A 
ATOM     25  C   UNL     1       8.679   9.373  -0.036  0.00  0.00    +0.046 C 
ATOM     26  C   UNL     1      10.122   8.990   0.326  0.00  0.00    -0.009 C 
ATOM     27  C   UNL     1      10.539   7.784  -0.521  0.00  0.00    +0.008 C 
ATOM     28  C   UNL     1       9.778   6.538  -0.062  0.00  0.00    +0.037 C 
ATOM     29  C   UNL     1      11.053  10.169   0.039  0.00  0.00    +0.008 C 
BRANCH  20  30
ATOM     30  C   UNL     1       7.578   4.411  -0.038  0.00  0.00    +0.342 C 
ATOM     31  O   UNL     1       7.708   3.820  -1.093  0.00  0.00    -0.245 OA
BRANCH  30  32
ATOM     32  O   UNL     1       7.738   3.754   1.129  0.00  0.00    -0.461 OA
BRANCH  32  34
ATOM     33  C   UNL     1       8.206   1.770   2.462  0.00  0.00    +0.048 C 
ATOM     34  C   UNL     1       8.065   2.341   1.050  0.00  0.00    +0.229 C 
ENDBRANCH  32  34
ENDBRANCH  30  32
ENDBRANCH  20  30
ENDBRANCH   1  24
TORSDOF 6
