REMARK  Name = ZINC16856666
REMARK  14 active torsions:
REMARK  status: ('A' for Active; 'I' for Inactive)
REMARK    1  A    between atoms: C_1  and  C_2
REMARK    2  A    between atoms: N_5  and  C_7
REMARK    3  A    between atoms: C_10  and  C_13
REMARK    4  A    between atoms: C_13  and  O_15
REMARK    5  A    between atoms: O_15  and  C_16
REMARK    6  A    between atoms: C_16  and  C_17
REMARK    7  A    between atoms: C_17  and  C_18
REMARK    8  A    between atoms: C_18  and  C_19
REMARK    9  A    between atoms: C_18  and  C_20
REMARK   10  A    between atoms: C_22  and  N_36
REMARK   11  A    between atoms: C_23  and  C_34
REMARK   12  A    between atoms: C_24  and  C_26
REMARK   13  A    between atoms: C_29  and  O_32
REMARK   14  A    between atoms: O_32  and  C_33
REMARK                            x       y       z     vdW  Elec       q    Type
REMARK                         _______ _______ _______ _____ _____    ______ ____
ROOT
ATOM      1  C   UNL     1       2.962   3.020   3.050  0.00  0.00    +0.068 C 
ATOM      2  C   UNL     1       2.757   4.427   2.551  0.00  0.00    +0.068 A 
ATOM      3  C   UNL     1       2.539   4.798   1.231  0.00  0.00    +0.050 A 
ATOM      4  C   UNL     1       2.402   6.158   1.190  0.00  0.00    +0.230 A 
ATOM      5  N   UNL     1       2.530   6.617   2.454  0.00  0.00    -0.200 N 
ATOM      6  N   UNL     1       2.753   5.511   3.290  0.00  0.00    -0.168 NA
ATOM      7  O   UNL     1       2.180   6.838   0.038  0.00  0.00    -0.423 OA
ATOM      8  C   UNL     1       2.367   6.176  -1.123  0.00  0.00    +0.200 C 
ATOM      9  C   UNL     1       2.501   4.835  -1.211  0.00  0.00    +0.098 C 
ATOM     10  C   UNL     1       2.452   3.935  -0.001  0.00  0.00    +0.101 C 
ENDROOT
BRANCH   5  11
ATOM     11  C   UNL     1       2.455   7.954   2.858  0.00  0.00    +0.069 A 
ATOM     12  C   UNL     1       2.950   8.956   2.031  0.00  0.00    +0.029 A 
ATOM     13  C   UNL     1       2.873  10.274   2.422  0.00  0.00    +0.017 A 
ATOM     14  C   UNL     1       2.307  10.603   3.657  0.00  0.00    +0.059 A 
ATOM     15  C   UNL     1       1.816   9.591   4.488  0.00  0.00    +0.017 A 
ATOM     16  C   UNL     1       1.891   8.276   4.087  0.00  0.00    +0.029 A 
BRANCH  14  17
ATOM     17  C   UNL     1       2.227  12.013   4.082  0.00  0.00    +0.339 C 
ATOM     18  O   UNL     1       1.734  12.297   5.156  0.00  0.00    -0.245 OA
BRANCH  17  19
ATOM     19  O   UNL     1       2.701  12.986   3.280  0.00  0.00    -0.461 OA
BRANCH  19  20
ATOM     20  C   UNL     1       2.590  14.351   3.763  0.00  0.00    +0.233 C 
BRANCH  20  21
ATOM     21  C   UNL     1       3.176  15.309   2.724  0.00  0.00    +0.044 C 
BRANCH  21  22
ATOM     22  C   UNL     1       3.059  16.747   3.233  0.00  0.00    -0.014 C 
ATOM     23  C   UNL     1       3.929  16.920   4.480  0.00  0.00    +0.007 C 
ATOM     24  C   UNL     1       3.530  17.713   2.145  0.00  0.00    +0.007 C 
ENDBRANCH  21  22
ENDBRANCH  20  21
ENDBRANCH  19  20
ENDBRANCH  17  19
ENDBRANCH  14  17
ENDBRANCH   5  11
BRANCH  10  25
ATOM     25  C   UNL     1       1.156   3.166   0.007  0.00  0.00    -0.034 A 
ATOM     26  C   UNL     1       1.174   1.783   0.000  0.00  0.00    +0.008 A 
ATOM     27  C   UNL     1      -0.013   1.076   0.008  0.00  0.00    +0.046 A 
ATOM     28  C   UNL     1      -1.223   1.754   0.017  0.00  0.00    +0.120 A 
ATOM     29  C   UNL     1      -1.238   3.141   0.029  0.00  0.00    +0.046 A 
ATOM     30  C   UNL     1      -0.049   3.844   0.022  0.00  0.00    +0.008 A 
BRANCH  28  31
ATOM     31  O   UNL     1      -2.392   1.060   0.020  0.00  0.00    -0.495 OA
ATOM     32  C   UNL     1      -3.599   1.824   0.029  0.00  0.00    +0.277 C 
ENDBRANCH  28  31
ENDBRANCH  10  25
BRANCH   8  33
ATOM     33  N   UNL     1       2.422   6.909  -2.282  0.00  0.00    -0.328 N 
ATOM     34  H   UNL     1       2.328   7.874  -2.251  0.00  0.00    +0.145 HD
ATOM     35  H   UNL     1       2.555   6.462  -3.133  0.00  0.00    +0.145 HD
ENDBRANCH   8  33
BRANCH   9  36
ATOM     36  C   UNL     1       2.700   4.245  -2.501  0.00  0.00    +0.101 C 
ATOM     37  N   UNL     1       2.857   3.777  -3.524  0.00  0.00    -0.191 NA
ENDBRANCH   9  36
TORSDOF 10
