REMARK  Name = ZINC55759426
REMARK  4 active torsions:
REMARK  status: ('A' for Active; 'I' for Inactive)
REMARK    1  A    between atoms: C_1  and  C_2
REMARK    2  A    between atoms: C_14  and  C_16
REMARK    3  A    between atoms: C_18  and  C_22
REMARK    4  A    between atoms: C_25  and  C_27
REMARK                            x       y       z     vdW  Elec       q    Type
REMARK                         _______ _______ _______ _____ _____    ______ ____
ROOT
ATOM      1  C   UNL     1       1.499   2.201   0.207  0.00  0.00    +0.066 C 
ATOM      2  C   UNL     1       1.673   0.719  -0.007  0.00  0.00    +0.047 A 
ATOM      3  C   UNL     1       2.155   0.225  -1.172  0.00  0.00    +0.071 A 
ATOM      4  S   UNL     1       2.129  -1.527  -0.827  0.00  0.00    -0.060 S 
ATOM      5  C   UNL     1       1.516  -1.447   0.739  0.00  0.00    +0.161 A 
ATOM      6  N   UNL     1       1.366  -0.155   0.936  0.00  0.00    -0.230 NA
ATOM      7  N   UNL     1       1.242  -2.489   1.611  0.00  0.00    -0.308 N 
ATOM      8  C   UNL     1       1.508  -3.864   1.162  0.00  0.00    +0.108 C 
ATOM      9  C   UNL     1       2.177  -4.717   2.243  0.00  0.00    +0.038 C 
ATOM     10  C   UNL     1       3.233  -3.911   2.971  0.00  0.00    +0.109 C 
ATOM     11  N   UNL     1       2.579  -3.186   4.060  0.00  0.00    -0.295 N 
ATOM     12  C   UNL     1       1.889  -1.952   3.906  0.00  0.00    +0.127 C 
ATOM     13  C   UNL     1       0.712  -2.168   2.925  0.00  0.00    +0.126 C 
ATOM     14  C   UNL     1       2.632  -3.725   5.294  0.00  0.00    +0.263 C 
ATOM     15  O   UNL     1       2.204  -3.104   6.249  0.00  0.00    -0.268 OA
ENDROOT
BRANCH  14  16
ATOM     16  C   UNL     1       3.208  -5.061   5.487  0.00  0.00    +0.103 A 
ATOM     17  C   UNL     1       3.630  -5.591   6.674  0.00  0.00    +0.042 A 
ATOM     18  C   UNL     1       4.108  -6.887   6.405  0.00  0.00    +0.019 A 
ATOM     19  C   UNL     1       3.963  -7.107   5.065  0.00  0.00    +0.093 A 
ATOM     20  N   UNL     1       3.411  -6.003   4.505  0.00  0.00    -0.356 N 
ATOM     21  H   UNL     1       3.197  -5.895   3.565  0.00  0.00    +0.165 HD
BRANCH  18  22
ATOM     22  C   UNL     1       4.668  -7.840   7.397  0.00  0.00    +0.080 A 
ATOM     23  C   UNL     1       5.113  -9.081   7.030  0.00  0.00    +0.075 A 
ATOM     24  S   UNL     1       5.646  -9.720   8.610  0.00  0.00    -0.080 S 
ATOM     25  C   UNL     1       5.258  -8.378   9.549  0.00  0.00    +0.076 A 
ATOM     26  N   UNL     1       4.769  -7.531   8.681  0.00  0.00    -0.244 NA
ATOM     27  C   UNL     1       5.438  -8.195  11.034  0.00  0.00    +0.073 C 
ENDBRANCH  18  22
ENDBRANCH  14  16
TORSDOF 2
