REMARK  Name = ZINC12479069
REMARK  8 active torsions:
REMARK  status: ('A' for Active; 'I' for Inactive)
REMARK    1  A    between atoms: C_1  and  C_2
REMARK    2  A    between atoms: N_13  and  C_28
REMARK    3  A    between atoms: C_14  and  S_16
REMARK    4  A    between atoms: S_16  and  C_17
REMARK    5  A    between atoms: C_17  and  C_18
REMARK    6  A    between atoms: N_24  and  C_25
REMARK    7  A    between atoms: N_24  and  C_26
REMARK    8  A    between atoms: C_28  and  C_29
REMARK                            x       y       z     vdW  Elec       q    Type
REMARK                         _______ _______ _______ _____ _____    ______ ____
ROOT
ATOM      1  C   UNL     1      -0.019   1.526   0.010  0.00  0.00    +0.008 C 
ATOM      2  C   UNL     1       0.002  -0.004   0.002  0.00  0.00    -0.009 C 
ATOM      3  C   UNL     1       0.742  -0.515   1.242  0.00  0.00    +0.008 C 
ATOM      4  C   UNL     1       0.984  -2.019   1.119  0.00  0.00    +0.037 C 
ATOM      5  C   UNL     1      -0.342  -2.711   0.816  0.00  0.00    -0.023 A 
ATOM      6  C   UNL     1      -1.391  -2.006   0.334  0.00  0.00    -0.004 A 
ATOM      7  S   UNL     1      -2.697  -3.191   0.134  0.00  0.00    -0.073 S 
ATOM      8  C   UNL     1      -1.838  -4.627   0.694  0.00  0.00    +0.117 A 
ATOM      9  C   UNL     1      -0.553  -4.135   1.022  0.00  0.00    +0.076 A 
ATOM     10  C   UNL     1       0.402  -5.080   1.519  0.00  0.00    +0.264 A 
ATOM     11  O   UNL     1       1.535  -4.752   1.829  0.00  0.00    -0.267 OA
ATOM     12  N   UNL     1      -0.030  -6.358   1.624  0.00  0.00    -0.280 N 
ATOM     13  C   UNL     1      -1.290  -6.745   1.284  0.00  0.00    +0.173 A 
ATOM     14  N   UNL     1      -2.200  -5.897   0.821  0.00  0.00    -0.216 NA
ATOM     15  C   UNL     1      -1.437  -0.539   0.035  0.00  0.00    +0.046 C 
ENDROOT
BRANCH  13  16
ATOM     16  S   UNL     1      -1.732  -8.441   1.467  0.00  0.00    -0.080 S 
BRANCH  16  17
ATOM     17  C   UNL     1      -3.448  -8.383   0.892  0.00  0.00    +0.153 C 
BRANCH  17  18
ATOM     18  C   UNL     1      -4.048  -9.763   0.962  0.00  0.00    +0.146 A 
ATOM     19  N   UNL     1      -3.963 -10.572  -0.080  0.00  0.00    -0.199 NA
ATOM     20  C   UNL     1      -4.489 -11.794  -0.020  0.00  0.00    +0.217 A 
ATOM     21  N   UNL     1      -5.107 -12.196   1.085  0.00  0.00    -0.181 NA
ATOM     22  C   UNL     1      -5.194 -11.378   2.128  0.00  0.00    +0.222 A 
ATOM     23  N   UNL     1      -4.662 -10.160   2.062  0.00  0.00    -0.198 NA
ATOM     24  N   UNL     1      -5.835 -11.791   3.278  0.00  0.00    -0.306 N 
ATOM     25  C   UNL     1      -5.930 -10.889   4.428  0.00  0.00    +0.132 C 
ATOM     26  C   UNL     1      -6.420 -13.133   3.349  0.00  0.00    +0.132 C 
ATOM     27  N   UNL     1      -4.395 -12.640  -1.107  0.00  0.00    -0.327 N 
ATOM     28  H   UNL     1      -4.781 -13.528  -1.064  0.00  0.00    +0.145 HD
ATOM     29  H   UNL     1      -3.943 -12.345  -1.913  0.00  0.00    +0.145 HD
ENDBRANCH  17  18
ENDBRANCH  16  17
ENDBRANCH  13  16
BRANCH  12  30
ATOM     30  C   UNL     1       0.901  -7.372   2.126  0.00  0.00    +0.201 C 
BRANCH  30  31
ATOM     31  C   UNL     1       1.657  -7.976   0.971  0.00  0.00    +0.125 A 
ATOM     32  C   UNL     1       2.822  -7.526   0.471  0.00  0.00    +0.046 A 
ATOM     33  C   UNL     1       3.170  -8.386  -0.596  0.00  0.00    +0.041 A 
ATOM     34  C   UNL     1       2.192  -9.305  -0.690  0.00  0.00    +0.195 A 
ATOM     35  O   UNL     1       1.279  -9.052   0.262  0.00  0.00    -0.466 OA
ENDBRANCH  30  31
ENDBRANCH  12  30
TORSDOF 5
