REMARK  Name = ZINC38556373
REMARK  7 active torsions:
REMARK  status: ('A' for Active; 'I' for Inactive)
REMARK    1  A    between atoms: C_6  and  C_7
REMARK    2  A    between atoms: C_9  and  C_13
REMARK    3  A    between atoms: C_17  and  S_21
REMARK    4  A    between atoms: N_19  and  N_20
REMARK    5  A    between atoms: S_21  and  C_22
REMARK    6  A    between atoms: C_22  and  C_23
REMARK    7  A    between atoms: C_23  and  C_25
REMARK                            x       y       z     vdW  Elec       q    Type
REMARK                         _______ _______ _______ _____ _____    ______ ____
ROOT
ATOM      1  C   UNL     1      -3.379  -3.007  -1.175  0.00  0.00    +0.244 C 
ATOM      2  N   UNL     1      -2.670  -4.282  -1.345  0.00  0.00    -0.167 NA
ATOM      3  N   UNL     1      -3.397  -5.239  -1.060  0.00  0.00    -0.159 NA
ATOM      4  C   UNL     1      -4.731  -4.787  -0.644  0.00  0.00    +0.272 C 
ATOM      5  N   UNL     1      -4.816  -3.376  -1.108  0.00  0.00    -0.183 NA
ENDROOT
BRANCH   1   8
ATOM      6  C   UNL     1      -1.445  -0.636   0.187  0.00  0.00    +0.091 C 
ATOM      7  C   UNL     1      -1.465  -1.978   0.076  0.00  0.00    +0.035 C 
ATOM      8  C   UNL     1      -2.943  -2.324   0.122  0.00  0.00    +0.195 C 
ATOM      9  N   UNL     1      -3.591  -1.010   0.265  0.00  0.00    -0.176 NA
ATOM     10  N   UNL     1      -2.709  -0.149   0.298  0.00  0.00    -0.154 NA
BRANCH   6  16
ATOM     11  C   UNL     1      -0.306   1.579   0.320  0.00  0.00    +0.011 A 
ATOM     12  C   UNL     1       0.840   2.346   0.326  0.00  0.00    +0.020 A 
ATOM     13  C   UNL     1       2.080   1.743   0.207  0.00  0.00    +0.041 A 
ATOM     14  C   UNL     1       2.177   0.367   0.080  0.00  0.00    +0.020 A 
ATOM     15  C   UNL     1       1.036  -0.409   0.073  0.00  0.00    +0.011 A 
ATOM     16  C   UNL     1      -0.215   0.194   0.194  0.00  0.00    +0.002 A 
ATOM     17 CL   UNL     1       3.520   2.714   0.215  0.00  0.00    -0.084 Cl
ENDBRANCH   6  16
ENDBRANCH   1   8
BRANCH   5  18
ATOM     18  N   UNL     1      -5.437  -3.294  -2.420  0.00  0.00    -0.263 NA
ATOM     19  H   UNL     1      -6.432  -3.448  -2.359  0.00  0.00    +0.137 HD
ATOM     20  H   UNL     1      -5.234  -2.410  -2.861  0.00  0.00    +0.137 HD
ENDBRANCH   5  18
BRANCH   4  21
ATOM     21  S   UNL     1      -6.014  -5.793  -1.439  0.00  0.00    -0.108 S 
BRANCH  21  22
ATOM     22  C   UNL     1      -5.970  -7.361  -0.528  0.00  0.00    +0.152 C 
BRANCH  22  23
ATOM     23  C   UNL     1      -6.915  -8.343  -1.171  0.00  0.00    +0.173 C 
ATOM     24  O   UNL     1      -7.555  -8.018  -2.148  0.00  0.00    -0.291 OA
BRANCH  23  25
ATOM     25  C   UNL     1      -7.060  -9.697  -0.615  0.00  0.00    +0.018 A 
ATOM     26  C   UNL     1      -6.327 -10.075   0.516  0.00  0.00    +0.012 A 
ATOM     27  C   UNL     1      -6.468 -11.345   1.032  0.00  0.00    +0.016 A 
ATOM     28  C   UNL     1      -7.334 -12.246   0.435  0.00  0.00    +0.018 A 
ATOM     29  C   UNL     1      -8.063 -11.880  -0.685  0.00  0.00    +0.016 A 
ATOM     30  C   UNL     1      -7.936 -10.611  -1.209  0.00  0.00    +0.012 A 
ATOM     31 BR   UNL     1      -7.520 -13.987   1.150  0.00  0.00    -0.050 Br
ENDBRANCH  23  25
ENDBRANCH  22  23
ENDBRANCH  21  22
ENDBRANCH   4  21
TORSDOF 7
