REMARK  Name = ZINC08590742
REMARK  9 active torsions:
REMARK  status: ('A' for Active; 'I' for Inactive)
REMARK    1  A    between atoms: C_1  and  C_2
REMARK    2  A    between atoms: C_2  and  S_3
REMARK    3  A    between atoms: S_3  and  N_6
REMARK    4  A    between atoms: N_10  and  C_23
REMARK    5  A    between atoms: C_11  and  C_13
REMARK    6  A    between atoms: C_11  and  C_14
REMARK    7  A    between atoms: N_16  and  C_17
REMARK    8  A    between atoms: C_25  and  C_30
REMARK    9  A    between atoms: C_27  and  C_29
REMARK                            x       y       z     vdW  Elec       q    Type
REMARK                         _______ _______ _______ _____ _____    ______ ____
ROOT
ATOM      1  N   UNL     1       0.501  -2.248  -1.958  0.00  0.00    -0.170 NA
ATOM      2  C   UNL     1       1.710  -2.773  -1.306  0.00  0.00    +0.205 C 
ATOM      3  C   UNL     1       2.033  -4.121  -1.892  0.00  0.00    +0.236 C 
ATOM      4  O   UNL     1       3.117  -4.610  -1.655  0.00  0.00    -0.274 OA
ATOM      5  N   UNL     1       1.181  -4.803  -2.659  0.00  0.00    -0.255 N 
ATOM      6  C   UNL     1      -0.115  -4.305  -3.101  0.00  0.00    +0.129 C 
ATOM      7  C   UNL     1      -0.612  -3.187  -2.173  0.00  0.00    +0.145 C 
ATOM      8  C   UNL     1       0.014  -3.761  -4.525  0.00  0.00    +0.043 C 
ENDROOT
BRANCH   5   9
ATOM      9  C   UNL     1       1.559  -6.086  -3.069  0.00  0.00    +0.038 A 
ATOM     10  C   UNL     1       1.826  -6.338  -4.408  0.00  0.00    +0.027 A 
ATOM     11  C   UNL     1       2.198  -7.606  -4.809  0.00  0.00    -0.048 A 
ATOM     12  C   UNL     1       2.306  -8.624  -3.879  0.00  0.00    +0.006 A 
ATOM     13  C   UNL     1       2.040  -8.376  -2.545  0.00  0.00    -0.048 A 
ATOM     14  C   UNL     1       1.673  -7.109  -2.136  0.00  0.00    +0.027 A 
ATOM     15  C   UNL     1       2.157  -9.488  -1.535  0.00  0.00    +0.044 C 
ATOM     16  C   UNL     1       2.488  -7.881  -6.263  0.00  0.00    +0.044 C 
ENDBRANCH   5   9
BRANCH   6  17
ATOM     17  C   UNL     1      -1.110  -5.436  -3.090  0.00  0.00    +0.238 C 
ATOM     18  O   UNL     1      -1.920  -5.539  -3.987  0.00  0.00    -0.273 OA
ATOM     19  N   UNL     1      -1.101  -6.332  -2.083  0.00  0.00    -0.311 N 
ATOM     20  H   UNL     1      -0.411  -6.290  -1.403  0.00  0.00    +0.149 HD
BRANCH  19  21
ATOM     21  C   UNL     1      -2.135  -7.368  -2.016  0.00  0.00    +0.073 C 
ATOM     22  C   UNL     1      -3.399  -6.787  -1.381  0.00  0.00    +0.022 C 
ATOM     23  C   UNL     1      -4.479  -7.869  -1.310  0.00  0.00    +0.002 C 
ATOM     24  C   UNL     1      -3.973  -9.039  -0.463  0.00  0.00    +0.000 C 
ATOM     25  C   UNL     1      -2.709  -9.620  -1.099  0.00  0.00    +0.002 C 
ATOM     26  C   UNL     1      -1.630  -8.538  -1.169  0.00  0.00    +0.022 C 
ENDBRANCH  19  21
ENDBRANCH   6  17
BRANCH   1  27
ATOM     27  S   UNL     1       0.393  -0.662  -2.424  0.00  0.00    +0.032 S 
ATOM     28  O   UNL     1      -0.547  -0.661  -3.490  0.00  0.00    -0.158 OA
ATOM     29  O   UNL     1       1.737  -0.257  -2.643  0.00  0.00    -0.158 OA
BRANCH  27  31
ATOM     30  C   UNL     1      -0.438   1.690  -1.304  0.00  0.00    +0.029 C 
ATOM     31  C   UNL     1      -0.293   0.201  -0.984  0.00  0.00    +0.182 C 
ENDBRANCH  27  31
ENDBRANCH   1  27
TORSDOF 5
