REMARK  Name = ZINC16954719
REMARK  10 active torsions:
REMARK  status: ('A' for Active; 'I' for Inactive)
REMARK    1  A    between atoms: C_1  and  C_2
REMARK    2  A    between atoms: C_2  and  C_31
REMARK    3  A    between atoms: N_7  and  C_8
REMARK    4  A    between atoms: C_11  and  O_15
REMARK    5  A    between atoms: O_15  and  C_16
REMARK    6  A    between atoms: C_16  and  C_17
REMARK    7  A    between atoms: C_20  and  S_23
REMARK    8  A    between atoms: S_23  and  N_26
REMARK    9  A    between atoms: N_26  and  C_27
REMARK   10  A    between atoms: N_26  and  C_28
REMARK                            x       y       z     vdW  Elec       q    Type
REMARK                         _______ _______ _______ _____ _____    ______ ____
ROOT
ATOM      1  C   UNL     1      -2.352  -0.224  -0.857  0.00  0.00    +0.040 A 
ATOM      2  C   UNL     1      -1.164  -0.735  -1.364  0.00  0.00    +0.027 A 
ATOM      3  C   UNL     1      -1.169  -1.923  -2.068  0.00  0.00    +0.049 A 
ATOM      4  C   UNL     1      -2.360  -2.605  -2.269  0.00  0.00    +0.139 A 
ATOM      5  C   UNL     1      -3.547  -2.095  -1.764  0.00  0.00    +0.084 A 
ATOM      6  C   UNL     1      -3.543  -0.909  -1.054  0.00  0.00    +0.047 A 
ATOM      7 CL   UNL     1      -5.037  -2.950  -2.016  0.00  0.00    -0.080 Cl
ENDROOT
BRANCH   1  14
ATOM      8  C   UNL     1      -3.109   2.063  -2.208  0.00  0.00    +0.056 C 
ATOM      9  C   UNL     1      -2.969   2.196  -0.690  0.00  0.00    +0.109 C 
ATOM     10  N   UNL     1      -2.107   3.340  -0.371  0.00  0.00    -0.337 N 
ATOM     11  C   UNL     1      -1.330   3.308   0.679  0.00  0.00    +0.191 C 
ATOM     12  N   UNL     1      -1.258   2.231   1.479  0.00  0.00    -0.187 NA
ATOM     13  C   UNL     1      -1.760   1.070   1.100  0.00  0.00    +0.189 C 
ATOM     14  N   UNL     1      -2.346   0.981  -0.141  0.00  0.00    -0.250 N 
ATOM     15  N   UNL     1      -1.703  -0.019   1.925  0.00  0.00    -0.331 N 
ATOM     16  N   UNL     1      -0.566   4.418   0.980  0.00  0.00    -0.329 N 
ATOM     17  C   UNL     1      -4.348   2.398  -0.060  0.00  0.00    +0.056 C 
ATOM     18  H   UNL     1      -2.124  -0.980   1.597  0.00  0.00    +0.145 HD
ATOM     19  H   UNL     1      -1.235   0.067   2.917  0.00  0.00    +0.145 HD
ATOM     20  H   UNL     1       0.094   4.410   1.860  0.00  0.00    +0.145 HD
ATOM     21  H   UNL     1      -0.616   5.310   0.338  0.00  0.00    +0.145 HD
ATOM     22  H   UNL     1      -2.117   4.226  -1.021  0.00  0.00    +0.164 HD
ENDBRANCH   1  14
BRANCH   4  23
ATOM     23  O   UNL     1      -2.364  -3.775  -2.963  0.00  0.00    -0.486 OA
BRANCH  23  24
ATOM     24  C   UNL     1      -1.106  -4.242  -3.455  0.00  0.00    +0.264 C 
BRANCH  24  25
ATOM     25  C   UNL     1      -1.306  -5.541  -4.192  0.00  0.00    -0.010 A 
ATOM     26  C   UNL     1      -1.217  -6.742  -3.513  0.00  0.00    +0.009 A 
ATOM     27  C   UNL     1      -1.405  -7.934  -4.188  0.00  0.00    +0.029 A 
ATOM     28  C   UNL     1      -1.671  -7.925  -5.544  0.00  0.00    +0.105 A 
ATOM     29  C   UNL     1      -1.755  -6.725  -6.224  0.00  0.00    +0.029 A 
ATOM     30  C   UNL     1      -1.571  -5.533  -5.548  0.00  0.00    +0.009 A 
BRANCH  28  31
ATOM     31  S   UNL     1      -1.906  -9.444  -6.405  0.00  0.00    +0.060 S 
ATOM     32  O   UNL     1      -2.318 -10.400  -5.438  0.00  0.00    -0.153 OA
ATOM     33  O   UNL     1      -2.682  -9.143  -7.556  0.00  0.00    -0.153 OA
BRANCH  31  34
ATOM     34  N   UNL     1      -0.421  -9.932  -6.950  0.00  0.00    -0.183 NA
ATOM     35  C   UNL     1       0.422 -10.789  -6.112  0.00  0.00    +0.131 C 
ATOM     36  C   UNL     1       0.051  -9.508  -8.271  0.00  0.00    +0.131 C 
ENDBRANCH  31  34
ENDBRANCH  28  31
ENDBRANCH  24  25
ENDBRANCH  23  24
ENDBRANCH   4  23
TORSDOF 6
