REMARK  Name = ZINC01076391
REMARK  6 active torsions:
REMARK  status: ('A' for Active; 'I' for Inactive)
REMARK    1  A    between atoms: C_1  and  C_2
REMARK    2  A    between atoms: C_8  and  C_12
REMARK    3  A    between atoms: C_8  and  O_27
REMARK    4  A    between atoms: C_12  and  C_13
REMARK    5  A    between atoms: C_13  and  C_15
REMARK    6  A    between atoms: C_18  and  C_21
REMARK                            x       y       z     vdW  Elec       q    Type
REMARK                         _______ _______ _______ _____ _____    ______ ____
ROOT
ATOM      1  C   UNL     1      -1.198  -3.003   3.151  0.00  0.00    +0.129 C 
ENDROOT
BRANCH   1   9
ATOM      2  C   UNL     1      -0.018   1.503   0.010  0.00  0.00    +0.044 C 
ATOM      3  C   UNL     1       0.002  -0.004   0.002  0.00  0.00    -0.050 A 
ATOM      4  C   UNL     1       0.006  -0.691  -1.198  0.00  0.00    +0.005 A 
ATOM      5  C   UNL     1       0.025  -2.070  -1.213  0.00  0.00    +0.024 A 
ATOM      6  C   UNL     1       0.040  -2.782  -0.015  0.00  0.00    +0.040 A 
ATOM      7  C   UNL     1       0.037  -2.081   1.184  0.00  0.00    +0.015 A 
ATOM      8  C   UNL     1       0.023  -0.704   1.196  0.00  0.00    +0.012 A 
ATOM      9  C   UNL     1       0.056  -3.118   2.283  0.00  0.00    +0.175 C 
ATOM     10  C   UNL     1       0.071  -4.439   1.543  0.00  0.00    +0.254 C 
ATOM     11  O   UNL     1       0.088  -5.544   2.042  0.00  0.00    -0.272 OA
ATOM     12  N   UNL     1       0.060  -4.156   0.229  0.00  0.00    -0.282 N 
ATOM     13  H   UNL     1       0.066  -4.829  -0.469  0.00  0.00    +0.155 HD
BRANCH   9  14
ATOM     14  O   UNL     1       1.233  -2.979   3.082  0.00  0.00    -0.374 OA
ATOM     15  H   UNL     1       1.297  -3.620   3.803  0.00  0.00    +0.211 HD
ENDBRANCH   9  14
ENDBRANCH   1   9
BRANCH   1  16
ATOM     16  C   UNL     1      -1.155  -4.046   4.238  0.00  0.00    +0.167 C 
ATOM     17  O   UNL     1      -0.213  -4.806   4.311  0.00  0.00    -0.292 OA
BRANCH  16  18
ATOM     18  C   UNL     1      -2.255  -4.143   5.210  0.00  0.00    +0.018 A 
ATOM     19  C   UNL     1      -3.346  -3.271   5.125  0.00  0.00    +0.011 A 
ATOM     20  C   UNL     1      -4.374  -3.368   6.040  0.00  0.00    +0.004 A 
ATOM     21  C   UNL     1      -4.327  -4.324   7.040  0.00  0.00    -0.044 A 
ATOM     22  C   UNL     1      -3.251  -5.189   7.130  0.00  0.00    +0.004 A 
ATOM     23  C   UNL     1      -2.219  -5.109   6.220  0.00  0.00    +0.011 A 
BRANCH  21  24
ATOM     24  C   UNL     1      -5.455  -4.423   8.035  0.00  0.00    +0.019 C 
ATOM     25  C   UNL     1      -4.910  -4.193   9.446  0.00  0.00    +0.008 C 
ATOM     26  C   UNL     1      -6.055  -4.293  10.457  0.00  0.00    +0.001 C 
ATOM     27  C   UNL     1      -6.688  -5.684  10.374  0.00  0.00    +0.000 C 
ATOM     28  C   UNL     1      -7.232  -5.913   8.963  0.00  0.00    +0.001 C 
ATOM     29  C   UNL     1      -6.088  -5.813   7.952  0.00  0.00    +0.008 C 
ENDBRANCH  21  24
ENDBRANCH  16  18
ENDBRANCH   1  16
TORSDOF 5
