REMARK  Name = ZINC08683463
REMARK  7 active torsions:
REMARK  status: ('A' for Active; 'I' for Inactive)
REMARK    1  A    between atoms: C_1  and  C_2
REMARK    2  A    between atoms: C_5  and  S_8
REMARK    3  A    between atoms: S_8  and  N_11
REMARK    4  A    between atoms: N_11  and  C_12
REMARK    5  A    between atoms: C_17  and  C_18
REMARK    6  A    between atoms: C_18  and  N_19
REMARK    7  A    between atoms: N_19  and  C_20
REMARK                            x       y       z     vdW  Elec       q    Type
REMARK                         _______ _______ _______ _____ _____    ______ ____
ROOT
ATOM      1  C   UNL     1      -3.800  -1.656   1.142  0.00  0.00    +0.053 A 
ATOM      2  C   UNL     1      -4.806  -2.608   1.026  0.00  0.00    +0.025 A 
ATOM      3  C   UNL     1      -5.291  -2.949  -0.221  0.00  0.00    +0.002 A 
ATOM      4  C   UNL     1      -4.782  -2.339  -1.353  0.00  0.00    +0.000 A 
ATOM      5  C   UNL     1      -3.785  -1.387  -1.241  0.00  0.00    +0.007 A 
ATOM      6  C   UNL     1      -3.295  -1.042   0.003  0.00  0.00    -0.008 A 
ENDROOT
BRANCH   1   7
ATOM      7  N   UNL     1      -3.303  -1.313   2.401  0.00  0.00    -0.216 N 
ATOM      8  H   UNL     1      -3.031  -0.400   2.583  0.00  0.00    +0.174 HD
BRANCH   7   9
ATOM      9  S   UNL     1      -3.178  -2.466   3.584  0.00  0.00    +0.072 S 
ATOM     10  O   UNL     1      -2.523  -1.850   4.684  0.00  0.00    -0.150 OA
ATOM     11  O   UNL     1      -4.460  -3.069   3.700  0.00  0.00    -0.150 OA
BRANCH   9  16
ATOM     12  C   UNL     1       0.555  -6.736   1.527  0.00  0.00    +0.044 C 
ATOM     13  C   UNL     1      -0.378  -5.670   2.041  0.00  0.00    -0.050 A 
ATOM     14  C   UNL     1       0.126  -4.594   2.749  0.00  0.00    +0.005 A 
ATOM     15  C   UNL     1      -0.730  -3.616   3.220  0.00  0.00    +0.029 A 
ATOM     16  C   UNL     1      -2.088  -3.713   2.983  0.00  0.00    +0.109 A 
ATOM     17  C   UNL     1      -2.592  -4.791   2.280  0.00  0.00    +0.029 A 
ATOM     18  C   UNL     1      -1.736  -5.767   1.804  0.00  0.00    +0.005 A 
ENDBRANCH   9  16
ENDBRANCH   7   9
ENDBRANCH   1   7
BRANCH   6  19
ATOM     19  C   UNL     1      -2.208  -0.005   0.125  0.00  0.00    +0.140 C 
BRANCH  19  20
ATOM     20  N   UNL     1      -0.915  -0.672   0.302  0.00  0.00    -0.325 N 
ATOM     21  H   UNL     1      -0.868  -1.640   0.325  0.00  0.00    +0.148 HD
BRANCH  20  22
ATOM     22  C   UNL     1       0.244   0.085   0.438  0.00  0.00    +0.111 A 
ATOM     23  C   UNL     1       1.469  -0.555   0.606  0.00  0.00    +0.057 A 
ATOM     24  C   UNL     1       2.615   0.209   0.740  0.00  0.00    +0.035 A 
ATOM     25  C   UNL     1       2.496   1.593   0.700  0.00  0.00    +0.035 A 
ATOM     26  C   UNL     1       1.249   2.161   0.531  0.00  0.00    +0.099 A 
ATOM     27 BR   UNL     1       4.027   2.689   0.877  0.00  0.00    -0.049 Br
ATOM     28 BR   UNL     1       1.567  -2.443   0.652  0.00  0.00    -0.047 Br
ATOM     29  N   UNL     1       0.102   1.440   0.396  0.00  0.00    -0.348 N 
ATOM     30  H   UNL     1      -0.812   1.890   0.271  0.00  0.00    +0.167 HD
ENDBRANCH  20  22
ENDBRANCH  19  20
ENDBRANCH   6  19
TORSDOF 6
