REMARK  Name = ZINC03768038
REMARK  14 active torsions:
REMARK  status: ('A' for Active; 'I' for Inactive)
REMARK    1  A    between atoms: C_1  and  C_2
REMARK    2  A    between atoms: C_4  and  C_42
REMARK    3  A    between atoms: C_6  and  S_8
REMARK    4  A    between atoms: S_8  and  C_9
REMARK    5  A    between atoms: C_9  and  C_10
REMARK    6  A    between atoms: N_12  and  C_13
REMARK    7  A    between atoms: N_12  and  C_25
REMARK    8  A    between atoms: C_13  and  C_14
REMARK    9  A    between atoms: C_16  and  C_19
REMARK   10  A    between atoms: C_25  and  C_27
REMARK   11  A    between atoms: C_25  and  C_30
REMARK   12  A    between atoms: C_27  and  C_28
REMARK   13  A    between atoms: C_27  and  C_29
REMARK   14  A    between atoms: N_32  and  C_33
REMARK                            x       y       z     vdW  Elec       q    Type
REMARK                         _______ _______ _______ _____ _____    ______ ____
ROOT
ATOM      1  C   UNL     1       6.293  -3.590   5.095  0.00  0.00    +0.227 C 
ATOM      2  O   UNL     1       5.309  -2.985   5.464  0.00  0.00    -0.275 OA
ATOM      3  N   UNL     1       7.055  -3.095   4.100  0.00  0.00    -0.283 N 
ENDROOT
BRANCH   1   4
ATOM      4  C   UNL     1       6.665  -4.896   5.750  0.00  0.00    +0.173 C 
BRANCH   4   5
ATOM      5  S   UNL     1       5.381  -5.361   6.938  0.00  0.00    -0.077 S 
BRANCH   5  11
ATOM      6  C   UNL     1       9.058  -8.922   6.926  0.00  0.00    +0.066 C 
ATOM      7  C   UNL     1       7.742  -8.440   7.481  0.00  0.00    +0.043 A 
ATOM      8  C   UNL     1       7.074  -9.179   8.444  0.00  0.00    +0.046 A 
ATOM      9  C   UNL     1       5.865  -8.701   8.927  0.00  0.00    +0.043 A 
ATOM     10  N   UNL     1       5.389  -7.560   8.458  0.00  0.00    -0.227 NA
ATOM     11  C   UNL     1       6.053  -6.877   7.536  0.00  0.00    +0.189 A 
ATOM     12  N   UNL     1       7.208  -7.309   7.049  0.00  0.00    -0.227 NA
ATOM     13  C   UNL     1       5.105  -9.471   9.975  0.00  0.00    +0.066 C 
ENDBRANCH   5  11
ENDBRANCH   4   5
ENDBRANCH   1   4
BRANCH   3  14
ATOM     14  C   UNL     1       8.184  -3.873   3.585  0.00  0.00    +0.171 C 
BRANCH  14  15
ATOM     15  C   UNL     1       9.427  -3.533   4.366  0.00  0.00    +0.096 A 
ATOM     16  N   UNL     1       9.892  -4.095   5.455  0.00  0.00    -0.242 NA
ATOM     17  C   UNL     1      11.010  -3.676   6.026  0.00  0.00    +0.078 A 
ATOM     18  C   UNL     1      11.674  -2.630   5.444  0.00  0.00    +0.075 A 
ATOM     19  S   UNL     1      10.610  -2.302   4.046  0.00  0.00    -0.078 S 
BRANCH  17  20
ATOM     20  C   UNL     1      11.527  -4.319   7.259  0.00  0.00    +0.001 A 
ATOM     21  C   UNL     1      10.891  -5.443   7.781  0.00  0.00    +0.010 A 
ATOM     22  C   UNL     1      11.379  -6.040   8.926  0.00  0.00    +0.001 A 
ATOM     23  C   UNL     1      12.492  -5.518   9.560  0.00  0.00    +0.000 A 
ATOM     24  C   UNL     1      13.124  -4.399   9.050  0.00  0.00    +0.001 A 
ATOM     25  C   UNL     1      12.648  -3.797   7.903  0.00  0.00    +0.010 A 
ENDBRANCH  17  20
ENDBRANCH  14  15
ENDBRANCH   3  14
BRANCH   3  26
ATOM     26  C   UNL     1       6.755  -1.777   3.534  0.00  0.00    +0.165 C 
BRANCH  26  27
ATOM     27  C   UNL     1       5.436  -1.832   2.807  0.00  0.00    +0.238 C 
ATOM     28  O   UNL     1       4.608  -2.663   3.115  0.00  0.00    -0.273 OA
ATOM     29  N   UNL     1       5.177  -0.958   1.815  0.00  0.00    -0.284 N 
ATOM     30  H   UNL     1       5.866  -0.343   1.517  0.00  0.00    +0.155 HD
BRANCH  29  31
ATOM     31  C   UNL     1       3.912  -0.936   1.213  0.00  0.00    +0.037 A 
ATOM     32  C   UNL     1       3.775  -0.509  -0.102  0.00  0.00    +0.027 A 
ATOM     33  C   UNL     1       2.529  -0.488  -0.697  0.00  0.00    +0.051 A 
ATOM     34  C   UNL     1       1.411  -0.890   0.016  0.00  0.00    +0.166 A 
ATOM     35  C   UNL     1       1.544  -1.319   1.335  0.00  0.00    +0.168 A 
ATOM     36  C   UNL     1       2.795  -1.341   1.930  0.00  0.00    +0.072 A 
ATOM     37  O   UNL     1       0.310  -1.657   1.811  0.00  0.00    -0.453 OA
ATOM     38  C   UNL     1      -0.520  -1.821   0.646  0.00  0.00    +0.466 C 
ATOM     39  O   UNL     1       0.092  -0.961  -0.333  0.00  0.00    -0.453 OA
ENDBRANCH  29  31
ENDBRANCH  26  27
BRANCH  26  40
ATOM     40  C   UNL     1       6.674  -0.745   4.660  0.00  0.00    +0.012 C 
ATOM     41  C   UNL     1       8.043  -0.611   5.329  0.00  0.00    +0.009 C 
ATOM     42  C   UNL     1       6.255   0.609   4.082  0.00  0.00    +0.009 C 
ENDBRANCH  26  40
ENDBRANCH   3  26
TORSDOF 10
