REMARK  Name = ZINC66679883
REMARK  5 active torsions:
REMARK  status: ('A' for Active; 'I' for Inactive)
REMARK    1  A    between atoms: C_1  and  C_2
REMARK    2  A    between atoms: C_2  and  C_4
REMARK    3  A    between atoms: C_2  and  N_14
REMARK    4  A    between atoms: N_17  and  C_18
REMARK    5  A    between atoms: C_22  and  C_24
REMARK                            x       y       z     vdW  Elec       q    Type
REMARK                         _______ _______ _______ _____ _____    ______ ____
ROOT
ATOM      1  N   UNL     1       0.737  -0.334   1.233  0.00  0.00    -0.293 N 
ATOM      2  C   UNL     1       2.080  -0.444   1.235  0.00  0.00    +0.304 C 
ATOM      3  O   UNL     1       2.728  -0.000   0.306  0.00  0.00    -0.252 OA
ATOM      4  N   UNL     1       2.706  -1.046   2.266  0.00  0.00    -0.269 N 
ATOM      5  H   UNL     1       0.220  -0.688   1.974  0.00  0.00    +0.151 HD
ATOM      6  H   UNL     1       2.198  -1.331   3.041  0.00  0.00    +0.156 HD
ENDROOT
BRANCH   4   7
ATOM      7  C   UNL     1       4.088  -1.260   2.217  0.00  0.00    +0.035 A 
ATOM      8  C   UNL     1       4.840  -1.214   3.384  0.00  0.00    +0.023 A 
ATOM      9  C   UNL     1       6.205  -1.424   3.340  0.00  0.00    +0.002 A 
ATOM     10  C   UNL     1       6.829  -1.682   2.135  0.00  0.00    +0.010 A 
ATOM     11  C   UNL     1       6.082  -1.732   0.960  0.00  0.00    +0.004 A 
ATOM     12  C   UNL     1       4.706  -1.525   1.004  0.00  0.00    +0.033 A 
BRANCH  11  13
ATOM     13  C   UNL     1       6.752  -2.009  -0.336  0.00  0.00    +0.091 A 
ATOM     14  C   UNL     1       8.148  -2.228  -0.374  0.00  0.00    +0.035 A 
ATOM     15  C   UNL     1       8.729  -2.480  -1.582  0.00  0.00    +0.073 A 
ATOM     16  C   UNL     1       7.896  -2.506  -2.723  0.00  0.00    +0.265 A 
ATOM     17  O   UNL     1       8.371  -2.728  -3.825  0.00  0.00    -0.266 OA
ATOM     18  N   UNL     1       6.576  -2.285  -2.586  0.00  0.00    -0.243 N 
ATOM     19  H   UNL     1       6.009  -2.305  -3.373  0.00  0.00    +0.192 HD
ATOM     20  N   UNL     1       6.044  -2.054  -1.440  0.00  0.00    -0.171 NA
ENDBRANCH  11  13
ENDBRANCH   4   7
BRANCH   1  22
ATOM     21  C   UNL     1       0.034   1.833   0.344  0.00  0.00    +0.033 C 
ATOM     22  C   UNL     1       0.057   0.321   0.113  0.00  0.00    +0.102 C 
BRANCH  22  23
ATOM     23  C   UNL     1      -1.356  -0.193   0.013  0.00  0.00    -0.027 A 
ATOM     24  C   UNL     1      -2.098  -0.409   1.160  0.00  0.00    +0.006 A 
ATOM     25  C   UNL     1      -3.390  -0.883   1.060  0.00  0.00    +0.004 A 
ATOM     26  C   UNL     1      -3.953  -1.143  -0.183  0.00  0.00    -0.044 A 
ATOM     27  C   UNL     1      -3.216  -0.923  -1.324  0.00  0.00    -0.044 A 
ATOM     28  C   UNL     1      -1.916  -0.444  -1.222  0.00  0.00    +0.009 A 
ATOM     29  C   UNL     1      -3.767  -1.167  -2.705  0.00  0.00    +0.035 C 
ATOM     30  C   UNL     1      -4.999  -2.067  -2.640  0.00  0.00    +0.005 C 
ATOM     31  C   UNL     1      -5.971  -1.483  -1.607  0.00  0.00    +0.005 C 
ATOM     32  C   UNL     1      -5.365  -1.666  -0.218  0.00  0.00    +0.035 C 
ENDBRANCH  22  23
ENDBRANCH   1  22
TORSDOF 4
