REMARK  Name = ZINC01131331
REMARK  11 active torsions:
REMARK  status: ('A' for Active; 'I' for Inactive)
REMARK    1  A    between atoms: C_1  and  C_2
REMARK    2  A    between atoms: C_2  and  C_3
REMARK    3  A    between atoms: C_3  and  C_4
REMARK    4  A    between atoms: C_11  and  N_34
REMARK    5  A    between atoms: C_12  and  C_32
REMARK    6  A    between atoms: C_13  and  C_15
REMARK    7  A    between atoms: C_18  and  O_23
REMARK    8  A    between atoms: C_19  and  O_21
REMARK    9  A    between atoms: O_21  and  C_22
REMARK   10  A    between atoms: O_23  and  C_24
REMARK   11  A    between atoms: C_24  and  C_25
REMARK                            x       y       z     vdW  Elec       q    Type
REMARK                         _______ _______ _______ _____ _____    ______ ____
ROOT
ATOM      1  C   UNL     1      -0.694   1.558   3.746  0.00  0.00    +0.071 A 
ATOM      2  C   UNL     1      -1.712   0.895   4.418  0.00  0.00    +0.049 A 
ATOM      3  C   UNL     1      -2.083   1.661   5.488  0.00  0.00    +0.222 A 
ATOM      4  N   UNL     1      -1.318   2.764   5.481  0.00  0.00    -0.246 N 
ATOM      5  H   UNL     1      -1.360   3.514   6.142  0.00  0.00    +0.192 HD
ATOM      6  N   UNL     1      -0.450   2.679   4.382  0.00  0.00    -0.176 NA
ATOM      7  O   UNL     1      -3.062   1.290   6.350  0.00  0.00    -0.423 OA
ATOM      8  C   UNL     1      -3.864   0.270   5.983  0.00  0.00    +0.200 C 
ATOM      9  C   UNL     1      -3.598  -0.563   4.952  0.00  0.00    +0.098 C 
ATOM     10  C   UNL     1      -2.357  -0.430   4.104  0.00  0.00    +0.101 C 
ENDROOT
BRANCH  10  11
ATOM     11  C   UNL     1      -1.400  -1.550   4.423  0.00  0.00    -0.031 A 
ATOM     12  C   UNL     1      -0.925  -1.705   5.712  0.00  0.00    +0.008 A 
ATOM     13  C   UNL     1      -0.052  -2.734   6.011  0.00  0.00    +0.050 A 
ATOM     14  C   UNL     1       0.358  -3.606   5.015  0.00  0.00    +0.162 A 
ATOM     15  C   UNL     1      -0.116  -3.446   3.716  0.00  0.00    +0.162 A 
ATOM     16  C   UNL     1      -0.996  -2.416   3.425  0.00  0.00    +0.054 A 
BRANCH  15  17
ATOM     17  O   UNL     1       0.283  -4.300   2.736  0.00  0.00    -0.491 OA
ATOM     18  C   UNL     1      -0.244  -4.076   1.426  0.00  0.00    +0.277 C 
ENDBRANCH  15  17
BRANCH  14  19
ATOM     19  O   UNL     1       1.222  -4.615   5.306  0.00  0.00    -0.484 OA
BRANCH  19  20
ATOM     20  C   UNL     1       1.667  -4.718   6.660  0.00  0.00    +0.267 C 
BRANCH  20  21
ATOM     21  C   UNL     1       2.611  -5.885   6.791  0.00  0.00    +0.025 A 
ATOM     22  C   UNL     1       2.910  -6.661   5.686  0.00  0.00    +0.010 A 
ATOM     23  C   UNL     1       3.780  -7.728   5.805  0.00  0.00    +0.001 A 
ATOM     24  C   UNL     1       4.344  -8.028   7.031  0.00  0.00    +0.003 A 
ATOM     25  C   UNL     1       4.043  -7.258   8.138  0.00  0.00    +0.039 A 
ATOM     26  C   UNL     1       3.175  -6.185   8.019  0.00  0.00    +0.130 A 
ATOM     27  F   UNL     1       2.880  -5.431   9.101  0.00  0.00    -0.205 F 
ENDBRANCH  20  21
ENDBRANCH  19  20
ENDBRANCH  14  19
ENDBRANCH  10  11
BRANCH   8  28
ATOM     28  N   UNL     1      -5.017   0.064   6.698  0.00  0.00    -0.328 N 
ATOM     29  H   UNL     1      -5.614  -0.662   6.458  0.00  0.00    +0.145 HD
ATOM     30  H   UNL     1      -5.235   0.645   7.444  0.00  0.00    +0.145 HD
ENDBRANCH   8  28
BRANCH   9  31
ATOM     31  C   UNL     1      -4.528  -1.609   4.653  0.00  0.00    +0.101 C 
ATOM     32  N   UNL     1      -5.266  -2.440   4.416  0.00  0.00    -0.191 NA
ENDBRANCH   9  31
BRANCH   1  33
ATOM     33  C   UNL     1       0.011   1.072   2.506  0.00  0.00    +0.057 C 
BRANCH  33  35
ATOM     34  C   UNL     1      -0.013   1.086   0.008  0.00  0.00    +0.004 C 
ATOM     35  C   UNL     1      -0.729   1.579   1.267  0.00  0.00    +0.003 C 
ENDBRANCH  33  35
ENDBRANCH   1  33
TORSDOF 9
