REMARK  Name = ZINC38742858
REMARK  10 active torsions:
REMARK  status: ('A' for Active; 'I' for Inactive)
REMARK    1  A    between atoms: C_1  and  C_2
REMARK    2  A    between atoms: C_2  and  C_3
REMARK    3  A    between atoms: C_2  and  C_4
REMARK    4  A    between atoms: C_6  and  C_10
REMARK    5  A    between atoms: C_18  and  C_20
REMARK    6  A    between atoms: C_20  and  C_21
REMARK    7  A    between atoms: C_21  and  C_22
REMARK    8  A    between atoms: C_22  and  C_23
REMARK    9  A    between atoms: C_23  and  C_24
REMARK   10  A    between atoms: C_24  and  N_25
REMARK                            x       y       z     vdW  Elec       q    Type
REMARK                         _______ _______ _______ _____ _____    ______ ____
ROOT
ATOM      1  C   UNL     1      -3.607  -3.034  -0.220  0.00  0.00    +0.206 C 
ATOM      2  N   UNL     1      -3.340  -3.804  -1.458  0.00  0.00    -0.231 NA
ATOM      3  N   UNL     1      -4.631  -4.371  -1.886  0.00  0.00    -0.224 NA
ATOM      4  C   UNL     1      -5.613  -3.453  -1.276  0.00  0.00    +0.240 C 
ATOM      5  N   UNL     1      -5.033  -3.275   0.098  0.00  0.00    -0.206 N 
ATOM      6  N   UNL     1      -5.942  -3.473   1.114  0.00  0.00    -0.178 NA
ATOM      7  C   UNL     1      -7.096  -4.027   0.935  0.00  0.00    +0.095 C 
ATOM      8  S   UNL     1      -7.176  -4.311  -0.862  0.00  0.00    -0.068 S 
ATOM      9  H   UNL     1      -2.951  -3.212  -2.176  0.00  0.00    +0.143 HD
ATOM     10  H   UNL     1      -4.748  -5.310  -1.535  0.00  0.00    +0.144 HD
ENDROOT
BRANCH   1  13
ATOM     11  C   UNL     1      -1.412  -0.526   0.013  0.00  0.00    +0.064 C 
ATOM     12  C   UNL     1      -1.940  -1.303  -0.935  0.00  0.00    +0.030 C 
ATOM     13  C   UNL     1      -3.362  -1.543  -0.460  0.00  0.00    +0.190 C 
ATOM     14  N   UNL     1      -3.420  -0.792   0.805  0.00  0.00    -0.177 NA
ATOM     15  N   UNL     1      -2.315  -0.275   0.986  0.00  0.00    -0.158 NA
BRANCH  11  17
ATOM     16  C   UNL     1      -0.019   1.526   0.010  0.00  0.00    +0.014 C 
ATOM     17  C   UNL     1       0.002  -0.004   0.002  0.00  0.00    +0.033 C 
ATOM     18  C   UNL     1       0.742  -0.511   1.242  0.00  0.00    +0.014 C 
ENDBRANCH  11  17
ENDBRANCH   1  13
BRANCH   7  19
ATOM     19  C   UNL     1      -8.140  -4.353   1.972  0.00  0.00    +0.064 C 
BRANCH  19  20
ATOM     20  C   UNL     1      -7.641  -3.921   3.352  0.00  0.00    +0.007 C 
BRANCH  20  21
ATOM     21  C   UNL     1      -8.701  -4.252   4.404  0.00  0.00    +0.002 C 
BRANCH  21  22
ATOM     22  C   UNL     1      -8.201  -3.820   5.785  0.00  0.00    +0.019 C 
BRANCH  22  23
ATOM     23  C   UNL     1      -9.261  -4.151   6.837  0.00  0.00    +0.117 C 
BRANCH  23  24
ATOM     24  N   UNL     1      -8.783  -3.737   8.159  0.00  0.00    -0.234 N 
ATOM     25  C   UNL     1      -8.072  -4.520   8.990  0.00  0.00    +0.254 C 
ATOM     26  O   UNL     1      -7.730  -5.664   8.768  0.00  0.00    -0.270 OA
ATOM     27  C   UNL     1      -7.776  -3.755  10.220  0.00  0.00    +0.049 A 
ATOM     28  C   UNL     1      -7.096  -4.035  11.394  0.00  0.00    +0.014 A 
ATOM     29  C   UNL     1      -6.998  -3.066  12.380  0.00  0.00    +0.001 A 
ATOM     30  C   UNL     1      -7.574  -1.822  12.199  0.00  0.00    +0.001 A 
ATOM     31  C   UNL     1      -8.258  -1.528  11.030  0.00  0.00    +0.014 A 
ATOM     32  C   UNL     1      -8.364  -2.487  10.036  0.00  0.00    +0.049 A 
ATOM     33  C   UNL     1      -8.993  -2.523   8.698  0.00  0.00    +0.254 C 
ATOM     34  O   UNL     1      -9.599  -1.610   8.175  0.00  0.00    -0.270 OA
ENDBRANCH  23  24
ENDBRANCH  22  23
ENDBRANCH  21  22
ENDBRANCH  20  21
ENDBRANCH  19  20
ENDBRANCH   7  19
TORSDOF 8
