REMARK  Name = ZINC05507544
REMARK  10 active torsions:
REMARK  status: ('A' for Active; 'I' for Inactive)
REMARK    1  A    between atoms: C_1  and  C_2
REMARK    2  A    between atoms: C_2  and  O_3
REMARK    3  A    between atoms: O_3  and  C_4
REMARK    4  A    between atoms: C_4  and  C_6
REMARK    5  A    between atoms: C_7  and  C_22
REMARK    6  A    between atoms: C_10  and  N_11
REMARK    7  A    between atoms: C_12  and  C_14
REMARK    8  A    between atoms: C_14  and  O_15
REMARK    9  A    between atoms: O_15  and  C_16
REMARK   10  A    between atoms: C_16  and  C_18
REMARK                            x       y       z     vdW  Elec       q    Type
REMARK                         _______ _______ _______ _____ _____    ______ ____
ROOT
ATOM      1  C   UNL     1      -1.291   1.926   0.019  0.00  0.00    +0.098 A 
ATOM      2  C   UNL     1      -1.949   2.291   1.260  0.00  0.00    +0.040 A 
ATOM      3  C   UNL     1      -3.132   2.954   1.151  0.00  0.00    +0.059 A 
ATOM      4  S   UNL     1      -3.365   3.089  -0.609  0.00  0.00    -0.080 S 
ATOM      5  C   UNL     1      -1.929   2.293  -1.159  0.00  0.00    +0.087 A 
ENDROOT
BRANCH   2   6
ATOM      6  C   UNL     1      -1.365   1.960   2.575  0.00  0.00    +0.136 A 
ATOM      7  C   UNL     1      -1.182   2.825   3.608  0.00  0.00    +0.050 A 
ATOM      8  C   UNL     1      -0.602   2.085   4.659  0.00  0.00    +0.042 A 
ATOM      9  C   UNL     1      -0.453   0.822   4.217  0.00  0.00    +0.196 A 
ATOM     10  O   UNL     1      -0.915   0.749   2.957  0.00  0.00    -0.463 OA
ENDBRANCH   2   6
BRANCH   5  11
ATOM     11  N   UNL     1      -1.516   2.073  -2.463  0.00  0.00    -0.277 N 
ATOM     12  C   UNL     1      -2.272   2.505  -3.491  0.00  0.00    +0.255 C 
ATOM     13  O   UNL     1      -3.314   3.087  -3.275  0.00  0.00    -0.272 OA
ATOM     14  H   UNL     1      -0.682   1.608  -2.636  0.00  0.00    +0.155 HD
BRANCH  12  15
ATOM     15  C   UNL     1      -1.823   2.265  -4.910  0.00  0.00    +0.328 C 
BRANCH  15  16
ATOM     16  O   UNL     1      -2.802   2.821  -5.827  0.00  0.00    -0.455 OA
BRANCH  16  17
ATOM     17  C   UNL     1      -2.549   2.690  -7.139  0.00  0.00    +0.311 C 
ATOM     18  O   UNL     1      -1.544   2.131  -7.509  0.00  0.00    -0.251 OA
BRANCH  17  19
ATOM     19  C   UNL     1      -3.520   3.242  -8.152  0.00  0.00    +0.098 C 
ATOM     20  C   UNL     1      -4.707   2.308  -8.440  0.00  0.00    +0.015 C 
ATOM     21  C   UNL     1      -4.563   2.708  -9.917  0.00  0.00    +0.002 C 
ATOM     22  C   UNL     1      -3.087   3.012  -9.609  0.00  0.00    +0.015 C 
ENDBRANCH  17  19
ENDBRANCH  16  17
ENDBRANCH  15  16
ENDBRANCH  12  15
ENDBRANCH   5  11
BRANCH   1  23
ATOM     23  C   UNL     1      -0.014   1.212   0.009  0.00  0.00    +0.342 C 
ATOM     24  O   UNL     1       0.002  -0.004   0.002  0.00  0.00    -0.245 OA
BRANCH  23  25
ATOM     25  O   UNL     1       1.145   1.903   0.001  0.00  0.00    -0.461 OA
BRANCH  25  27
ATOM     26  C   UNL     1       3.554   2.089  -0.021  0.00  0.00    +0.048 C 
ATOM     27  C   UNL     1       2.353   1.141  -0.014  0.00  0.00    +0.229 C 
ENDBRANCH  25  27
ENDBRANCH  23  25
ENDBRANCH   1  23
TORSDOF 9
