REMARK  Name = ZINC05590761
REMARK  4 active torsions:
REMARK  status: ('A' for Active; 'I' for Inactive)
REMARK    1  A    between atoms: C_5  and  C_7
REMARK    2  A    between atoms: C_10  and  C_12
REMARK    3  A    between atoms: C_13  and  C_14
REMARK    4  A    between atoms: C_13  and  C_16
REMARK                            x       y       z     vdW  Elec       q    Type
REMARK                         _______ _______ _______ _____ _____    ______ ____
ROOT
ATOM      1  C   UNL     1       2.321  -5.329  -1.258  0.00  0.00    +0.064 C 
ATOM      2  C   UNL     1       3.176  -5.124  -2.292  0.00  0.00    +0.071 C 
ENDROOT
BRANCH   2   3
ATOM      3  C   UNL     1       3.788  -6.300  -3.009  0.00  0.00    +0.198 C 
ATOM      4  N   UNL     1       5.252  -6.206  -2.978  0.00  0.00    -0.320 N 
ATOM      5  C   UNL     1       5.694  -6.134  -4.307  0.00  0.00    +0.050 A 
ATOM      6  C   UNL     1       6.979  -6.033  -4.827  0.00  0.00    +0.025 A 
ATOM      7  C   UNL     1       7.171  -5.976  -6.194  0.00  0.00    +0.002 A 
ATOM      8  C   UNL     1       6.087  -6.017  -7.050  0.00  0.00    +0.002 A 
ATOM      9  C   UNL     1       4.806  -6.117  -6.542  0.00  0.00    +0.025 A 
ATOM     10  C   UNL     1       4.602  -6.176  -5.169  0.00  0.00    +0.050 A 
ATOM     11  N   UNL     1       3.416  -6.277  -4.428  0.00  0.00    -0.320 N 
ATOM     12  H   UNL     1       5.811  -6.196  -2.186  0.00  0.00    +0.148 HD
ATOM     13  H   UNL     1       2.516  -6.325  -4.787  0.00  0.00    +0.148 HD
ENDBRANCH   2   3
BRANCH   1  17
ATOM     14  C   UNL     1       1.251  -2.159  -0.023  0.00  0.00    +0.138 A 
ATOM     15  C   UNL     1       0.556  -2.973   0.826  0.00  0.00    +0.050 A 
ATOM     16  C   UNL     1       0.865  -4.291   0.476  0.00  0.00    +0.050 A 
ATOM     17  C   UNL     1       1.746  -4.225  -0.586  0.00  0.00    +0.130 A 
ATOM     18  O   UNL     1       1.959  -2.924  -0.873  0.00  0.00    -0.455 OA
BRANCH  14  23
ATOM     19  C   UNL     1      -0.017   1.375   0.010  0.00  0.00    +0.001 A 
ATOM     20  C   UNL     1       1.170   2.087   0.002  0.00  0.00    +0.003 A 
ATOM     21  C   UNL     1       2.384   1.424  -0.013  0.00  0.00    +0.039 A 
ATOM     22  C   UNL     1       2.419   0.043  -0.021  0.00  0.00    +0.134 A 
ATOM     23  C   UNL     1       1.223  -0.683  -0.014  0.00  0.00    +0.052 A 
ATOM     24  C   UNL     1       0.002  -0.004   0.002  0.00  0.00    +0.014 A 
ATOM     25  F   UNL     1       3.604  -0.605  -0.037  0.00  0.00    -0.205 F 
ENDBRANCH  14  23
ENDBRANCH   1  17
BRANCH   2  26
ATOM     26  C   UNL     1       3.498  -3.790  -2.701  0.00  0.00    +0.098 C 
ATOM     27  N   UNL     1       3.753  -2.732  -3.026  0.00  0.00    -0.191 NA
ENDBRANCH   2  26
TORSDOF 4
