REMARK  Name = ZINC09993482
REMARK  4 active torsions:
REMARK  status: ('A' for Active; 'I' for Inactive)
REMARK    1  A    between atoms: C_4  and  C_7
REMARK    2  A    between atoms: C_12  and  C_26
REMARK    3  A    between atoms: C_14  and  C_24
REMARK    4  A    between atoms: C_15  and  N_23
REMARK                            x       y       z     vdW  Elec       q    Type
REMARK                         _______ _______ _______ _____ _____    ______ ____
ROOT
ATOM      1  C   UNL     1       3.711  -0.707  -0.038  0.00  0.00    +0.032 C 
ATOM      2  C   UNL     1       3.791  -1.589  -1.286  0.00  0.00    +0.060 C 
ATOM      3  C   UNL     1       5.086  -2.362  -1.278  0.00  0.00    +0.028 C 
ATOM      4  C   UNL     1       5.666  -2.736  -0.117  0.00  0.00    +0.025 C 
ATOM      5  C   UNL     1       6.953  -3.521  -0.111  0.00  0.00    +0.097 C 
ATOM      6  C   UNL     1       7.657  -3.418  -1.432  0.00  0.00    +0.077 C 
ATOM      7  C   UNL     1       6.998  -3.011  -2.548  0.00  0.00    +0.109 C 
ATOM      8  N   UNL     1       5.665  -2.676  -2.480  0.00  0.00    -0.228 N 
ATOM      9  C   UNL     1       4.894  -2.657  -3.647  0.00  0.00    +0.246 A 
ATOM     10  N   UNL     1       3.596  -2.345  -3.717  0.00  0.00    -0.202 NA
ATOM     11  C   UNL     1       3.188  -2.426  -4.958  0.00  0.00    +0.217 A 
ATOM     12  N   UNL     1       4.231  -2.796  -5.720  0.00  0.00    -0.264 N 
ATOM     13  H   UNL     1       4.228  -2.936  -6.680  0.00  0.00    +0.190 HD
ATOM     14  N   UNL     1       5.327  -2.936  -4.854  0.00  0.00    -0.136 NA
ATOM     15  C   UNL     1       5.089  -2.401   1.121  0.00  0.00    +0.162 C 
ATOM     16  O   UNL     1       5.631  -2.762   2.147  0.00  0.00    -0.292 OA
ATOM     17  C   UNL     1       3.817  -1.602   1.202  0.00  0.00    +0.088 C 
ENDROOT
BRANCH   5  18
ATOM     18  C   UNL     1       6.647  -4.969   0.173  0.00  0.00    -0.035 A 
ATOM     19  C   UNL     1       5.825  -5.681  -0.679  0.00  0.00    +0.007 A 
ATOM     20  C   UNL     1       5.544  -7.009  -0.420  0.00  0.00    +0.038 A 
ATOM     21  C   UNL     1       6.087  -7.626   0.695  0.00  0.00    +0.123 A 
ATOM     22  C   UNL     1       6.910  -6.911   1.548  0.00  0.00    +0.038 A 
ATOM     23  C   UNL     1       7.194  -5.585   1.284  0.00  0.00    +0.007 A 
ATOM     24  F   UNL     1       5.813  -8.924   0.950  0.00  0.00    -0.205 F 
ENDBRANCH   5  18
BRANCH   1  28
ATOM     25  C   UNL     1      -0.017   1.378   0.010  0.00  0.00    +0.000 A 
ATOM     26  C   UNL     1       1.171   2.086   0.002  0.00  0.00    +0.000 A 
ATOM     27  C   UNL     1       2.377   1.411  -0.013  0.00  0.00    +0.004 A 
ATOM     28  C   UNL     1       2.396   0.029  -0.020  0.00  0.00    -0.044 A 
ATOM     29  C   UNL     1       1.208  -0.679  -0.012  0.00  0.00    +0.004 A 
ATOM     30  C   UNL     1       0.002  -0.004   0.002  0.00  0.00    +0.000 A 
ENDBRANCH   1  28
BRANCH   7  31
ATOM     31  N   UNL     1       7.665  -2.933  -3.747  0.00  0.00    -0.345 N 
ATOM     32  H   UNL     1       8.605  -3.168  -3.796  0.00  0.00    +0.144 HD
ATOM     33  H   UNL     1       7.196  -2.642  -4.545  0.00  0.00    +0.144 HD
ENDBRANCH   7  31
BRANCH   6  34
ATOM     34  C   UNL     1       9.046  -3.755  -1.518  0.00  0.00    +0.099 C 
ATOM     35  N   UNL     1      10.148  -4.022  -1.585  0.00  0.00    -0.191 NA
ENDBRANCH   6  34
TORSDOF 4
