REMARK  Name = ZINC21971791
REMARK  9 active torsions:
REMARK  status: ('A' for Active; 'I' for Inactive)
REMARK    1  A    between atoms: N_9  and  C_14
REMARK    2  A    between atoms: C_14  and  C_15
REMARK    3  A    between atoms: C_15  and  C_16
REMARK    4  A    between atoms: C_16  and  C_17
REMARK    5  A    between atoms: C_17  and  C_18
REMARK    6  A    between atoms: C_18  and  C_19
REMARK    7  A    between atoms: N_21  and  C_22
REMARK    8  A    between atoms: N_25  and  C_28
REMARK    9  A    between atoms: C_28  and  C_29
REMARK                            x       y       z     vdW  Elec       q    Type
REMARK                         _______ _______ _______ _____ _____    ______ ____
ROOT
ATOM      1  C   UNL     1       8.587   6.832  -4.351  0.00  0.00    +0.213 C 
ATOM      2  O   UNL     1       7.917   6.407  -5.269  0.00  0.00    -0.276 OA
ATOM      3  N   UNL     1       9.695   7.555  -4.605  0.00  0.00    -0.313 N 
ATOM      4  H   UNL     1      10.303   7.940  -3.772  0.00  0.00    +0.149 HD
ENDROOT
BRANCH   3   5
ATOM      5  C   UNL     1      10.091   7.829  -5.988  0.00  0.00    +0.069 C 
ATOM      6  C   UNL     1      10.919   6.659  -6.525  0.00  0.00    +0.003 C 
ATOM      7  C   UNL     1      11.381   6.978  -7.949  0.00  0.00    -0.077 C 
ATOM      8  N   UNL     1      12.184   8.207  -7.941  0.00  0.00    +0.382 N 
ATOM      9  C   UNL     1      11.395   9.354  -7.474  0.00  0.00    -0.077 C 
ATOM     10  C   UNL     1      10.934   9.106  -6.036  0.00  0.00    +0.003 C 
ATOM     11  H   UNL     1      13.014   8.060  -7.234  0.00  0.00    -0.081 HD
BRANCH   8  12
ATOM     12  C   UNL     1      12.759   8.468  -9.268  0.00  0.00    -0.043 C 
BRANCH  12  13
ATOM     13  C   UNL     1      13.752   7.387  -9.607  0.00  0.00    -0.064 A 
ATOM     14  C   UNL     1      15.082   7.537  -9.262  0.00  0.00    +0.003 A 
ATOM     15  C   UNL     1      15.992   6.543  -9.567  0.00  0.00    +0.020 A 
ATOM     16  C   UNL     1      15.574   5.402 -10.229  0.00  0.00    +0.041 A 
ATOM     17  C   UNL     1      14.244   5.255 -10.579  0.00  0.00    +0.020 A 
ATOM     18  C   UNL     1      13.333   6.247 -10.268  0.00  0.00    +0.003 A 
ATOM     19 CL   UNL     1      16.718   4.155 -10.619  0.00  0.00    -0.084 Cl
ENDBRANCH  12  13
ENDBRANCH   8  12
ENDBRANCH   3   5
BRANCH   1  20
ATOM     20  C   UNL     1       8.180   6.550  -2.928  0.00  0.00    +0.096 C 
BRANCH  20  21
ATOM     21  C   UNL     1       6.898   5.715  -2.920  0.00  0.00    +0.009 C 
BRANCH  21  22
ATOM     22  C   UNL     1       6.485   5.429  -1.474  0.00  0.00    +0.002 C 
BRANCH  22  23
ATOM     23  C   UNL     1       5.202   4.595  -1.466  0.00  0.00    +0.022 C 
BRANCH  23  24
ATOM     24  C   UNL     1       4.790   4.309  -0.021  0.00  0.00    +0.127 C 
BRANCH  24  33
ATOM     25  C   UNL     1       1.204  -0.695  -0.013  0.00  0.00    +0.001 A 
ATOM     26  C   UNL     1       0.002  -0.004   0.002  0.00  0.00    +0.002 A 
ATOM     27  C   UNL     1      -0.017   1.377   0.010  0.00  0.00    +0.026 A 
ATOM     28  C   UNL     1       1.178   2.081   0.002  0.00  0.00    +0.053 A 
ATOM     29  C   UNL     1       2.397   1.382  -0.014  0.00  0.00    +0.063 A 
ATOM     30  C   UNL     1       2.402  -0.011  -0.021  0.00  0.00    +0.015 A 
ATOM     31  C   UNL     1       3.648   2.162  -0.022  0.00  0.00    +0.262 A 
ATOM     32  O   UNL     1       4.729   1.606  -0.035  0.00  0.00    -0.267 OA
ATOM     33  N   UNL     1       3.562   3.510  -0.013  0.00  0.00    -0.288 N 
ATOM     34  C   UNL     1       2.372   4.131   0.002  0.00  0.00    +0.161 A 
ATOM     35  S   UNL     1       2.342   5.843   0.011  0.00  0.00    -0.013 S 
ATOM     36  N   UNL     1       1.203   3.468   0.010  0.00  0.00    -0.335 N 
ATOM     37  H   UNL     1       0.261   4.035   0.022  0.00  0.00    +0.168 HD
ENDBRANCH  24  33
ENDBRANCH  23  24
ENDBRANCH  22  23
ENDBRANCH  21  22
ENDBRANCH  20  21
ENDBRANCH   1  20
TORSDOF 9
