REMARK  Name = ZINC40342998
REMARK  6 active torsions:
REMARK  status: ('A' for Active; 'I' for Inactive)
REMARK    1  A    between atoms: C_1  and  C_2
REMARK    2  A    between atoms: C_2  and  C_3
REMARK    3  A    between atoms: C_2  and  C_4
REMARK    4  A    between atoms: C_4  and  N_5
REMARK    5  A    between atoms: C_6  and  C_23
REMARK    6  A    between atoms: C_9  and  C_16
REMARK                            x       y       z     vdW  Elec       q    Type
REMARK                         _______ _______ _______ _____ _____    ______ ____
ROOT
ATOM      1  N   UNL     1       1.857  -0.027  -1.227  0.00  0.00    -0.285 N 
ATOM      2  C   UNL     1       2.434   1.309  -1.424  0.00  0.00    +0.141 C 
ATOM      3  C   UNL     1       3.875   1.207  -1.003  0.00  0.00    +0.035 A 
ATOM      4  C   UNL     1       5.104   1.853  -0.839  0.00  0.00    +0.099 A 
ATOM      5  N   UNL     1       5.958   0.965  -0.369  0.00  0.00    -0.173 NA
ATOM      6  N   UNL     1       5.389  -0.178  -0.220  0.00  0.00    -0.272 N 
ATOM      7  H   UNL     1       5.825  -0.978   0.113  0.00  0.00    +0.189 HD
ATOM      8  C   UNL     1       4.079  -0.099  -0.599  0.00  0.00    +0.126 A 
ATOM      9  C   UNL     1       2.818  -0.835  -0.743  0.00  0.00    +0.265 C 
ATOM     10  O   UNL     1       2.664  -2.009  -0.466  0.00  0.00    -0.268 OA
ENDROOT
BRANCH   4  11
ATOM     11  C   UNL     1       5.395   3.278  -1.139  0.00  0.00    +0.003 A 
ATOM     12  C   UNL     1       4.769   3.908  -2.213  0.00  0.00    +0.011 A 
ATOM     13  C   UNL     1       5.042   5.232  -2.488  0.00  0.00    +0.020 A 
ATOM     14  C   UNL     1       5.936   5.935  -1.699  0.00  0.00    +0.041 A 
ATOM     15  C   UNL     1       6.561   5.314  -0.631  0.00  0.00    +0.020 A 
ATOM     16  C   UNL     1       6.290   3.991  -0.344  0.00  0.00    +0.011 A 
ATOM     17 CL   UNL     1       6.276   7.601  -2.050  0.00  0.00    -0.084 Cl
ENDBRANCH   4  11
BRANCH   2  18
ATOM     18  C   UNL     1       1.713   2.318  -0.569  0.00  0.00    -0.021 A 
ATOM     19  C   UNL     1       1.393   2.011   0.741  0.00  0.00    +0.006 A 
ATOM     20  C   UNL     1       0.731   2.936   1.526  0.00  0.00    +0.001 A 
ATOM     21  C   UNL     1       0.388   4.168   1.002  0.00  0.00    +0.015 A 
ATOM     22  C   UNL     1       0.708   4.476  -0.307  0.00  0.00    +0.018 A 
ATOM     23  C   UNL     1       1.375   3.552  -1.091  0.00  0.00    +0.021 A 
ATOM     24 BR   UNL     1       0.238   6.161  -1.025  0.00  0.00    -0.050 Br
ENDBRANCH   2  18
BRANCH   1  25
ATOM     25  C   UNL     1       0.471  -0.412  -1.503  0.00  0.00    +0.112 C 
BRANCH  25  27
ATOM     26  C   UNL     1       1.155  -2.019  -3.289  0.00  0.00    +0.009 C 
ATOM     27  C   UNL     1       0.327  -0.770  -2.983  0.00  0.00    +0.000 C 
ATOM     28  C   UNL     1      -1.145  -1.044  -3.301  0.00  0.00    +0.009 C 
ENDBRANCH  25  27
ENDBRANCH   1  25
TORSDOF 4
