REMARK  Name = ZINC38740370
REMARK  3 active torsions:
REMARK  status: ('A' for Active; 'I' for Inactive)
REMARK    1  A    between atoms: C_13  and  C_15
REMARK    2  A    between atoms: C_21  and  C_23
REMARK    3  A    between atoms: N_25  and  C_26
REMARK                            x       y       z     vdW  Elec       q    Type
REMARK                         _______ _______ _______ _____ _____    ______ ____
ROOT
ATOM      1  C   UNL     1      -0.419  -6.810   1.005  0.00  0.00    +0.091 C 
ATOM      2  C   UNL     1      -1.313  -6.952  -0.229  0.00  0.00    +0.040 C 
ATOM      3  C   UNL     1      -2.168  -8.179  -0.109  0.00  0.00    -0.030 C 
ATOM      4  C   UNL     1      -1.934  -9.149   0.716  0.00  0.00    -0.030 C 
ATOM      5  C   UNL     1      -0.780  -9.176   1.676  0.00  0.00    +0.040 C 
ATOM      6  C   UNL     1       0.278  -8.152   1.262  0.00  0.00    +0.091 C 
ENDROOT
BRANCH   1  19
ATOM      7  C   UNL     1      -1.795   0.905   3.089  0.00  0.00    +0.005 A 
ATOM      8  C   UNL     1      -0.801   1.852   2.878  0.00  0.00    +0.018 A 
ATOM      9  C   UNL     1       0.461   1.437   2.506  0.00  0.00    +0.084 A 
ATOM     10  N   UNL     1       0.732   0.155   2.348  0.00  0.00    -0.350 N 
ATOM     11  C   UNL     1      -0.187  -0.778   2.539  0.00  0.00    +0.099 A 
ATOM     12  C   UNL     1      -1.481  -0.431   2.916  0.00  0.00    +0.042 A 
ATOM     13  N   UNL     1       0.142  -2.117   2.361  0.00  0.00    -0.314 N 
ATOM     14  C   UNL     1      -0.822  -3.175   2.693  0.00  0.00    +0.125 C 
ATOM     15  C   UNL     1      -1.024  -4.060   1.457  0.00  0.00    +0.126 C 
ATOM     16  N   UNL     1       0.295  -4.442   0.933  0.00  0.00    -0.298 N 
ATOM     17  C   UNL     1       1.260  -3.384   0.602  0.00  0.00    +0.126 C 
ATOM     18  C   UNL     1       1.459  -2.499   1.833  0.00  0.00    +0.125 C 
ATOM     19  C   UNL     1       0.615  -5.740   0.761  0.00  0.00    +0.220 C 
ATOM     20  O   UNL     1       1.734  -6.048   0.410  0.00  0.00    -0.275 OA
ATOM     21  H   UNL     1       1.628  -0.110   2.086  0.00  0.00    +0.166 HD
ENDBRANCH   1  19
BRANCH   6  22
ATOM     22  C   UNL     1       0.962  -8.617   0.002  0.00  0.00    +0.217 C 
ATOM     23  O   UNL     1       0.311  -9.111  -0.894  0.00  0.00    -0.275 OA
ATOM     24  N   UNL     1       2.296  -8.483  -0.129  0.00  0.00    -0.312 N 
ATOM     25  H   UNL     1       2.817  -8.088   0.588  0.00  0.00    +0.149 HD
BRANCH  24  26
ATOM     26  C   UNL     1       2.961  -8.936  -1.354  0.00  0.00    +0.073 C 
ATOM     27  C   UNL     1       3.199 -10.457  -1.260  0.00  0.00    +0.022 C 
ATOM     28  C   UNL     1       3.391 -10.997  -2.651  0.00  0.00    +0.002 C 
ATOM     29  C   UNL     1       4.877 -11.078  -3.052  0.00  0.00    +0.000 C 
ATOM     30  C   UNL     1       5.684  -9.843  -2.608  0.00  0.00    +0.000 C 
ATOM     31  C   UNL     1       4.934  -8.557  -2.826  0.00  0.00    +0.002 C 
ATOM     32  C   UNL     1       4.199  -8.190  -1.521  0.00  0.00    +0.022 C 
ENDBRANCH  24  26
ENDBRANCH   6  22
TORSDOF 3
