REMARK  Name = ZINC37410586
REMARK  5 active torsions:
REMARK  status: ('A' for Active; 'I' for Inactive)
REMARK    1  A    between atoms: C_1  and  C_2
REMARK    2  A    between atoms: C_7  and  C_12
REMARK    3  A    between atoms: N_14  and  C_15
REMARK    4  A    between atoms: N_14  and  C_16
REMARK    5  A    between atoms: C_16  and  C_17
REMARK                            x       y       z     vdW  Elec       q    Type
REMARK                         _______ _______ _______ _____ _____    ______ ____
ROOT
ATOM      1  C   UNL     1      -0.582   1.156   0.678  0.00  0.00    +0.008 C 
ATOM      2  C   UNL     1      -0.479  -0.360   0.504  0.00  0.00    -0.009 C 
ATOM      3  C   UNL     1       0.371  -0.679  -0.728  0.00  0.00    +0.008 C 
ATOM      4  C   UNL     1       0.277  -2.172  -1.055  0.00  0.00    +0.037 C 
ATOM      5  C   UNL     1       0.598  -2.966   0.202  0.00  0.00    -0.025 A 
ATOM      6  C   UNL     1       0.978  -4.366   0.219  0.00  0.00    +0.047 A 
ATOM      7  C   UNL     1       1.237  -4.939   1.442  0.00  0.00    +0.058 A 
ATOM      8  S   UNL     1       0.994  -3.693   2.541  0.00  0.00    -0.101 S 
ATOM      9  C   UNL     1       0.547  -2.394   1.427  0.00  0.00    -0.006 A 
ATOM     10  C   UNL     1       0.186  -0.976   1.744  0.00  0.00    +0.046 C 
ENDROOT
BRANCH   6  11
ATOM     11  C   UNL     1       1.081  -5.144  -1.026  0.00  0.00    +0.248 C 
ATOM     12  O   UNL     1       0.249  -5.003  -1.903  0.00  0.00    -0.270 OA
ATOM     13  N   UNL     1       2.097  -6.013  -1.195  0.00  0.00    -0.290 N 
ATOM     14  C   UNL     1       3.032  -6.270  -0.097  0.00  0.00    +0.133 C 
BRANCH  13  15
ATOM     15  C   UNL     1       2.267  -6.700  -2.478  0.00  0.00    +0.232 C 
BRANCH  15  16
ATOM     16  C   UNL     1       3.155  -5.877  -3.375  0.00  0.00    +0.373 C 
ATOM     17  O   UNL     1       3.604  -4.815  -2.980  0.00  0.00    -0.245 OA
ATOM     18  O   UNL     1       3.424  -6.274  -4.496  0.00  0.00    -0.245 OA
ENDBRANCH  15  16
ENDBRANCH  13  15
ENDBRANCH   6  11
TORSDOF 3
