REMARK  Name = ZINC65082261
REMARK  7 active torsions:
REMARK  status: ('A' for Active; 'I' for Inactive)
REMARK    1  A    between atoms: C_1  and  C_2
REMARK    2  A    between atoms: C_2  and  C_3
REMARK    3  A    between atoms: C_2  and  C_4
REMARK    4  A    between atoms: C_4  and  C_5
REMARK    5  A    between atoms: N_7  and  C_8
REMARK    6  A    between atoms: C_15  and  C_19
REMARK    7  A    between atoms: N_21  and  C_22
REMARK                            x       y       z     vdW  Elec       q    Type
REMARK                         _______ _______ _______ _____ _____    ______ ____
ROOT
ATOM      1  C   UNL     1      -2.617  -4.108  -0.344  0.00  0.00    +0.034 A 
ATOM      2  C   UNL     1      -1.437  -4.833  -0.443  0.00  0.00    +0.027 A 
ATOM      3  C   UNL     1      -1.483  -6.196  -0.652  0.00  0.00    +0.048 A 
ATOM      4  C   UNL     1      -2.707  -6.848  -0.763  0.00  0.00    +0.124 A 
ATOM      5  C   UNL     1      -3.883  -6.126  -0.661  0.00  0.00    -0.003 A 
ATOM      6  C   UNL     1      -3.837  -4.758  -0.448  0.00  0.00    +0.030 A 
ATOM      7  C   UNL     1      -5.229  -6.797  -0.764  0.00  0.00    +0.055 C 
ATOM      8  C   UNL     1      -5.070  -8.174  -1.415  0.00  0.00    +0.117 C 
ATOM      9  C   UNL     1      -3.917  -8.906  -0.716  0.00  0.00    +0.242 C 
ATOM     10  O   UNL     1      -2.708  -8.191  -0.974  0.00  0.00    -0.491 OA
ENDROOT
BRANCH   1  13
ATOM     11  C   UNL     1      -1.596  -1.986  -0.695  0.00  0.00    +0.217 C 
ATOM     12  O   UNL     1      -0.705  -2.530  -1.312  0.00  0.00    -0.275 OA
ATOM     13  N   UNL     1      -2.574  -2.724  -0.133  0.00  0.00    -0.285 N 
ATOM     14  H   UNL     1      -3.249  -2.296   0.416  0.00  0.00    +0.155 HD
BRANCH  11  15
ATOM     15  C   UNL     1      -1.609  -0.486  -0.556  0.00  0.00    +0.099 C 
BRANCH  15  17
ATOM     16  C   UNL     1      -0.476   1.632  -1.246  0.00  0.00    +0.008 C 
ATOM     17  C   UNL     1      -0.397   0.104  -1.280  0.00  0.00    -0.008 C 
ATOM     18  C   UNL     1       0.886  -0.355  -0.584  0.00  0.00    +0.008 C 
ENDBRANCH  15  17
ENDBRANCH  11  15
ENDBRANCH   1  13
BRANCH   8  19
ATOM     19  C   UNL     1      -6.345  -8.962  -1.254  0.00  0.00    +0.220 C 
ATOM     20  O   UNL     1      -7.291  -8.472  -0.675  0.00  0.00    -0.275 OA
ATOM     21  N   UNL     1      -6.433 -10.211  -1.753  0.00  0.00    -0.312 N 
ATOM     22  H   UNL     1      -5.675 -10.602  -2.216  0.00  0.00    +0.149 HD
BRANCH  21  23
ATOM     23  C   UNL     1      -7.671 -10.977  -1.596  0.00  0.00    +0.073 C 
ATOM     24  C   UNL     1      -8.618 -10.642  -2.717  0.00  0.00    +0.022 C 
ATOM     25  C   UNL     1     -10.093 -10.674  -2.273  0.00  0.00    +0.002 C 
ATOM     26  C   UNL     1     -10.413 -11.865  -1.350  0.00  0.00    +0.000 C 
ATOM     27  C   UNL     1      -9.758 -13.140  -1.808  0.00  0.00    +0.000 C 
ATOM     28  C   UNL     1      -8.415 -13.295  -1.064  0.00  0.00    +0.002 C 
ATOM     29  C   UNL     1      -7.358 -12.486  -1.654  0.00  0.00    +0.022 C 
ENDBRANCH  21  23
ENDBRANCH   8  19
TORSDOF 5
