REMARK  Name = ZINC08451178
REMARK  11 active torsions:
REMARK  status: ('A' for Active; 'I' for Inactive)
REMARK    1  A    between atoms: C_1  and  N_57
REMARK    2  A    between atoms: C_7  and  C_33
REMARK    3  A    between atoms: C_8  and  S_10
REMARK    4  A    between atoms: S_10  and  C_11
REMARK    5  A    between atoms: C_11  and  C_12
REMARK    6  A    between atoms: C_13  and  C_29
REMARK    7  A    between atoms: C_14  and  C_22
REMARK    8  A    between atoms: C_16  and  C_20
REMARK    9  A    between atoms: C_17  and  N_19
REMARK   10  A    between atoms: C_29  and  O_31
REMARK   11  A    between atoms: O_31  and  C_32
REMARK                            x       y       z     vdW  Elec       q    Type
REMARK                         _______ _______ _______ _____ _____    ______ ____
ROOT
ATOM      1  C   UNL     1       3.084   4.346  -1.242  0.00  0.00    +0.128 C 
ATOM      2  C   UNL     1       1.749   4.388  -1.149  0.00  0.00    +0.088 C 
ATOM      3  C   UNL     1       1.055   4.184   0.170  0.00  0.00    +0.107 C 
ATOM      4  C   UNL     1       2.042   4.348   1.295  0.00  0.00    +0.098 C 
ATOM      5  C   UNL     1       3.375   4.309   1.058  0.00  0.00    +0.198 C 
ATOM      6  O   UNL     1       3.869   4.122  -0.178  0.00  0.00    -0.444 OA
ENDROOT
BRANCH   3   7
ATOM      7  C   UNL     1       0.467   2.797   0.218  0.00  0.00    +0.001 A 
ATOM      8  C   UNL     1       1.291   1.693   0.105  0.00  0.00    +0.007 A 
ATOM      9  C   UNL     1       0.751   0.421   0.148  0.00  0.00    +0.000 A 
ATOM     10  C   UNL     1      -0.612   0.252   0.305  0.00  0.00    +0.003 A 
ATOM     11  C   UNL     1      -1.437   1.354   0.419  0.00  0.00    +0.038 A 
ATOM     12  C   UNL     1      -0.898   2.629   0.375  0.00  0.00    +0.127 A 
ATOM     13  F   UNL     1      -1.704   3.708   0.481  0.00  0.00    -0.205 F 
ENDBRANCH   3   7
BRANCH   5  14
ATOM     14  N   UNL     1       4.245   4.465   2.108  0.00  0.00    -0.328 N 
ATOM     15  H   UNL     1       3.902   4.601   3.005  0.00  0.00    +0.145 HD
ATOM     16  H   UNL     1       5.202   4.439   1.953  0.00  0.00    +0.145 HD
ENDBRANCH   5  14
BRANCH   4  17
ATOM     17  C   UNL     1       1.565   4.548   2.630  0.00  0.00    +0.101 C 
ATOM     18  N   UNL     1       1.188   4.707   3.690  0.00  0.00    -0.191 NA
ENDBRANCH   4  17
BRANCH   2  19
ATOM     19  C   UNL     1       0.977   4.627  -2.312  0.00  0.00    +0.339 C 
ATOM     20  O   UNL     1       1.525   4.945  -3.351  0.00  0.00    -0.245 OA
BRANCH  19  21
ATOM     21  O   UNL     1      -0.366   4.503  -2.268  0.00  0.00    -0.465 OA
ATOM     22  C   UNL     1      -1.081   4.760  -3.479  0.00  0.00    +0.280 C 
ENDBRANCH  19  21
ENDBRANCH   2  19
BRANCH   1  23
ATOM     23  C   UNL     1       3.727   4.559  -2.589  0.00  0.00    +0.150 C 
BRANCH  23  24
ATOM     24  S   UNL     1       3.926   6.332  -2.889  0.00  0.00    -0.097 S 
BRANCH  24  32
ATOM     25  C   UNL     1       7.532   4.673  -9.948  0.00  0.00    -0.096 C 
ATOM     26  C   UNL     1       5.963   3.760  -8.342  0.00  0.00    -0.073 C 
ATOM     27  C   UNL     1       5.715   3.665  -6.836  0.00  0.00    +0.037 C 
ATOM     28  C   UNL     1       5.477   5.041  -6.265  0.00  0.00    +0.042 A 
ATOM     29  C   UNL     1       5.837   6.179  -6.959  0.00  0.00    -0.041 A 
ATOM     30  C   UNL     1       5.612   7.425  -6.392  0.00  0.00    +0.025 A 
ATOM     31  C   UNL     1       5.015   7.492  -5.130  0.00  0.00    +0.084 A 
ATOM     32  C   UNL     1       4.677   6.290  -4.483  0.00  0.00    +0.115 A 
ATOM     33  N   UNL     1       4.916   5.129  -5.068  0.00  0.00    -0.244 NA
ATOM     34  C   UNL     1       6.469   6.116  -8.324  0.00  0.00    -0.042 C 
ATOM     35  N   UNL     1       7.017   4.771  -8.563  0.00  0.00    +0.381 N 
ATOM     36  H   UNL     1       7.788   4.601  -7.907  0.00  0.00    -0.082 HD
BRANCH  31  37
ATOM     37  C   UNL     1       4.759   8.756  -4.508  0.00  0.00    +0.102 C 
ATOM     38  N   UNL     1       4.555   9.759  -4.014  0.00  0.00    -0.191 NA
ENDBRANCH  31  37
ENDBRANCH  24  32
ENDBRANCH  23  24
ENDBRANCH   1  23
TORSDOF 9
