REMARK  Name = ZINC39667543
REMARK  9 active torsions:
REMARK  status: ('A' for Active; 'I' for Inactive)
REMARK    1  A    between atoms: C_1  and  C_2
REMARK    2  A    between atoms: C_6  and  C_9
REMARK    3  A    between atoms: C_7  and  C_8
REMARK    4  A    between atoms: C_9  and  N_10
REMARK    5  A    between atoms: C_11  and  C_13
REMARK    6  A    between atoms: C_24  and  C_26
REMARK    7  A    between atoms: C_26  and  C_28
REMARK    8  A    between atoms: C_26  and  O_29
REMARK    9  A    between atoms: O_29  and  C_30
REMARK                            x       y       z     vdW  Elec       q    Type
REMARK                         _______ _______ _______ _____ _____    ______ ____
ROOT
ATOM      1  C   UNL     1      -2.943  -3.576   4.739  0.00  0.00    +0.100 C 
ATOM      2  C   UNL     1      -3.894  -4.257   3.730  0.00  0.00    +0.121 C 
ATOM      3  N   UNL     1      -3.929  -5.678   4.149  0.00  0.00    -0.297 N 
ATOM      4  C   UNL     1      -3.944  -5.625   5.631  0.00  0.00    +0.115 C 
ATOM      5  C   UNL     1      -2.982  -4.474   5.987  0.00  0.00    -0.004 C 
ATOM      6  C   UNL     1      -3.513  -3.692   7.185  0.00  0.00    -0.010 C 
ATOM      7  C   UNL     1      -3.488  -4.589   8.426  0.00  0.00    -0.082 C 
ATOM      8  N   UNL     1      -2.113  -5.037   8.679  0.00  0.00    +0.379 N 
ATOM      9  C   UNL     1      -1.643  -5.867   7.563  0.00  0.00    -0.082 C 
ATOM     10  C   UNL     1      -1.591  -5.024   6.285  0.00  0.00    -0.010 C 
ATOM     11  C   UNL     1      -3.945  -6.772   3.362  0.00  0.00    +0.256 C 
ATOM     12  O   UNL     1      -3.832  -6.655   2.160  0.00  0.00    -0.272 OA
ATOM     13  H   UNL     1      -1.511  -4.234   8.776  0.00  0.00    -0.086 HD
ATOM     14  H   UNL     1      -2.089  -5.578   9.531  0.00  0.00    -0.086 HD
ENDROOT
BRANCH   1  16
ATOM     15  N   UNL     1      -0.724  -2.503   4.535  0.00  0.00    -0.311 N 
ATOM     16  C   UNL     1      -1.544  -3.512   4.182  0.00  0.00    +0.218 C 
ATOM     17  O   UNL     1      -1.157  -4.368   3.416  0.00  0.00    -0.275 OA
ATOM     18  H   UNL     1      -1.033  -1.817   5.148  0.00  0.00    +0.149 HD
BRANCH  15  19
ATOM     19  C   UNL     1       0.636  -2.441   3.994  0.00  0.00    +0.139 C 
BRANCH  19  25
ATOM     20  C   UNL     1       3.121  -0.174   7.700  0.00  0.00    +0.044 C 
ATOM     21  C   UNL     1       2.528  -0.141   6.315  0.00  0.00    -0.047 A 
ATOM     22  C   UNL     1       2.630   1.004   5.546  0.00  0.00    +0.003 A 
ATOM     23  C   UNL     1       2.086   1.034   4.276  0.00  0.00    +0.001 A 
ATOM     24  C   UNL     1       1.441  -0.081   3.773  0.00  0.00    +0.005 A 
ATOM     25  C   UNL     1       1.340  -1.226   4.541  0.00  0.00    -0.027 A 
ATOM     26  C   UNL     1       1.887  -1.257   5.810  0.00  0.00    -0.043 A 
ATOM     27  C   UNL     1       1.782  -2.507   6.646  0.00  0.00    +0.044 C 
ENDBRANCH  19  25
ENDBRANCH  15  19
ENDBRANCH   1  16
BRANCH  11  28
ATOM     28  C   UNL     1      -4.102  -8.139   3.975  0.00  0.00    +0.256 C 
ATOM     29  C   UNL     1      -5.514  -8.284   4.545  0.00  0.00    +0.062 C 
BRANCH  28  30
ATOM     30  O   UNL     1      -3.887  -9.137   2.975  0.00  0.00    -0.480 OA
BRANCH  30  31
ATOM     31  C   UNL     1      -3.477 -10.361   3.402  0.00  0.00    +0.122 A 
ATOM     32  C   UNL     1      -3.131 -11.338   2.480  0.00  0.00    +0.045 A 
ATOM     33  C   UNL     1      -2.714 -12.581   2.917  0.00  0.00    +0.004 A 
ATOM     34  C   UNL     1      -2.641 -12.850   4.271  0.00  0.00    +0.000 A 
ATOM     35  C   UNL     1      -2.986 -11.878   5.191  0.00  0.00    +0.004 A 
ATOM     36  C   UNL     1      -3.398 -10.632   4.760  0.00  0.00    +0.045 A 
ENDBRANCH  30  31
ENDBRANCH  28  30
ENDBRANCH  11  28
TORSDOF 6
