REMARK  Name = ZINC35311608
REMARK  6 active torsions:
REMARK  status: ('A' for Active; 'I' for Inactive)
REMARK    1  A    between atoms: C_13  and  C_15
REMARK    2  A    between atoms: C_15  and  C_16
REMARK    3  A    between atoms: C_16  and  C_17
REMARK    4  A    between atoms: C_17  and  N_18
REMARK    5  A    between atoms: N_18  and  S_19
REMARK    6  A    between atoms: S_19  and  C_22
REMARK                            x       y       z     vdW  Elec       q    Type
REMARK                         _______ _______ _______ _____ _____    ______ ____
ROOT
ATOM      1  C   UNL     1       6.022  -5.325  -1.265  0.00  0.00    +0.024 C 
ENDROOT
BRANCH   1   2
ATOM      2  C   UNL     1       5.062  -5.358  -0.074  0.00  0.00    +0.075 C 
BRANCH   2  15
ATOM      3  C   UNL     1      -0.016   1.355   0.009  0.00  0.00    +0.001 A 
ATOM      4  C   UNL     1       1.169   2.091   0.002  0.00  0.00    +0.001 A 
ATOM      5  C   UNL     1       2.378   1.470  -0.013  0.00  0.00    +0.008 A 
ATOM      6  C   UNL     1       2.441   0.063  -0.021  0.00  0.00    -0.016 A 
ATOM      7  C   UNL     1       3.673  -0.601  -0.036  0.00  0.00    +0.038 A 
ATOM      8  C   UNL     1       3.705  -1.987  -0.044  0.00  0.00    +0.090 A 
ATOM      9  C   UNL     1       2.499  -2.727  -0.036  0.00  0.00    +0.067 A 
ATOM     10  C   UNL     1       1.282  -2.086  -0.021  0.00  0.00    +0.036 A 
ATOM     11  C   UNL     1       1.234  -0.685  -0.013  0.00  0.00    -0.016 A 
ATOM     12  C   UNL     1       0.002  -0.004   0.002  0.00  0.00    +0.008 A 
ATOM     13  N   UNL     1       2.875  -4.060  -0.046  0.00  0.00    -0.342 N 
ATOM     14  H   UNL     1       2.279  -4.826  -0.044  0.00  0.00    +0.167 HD
ATOM     15  C   UNL     1       4.236  -4.098  -0.059  0.00  0.00    +0.108 A 
ATOM     16  N   UNL     1       4.721  -2.892  -0.058  0.00  0.00    -0.232 NA
ENDBRANCH   2  15
ENDBRANCH   1   2
BRANCH   1  17
ATOM     17  C   UNL     1       6.861  -6.604  -1.280  0.00  0.00    +0.106 C 
BRANCH  17  18
ATOM     18  N   UNL     1       7.780  -6.572  -2.420  0.00  0.00    -0.190 NA
ATOM     19  H   UNL     1       7.643  -5.932  -3.136  0.00  0.00    +0.148 HD
BRANCH  18  20
ATOM     20  S   UNL     1       9.054  -7.628  -2.486  0.00  0.00    +0.059 S 
ATOM     21  O   UNL     1       9.733  -7.369  -3.707  0.00  0.00    -0.153 OA
ATOM     22  O   UNL     1       9.704  -7.560  -1.224  0.00  0.00    -0.153 OA
BRANCH  20  23
ATOM     23  C   UNL     1       8.380  -9.250  -2.618  0.00  0.00    +0.109 A 
ATOM     24  C   UNL     1       8.097  -9.975  -1.476  0.00  0.00    +0.032 A 
ATOM     25  C   UNL     1       7.569 -11.249  -1.575  0.00  0.00    +0.051 A 
ATOM     26  C   UNL     1       7.321 -11.802  -2.823  0.00  0.00    +0.162 A 
ATOM     27  C   UNL     1       7.604 -11.073  -3.971  0.00  0.00    +0.164 A 
ATOM     28  C   UNL     1       8.130  -9.794  -3.864  0.00  0.00    +0.078 A 
ATOM     29  O   UNL     1       7.361 -11.594  -5.205  0.00  0.00    -0.485 OA
ATOM     30  C   UNL     1       7.178 -13.012  -5.280  0.00  0.00    +0.270 C 
ATOM     31  C   UNL     1       6.220 -13.433  -4.158  0.00  0.00    +0.270 C 
ATOM     32  O   UNL     1       6.804 -13.059  -2.905  0.00  0.00    -0.485 OA
ENDBRANCH  20  23
ENDBRANCH  18  20
ENDBRANCH  17  18
ENDBRANCH   1  17
TORSDOF 6
