REMARK  Name = ZINC16610212
REMARK  10 active torsions:
REMARK  status: ('A' for Active; 'I' for Inactive)
REMARK    1  A    between atoms: C_1  and  C_2
REMARK    2  A    between atoms: C_3  and  C_28
REMARK    3  A    between atoms: C_4  and  C_11
REMARK    4  A    between atoms: N_9  and  C_10
REMARK    5  A    between atoms: C_14  and  N_17
REMARK    6  A    between atoms: N_20  and  C_21
REMARK    7  A    between atoms: C_28  and  O_30
REMARK    8  A    between atoms: O_30  and  C_31
REMARK    9  A    between atoms: C_31  and  C_32
REMARK   10  A    between atoms: C_31  and  C_33
REMARK                            x       y       z     vdW  Elec       q    Type
REMARK                         _______ _______ _______ _____ _____    ______ ____
ROOT
ATOM      1  C   UNL     1      -0.553   2.628   0.059  0.00  0.00    -0.022 A 
ATOM      2  C   UNL     1       0.019   2.854   1.297  0.00  0.00    +0.007 A 
ATOM      3  C   UNL     1      -0.776   3.182   2.377  0.00  0.00    +0.024 A 
ATOM      4  C   UNL     1      -2.154   3.273   2.222  0.00  0.00    +0.035 A 
ATOM      5  C   UNL     1      -2.725   3.039   0.978  0.00  0.00    +0.024 A 
ATOM      6  C   UNL     1      -1.924   2.717  -0.100  0.00  0.00    +0.007 A 
ENDROOT
BRANCH   1  10
ATOM      7  C   UNL     1       2.361  -0.985  -0.883  0.00  0.00    +0.061 C 
ATOM      8  C   UNL     1       1.973   0.468  -0.975  0.00  0.00    +0.021 C 
ATOM      9  C   UNL     1       0.665   0.804  -1.021  0.00  0.00    +0.078 C 
ATOM     10  C   UNL     1       0.319   2.276  -1.119  0.00  0.00    +0.141 C 
ATOM     11  N   UNL     1       1.444   3.226  -1.145  0.00  0.00    -0.315 N 
ATOM     12  C   UNL     1       2.698   2.736  -1.091  0.00  0.00    +0.137 C 
ATOM     13  S   UNL     1       4.016   3.828  -1.127  0.00  0.00    -0.018 S 
ATOM     14  N   UNL     1       2.947   1.423  -1.010  0.00  0.00    -0.289 N 
ATOM     15  C   UNL     1       4.345   0.986  -0.957  0.00  0.00    +0.137 C 
ATOM     16  H   UNL     1       1.286   4.181  -1.204  0.00  0.00    +0.149 HD
BRANCH   9  17
ATOM     17  C   UNL     1      -0.346  -0.184  -0.985  0.00  0.00    +0.339 C 
ATOM     18  O   UNL     1      -0.045  -1.363  -1.003  0.00  0.00    -0.245 OA
BRANCH  17  19
ATOM     19  O   UNL     1      -1.644   0.181  -0.937  0.00  0.00    -0.459 OA
BRANCH  19  20
ATOM     20  C   UNL     1      -2.612  -0.870  -0.909  0.00  0.00    +0.171 C 
ATOM     21  C   UNL     1      -2.907  -1.254   0.543  0.00  0.00    +0.052 C 
ATOM     22  C   UNL     1      -3.901  -0.394  -1.582  0.00  0.00    +0.052 C 
ENDBRANCH  19  20
ENDBRANCH  17  19
ENDBRANCH   9  17
ENDBRANCH   1  10
BRANCH   4  23
ATOM     23  N   UNL     1      -2.963   3.599   3.316  0.00  0.00    -0.269 N 
ATOM     24  C   UNL     1      -4.062   4.359   3.138  0.00  0.00    +0.308 C 
ATOM     25  O   UNL     1      -4.396   4.691   2.017  0.00  0.00    -0.252 OA
ATOM     26  N   UNL     1      -4.790   4.750   4.202  0.00  0.00    -0.269 N 
ATOM     27  H   UNL     1      -2.733   3.279   4.202  0.00  0.00    +0.156 HD
ATOM     28  H   UNL     1      -4.489   4.540   5.100  0.00  0.00    +0.156 HD
BRANCH  26  29
ATOM     29  C   UNL     1      -5.982   5.460   4.012  0.00  0.00    +0.035 A 
ATOM     30  C   UNL     1      -6.078   6.397   2.992  0.00  0.00    +0.025 A 
ATOM     31  C   UNL     1      -7.256   7.092   2.803  0.00  0.00    +0.022 A 
ATOM     32  C   UNL     1      -8.337   6.864   3.637  0.00  0.00    +0.041 A 
ATOM     33  C   UNL     1      -8.242   5.934   4.658  0.00  0.00    +0.022 A 
ATOM     34  C   UNL     1      -7.067   5.232   4.847  0.00  0.00    +0.025 A 
ATOM     35 CL   UNL     1      -9.814   7.744   3.402  0.00  0.00    -0.084 Cl
ENDBRANCH  26  29
ENDBRANCH   4  23
TORSDOF 6
