REMARK  Name = ZINC15730404
REMARK  5 active torsions:
REMARK  status: ('A' for Active; 'I' for Inactive)
REMARK    1  A    between atoms: C_1  and  C_2
REMARK    2  A    between atoms: C_7  and  N_8
REMARK    3  A    between atoms: N_8  and  S_9
REMARK    4  A    between atoms: S_9  and  C_12
REMARK    5  A    between atoms: C_22  and  C_25
REMARK                            x       y       z     vdW  Elec       q    Type
REMARK                         _______ _______ _______ _____ _____    ______ ____
ROOT
ATOM      1  C   UNL     1       0.778   2.506   4.598  0.00  0.00    +0.110 A 
ATOM      2  C   UNL     1       0.349   1.193   4.672  0.00  0.00    +0.030 A 
ATOM      3  C   UNL     1       0.430   0.370   3.562  0.00  0.00    +0.018 A 
ATOM      4  C   UNL     1       0.943   0.869   2.376  0.00  0.00    +0.029 A 
ATOM      5  C   UNL     1       1.374   2.191   2.301  0.00  0.00    +0.049 A 
ATOM      6  C   UNL     1       1.290   3.009   3.416  0.00  0.00    +0.053 A 
ATOM      7  N   UNL     1       1.887   2.682   1.090  0.00  0.00    -0.284 N 
ATOM      8  C   UNL     1       1.203   2.518  -0.049  0.00  0.00    +0.218 C 
ATOM      9  O   UNL     1       1.740   2.770  -1.107  0.00  0.00    -0.275 OA
ATOM     10  C   UNL     1      -0.215   2.028  -0.042  0.00  0.00    +0.110 C 
ATOM     11  C   UNL     1      -0.254   0.493  -0.141  0.00  0.00    +0.057 C 
ATOM     12  S   UNL     1       1.059  -0.157   0.946  0.00  0.00    -0.120 S 
ATOM     13  C   UNL     1      -1.617  -0.024   0.323  0.00  0.00    +0.020 C 
ATOM     14  H   UNL     1       2.740   3.143   1.079  0.00  0.00    +0.155 HD
ENDROOT
BRANCH   1  15
ATOM     15  S   UNL     1       0.669   3.543   6.018  0.00  0.00    +0.072 S 
ATOM     16  O   UNL     1       0.627   4.881   5.541  0.00  0.00    -0.150 OA
ATOM     17  O   UNL     1      -0.350   2.997   6.844  0.00  0.00    -0.150 OA
BRANCH  15  18
ATOM     18  N   UNL     1       2.091   3.382   6.852  0.00  0.00    -0.216 N 
ATOM     19  H   UNL     1       2.084   3.049   7.763  0.00  0.00    +0.174 HD
BRANCH  18  26
ATOM     20  C   UNL     1       4.395   1.836   7.479  0.00  0.00    +0.046 C 
ATOM     21  C   UNL     1       4.450   2.998   6.521  0.00  0.00    -0.028 A 
ATOM     22  C   UNL     1       5.644   3.338   5.914  0.00  0.00    +0.005 A 
ATOM     23  C   UNL     1       5.696   4.407   5.039  0.00  0.00    +0.000 A 
ATOM     24  C   UNL     1       4.554   5.137   4.764  0.00  0.00    +0.002 A 
ATOM     25  C   UNL     1       3.357   4.800   5.364  0.00  0.00    +0.025 A 
ATOM     26  C   UNL     1       3.300   3.726   6.243  0.00  0.00    +0.051 A 
ENDBRANCH  18  26
ENDBRANCH  15  18
ENDBRANCH   1  15
TORSDOF 3
