REMARK  Name = ZINC09737881
REMARK  9 active torsions:
REMARK  status: ('A' for Active; 'I' for Inactive)
REMARK    1  A    between atoms: C_1  and  O_2
REMARK    2  A    between atoms: O_2  and  C_3
REMARK    3  A    between atoms: C_8  and  N_9
REMARK    4  A    between atoms: C_14  and  N_15
REMARK    5  A    between atoms: C_14  and  N_68
REMARK    6  A    between atoms: C_18  and  C_22
REMARK    7  A    between atoms: C_18  and  C_29
REMARK    8  A    between atoms: C_22  and  C_23
REMARK    9  A    between atoms: C_29  and  C_30
REMARK                            x       y       z     vdW  Elec       q    Type
REMARK                         _______ _______ _______ _____ _____    ______ ____
ROOT
ATOM      1  N   UNL     1      -0.381   1.948   3.351  0.00  0.00    -0.241 N 
ATOM      2  C   UNL     1      -0.912   2.506   2.245  0.00  0.00    +0.245 C 
ATOM      3  O   UNL     1      -0.641   3.587   1.769  0.00  0.00    -0.273 OA
ATOM      4  C   UNL     1      -1.916   1.499   1.720  0.00  0.00    +0.120 C 
ATOM      5  N   UNL     1      -1.826   0.387   2.681  0.00  0.00    -0.284 N 
ATOM      6  C   UNL     1      -0.905   0.741   3.595  0.00  0.00    +0.308 C 
ATOM      7  O   UNL     1      -0.584   0.043   4.537  0.00  0.00    -0.252 OA
ATOM      8  H   UNL     1      -2.333  -0.441   2.659  0.00  0.00    +0.151 HD
ENDROOT
BRANCH   1   9
ATOM      9  C   UNL     1       0.644   2.583   4.183  0.00  0.00    +0.043 C 
BRANCH   9  15
ATOM     10  N   UNL     1       4.723   1.507   3.952  0.00  0.00    -0.331 N 
ATOM     11  C   UNL     1       4.332   2.835   3.459  0.00  0.00    +0.087 C 
ATOM     12  C   UNL     1       2.977   3.220   4.057  0.00  0.00    -0.057 C 
ATOM     13  C   UNL     1       2.367   0.881   4.183  0.00  0.00    -0.057 C 
ATOM     14  C   UNL     1       3.722   0.496   3.584  0.00  0.00    +0.087 C 
ATOM     15  N   UNL     1       1.976   2.208   3.661  0.00  0.00    +0.392 N 
ATOM     16  H   UNL     1       1.933   2.164   2.636  0.00  0.00    -0.079 HD
BRANCH  10  22
ATOM     17  C   UNL     1       7.117   1.857   3.903  0.00  0.00    +0.141 A 
ATOM     18  C   UNL     1       8.370   1.500   3.435  0.00  0.00    +0.047 A 
ATOM     19  C   UNL     1       8.504   0.444   2.552  0.00  0.00    +0.004 A 
ATOM     20  C   UNL     1       7.388  -0.258   2.134  0.00  0.00    +0.002 A 
ATOM     21  C   UNL     1       6.134   0.089   2.601  0.00  0.00    +0.027 A 
ATOM     22  C   UNL     1       5.992   1.151   3.482  0.00  0.00    +0.072 A 
BRANCH  17  24
ATOM     23  C   UNL     1       8.180   3.574   5.160  0.00  0.00    +0.277 C 
ATOM     24  O   UNL     1       6.984   2.895   4.772  0.00  0.00    -0.493 OA
ENDBRANCH  17  24
ENDBRANCH  10  22
ENDBRANCH   9  15
ENDBRANCH   1   9
BRANCH   4  25
ATOM     25  C   UNL     1      -1.526   1.031   0.317  0.00  0.00    +0.070 C 
BRANCH  25  26
ATOM     26  C   UNL     1      -0.164   0.387   0.363  0.00  0.00    -0.045 A 
ATOM     27  C   UNL     1       0.970   1.153   0.165  0.00  0.00    +0.004 A 
ATOM     28  C   UNL     1       2.218   0.561   0.201  0.00  0.00    +0.000 A 
ATOM     29  C   UNL     1       2.333  -0.797   0.434  0.00  0.00    +0.000 A 
ATOM     30  C   UNL     1       1.200  -1.562   0.632  0.00  0.00    +0.000 A 
ATOM     31  C   UNL     1      -0.049  -0.971   0.596  0.00  0.00    +0.004 A 
ENDBRANCH  25  26
ENDBRANCH   4  25
BRANCH   4  32
ATOM     32  C   UNL     1      -3.326   2.093   1.715  0.00  0.00    +0.070 C 
BRANCH  32  33
ATOM     33  C   UNL     1      -3.686   2.546   3.107  0.00  0.00    -0.045 A 
ATOM     34  C   UNL     1      -4.312   1.674   3.977  0.00  0.00    +0.004 A 
ATOM     35  C   UNL     1      -4.638   2.088   5.255  0.00  0.00    +0.000 A 
ATOM     36  C   UNL     1      -4.346   3.377   5.660  0.00  0.00    +0.000 A 
ATOM     37  C   UNL     1      -3.724   4.251   4.787  0.00  0.00    +0.000 A 
ATOM     38  C   UNL     1      -3.394   3.835   3.511  0.00  0.00    +0.004 A 
ENDBRANCH  32  33
ENDBRANCH   4  32
TORSDOF 8
