REMARK  Name = ZINC43287167
REMARK  8 active torsions:
REMARK  status: ('A' for Active; 'I' for Inactive)
REMARK    1  A    between atoms: C_1  and  C_2
REMARK    2  A    between atoms: C_2  and  C_3
REMARK    3  A    between atoms: C_3  and  C_5
REMARK    4  A    between atoms: C_3  and  N_24
REMARK    5  A    between atoms: C_5  and  C_7
REMARK    6  A    between atoms: C_5  and  N_13
REMARK    7  A    between atoms: C_18  and  C_20
REMARK    8  A    between atoms: N_22  and  C_23
REMARK                            x       y       z     vdW  Elec       q    Type
REMARK                         _______ _______ _______ _____ _____    ______ ____
ROOT
ATOM      1  C   UNL     1      -2.947  -2.276  -0.540  0.00  0.00    -0.045 C 
ENDROOT
BRANCH   1   2
ATOM      2  N   UNL     1      -1.582  -2.662  -0.919  0.00  0.00    +0.391 N 
ATOM      3  C   UNL     1      -1.467  -4.125  -0.907  0.00  0.00    -0.077 C 
ATOM      4  C   UNL     1      -0.026  -4.531  -1.222  0.00  0.00    -0.019 C 
ATOM      5  C   UNL     1       0.358  -3.998  -2.606  0.00  0.00    -0.003 C 
ATOM      6  C   UNL     1       0.163  -2.479  -2.630  0.00  0.00    -0.006 C 
ATOM      7  C   UNL     1      -1.285  -2.150  -2.262  0.00  0.00    +0.020 C 
ATOM      8  H   UNL     1      -0.927  -2.270  -0.259  0.00  0.00    -0.080 HD
BRANCH   7   9
ATOM      9  C   UNL     1      -1.481  -0.656  -2.284  0.00  0.00    +0.199 C 
ATOM     10  O   UNL     1      -1.020   0.029  -1.396  0.00  0.00    -0.278 OA
ATOM     11  N   UNL     1      -2.168  -0.081  -3.291  0.00  0.00    -0.320 N 
ATOM     12  C   UNL     1      -2.358   1.371  -3.312  0.00  0.00    +0.128 C 
ATOM     13  H   UNL     1      -2.536  -0.629  -4.002  0.00  0.00    +0.148 HD
ENDBRANCH   7   9
ENDBRANCH   1   2
BRANCH   1  14
ATOM     14  C   UNL     1      -3.435  -3.176   0.566  0.00  0.00    -0.024 A 
ATOM     15  C   UNL     1      -4.662  -3.725   0.741  0.00  0.00    +0.024 A 
ATOM     16  C   UNL     1      -4.886  -4.530   1.843  0.00  0.00    +0.025 A 
ATOM     17  C   UNL     1      -3.871  -4.746   2.716  0.00  0.00    +0.060 A 
ATOM     18  S   UNL     1      -2.545  -3.803   1.980  0.00  0.00    -0.102 S 
ATOM     19 BR   UNL     1      -6.581  -5.317   2.129  0.00  0.00    -0.050 Br
ENDBRANCH   1  14
BRANCH   1  20
ATOM     20  C   UNL     1      -2.951  -0.825  -0.055  0.00  0.00    -0.085 C 
BRANCH  20  21
ATOM     21  N   UNL     1      -4.286  -0.482   0.454  0.00  0.00    +0.379 N 
ATOM     22  H   UNL     1      -4.965  -0.592  -0.284  0.00  0.00    -0.090 HD
ATOM     23  H   UNL     1      -4.520  -1.094   1.221  0.00  0.00    -0.090 HD
ATOM     24  H   UNL     1      -4.288   0.475   0.774  0.00  0.00    -0.090 HD
ENDBRANCH  20  21
BRANCH  20  26
ATOM     25  C   UNL     1      -1.870   0.808   1.496  0.00  0.00    +0.002 C 
ATOM     26  C   UNL     1      -1.921  -0.658   1.063  0.00  0.00    -0.021 C 
ENDBRANCH  20  26
ENDBRANCH   1  20
TORSDOF 6
