REMARK  Name = ZINC62712386
REMARK  1 active torsions:
REMARK  status: ('A' for Active; 'I' for Inactive)
REMARK    1  A    between atoms: C_12  and  C_14
REMARK                            x       y       z     vdW  Elec       q    Type
REMARK                         _______ _______ _______ _____ _____    ______ ____
ROOT
ATOM      1  C   UNL     1      -0.017   1.378   0.010  0.00  0.00    +0.003 A 
ATOM      2  C   UNL     1       1.170   2.089   0.002  0.00  0.00    +0.006 A 
ATOM      3  C   UNL     1       2.378   1.420  -0.017  0.00  0.00    -0.009 A 
ATOM      4  C   UNL     1       2.402   0.033  -0.037  0.00  0.00    +0.073 A 
ATOM      5  C   UNL     1       1.208  -0.680  -0.020  0.00  0.00    +0.145 A 
ATOM      6  C   UNL     1       0.002  -0.004   0.002  0.00  0.00    +0.040 A 
ATOM      7  F   UNL     1       1.227  -2.031  -0.026  0.00  0.00    -0.204 F 
ATOM      8  N   UNL     1       3.622  -0.649  -0.094  0.00  0.00    -0.283 N 
ATOM      9  C   UNL     1       4.759   0.000  -0.399  0.00  0.00    +0.218 C 
ATOM     10  O   UNL     1       5.819  -0.585  -0.338  0.00  0.00    -0.275 OA
ATOM     11  C   UNL     1       4.728   1.447  -0.815  0.00  0.00    +0.115 C 
ATOM     12  C   UNL     1       3.669   2.197  -0.006  0.00  0.00    +0.143 C 
ATOM     13  H   UNL     1       3.648  -1.602   0.089  0.00  0.00    +0.155 HD
ENDROOT
BRANCH  12  14
ATOM     14  C   UNL     1       4.145   2.359   1.415  0.00  0.00    +0.364 C 
ATOM     15  O   UNL     1       5.338   2.439   1.653  0.00  0.00    -0.246 OA
ATOM     16  O   UNL     1       3.337   2.410   2.326  0.00  0.00    -0.246 OA
ENDBRANCH  12  14
TORSDOF 1
