REMARK  Name = ZINC21229062
REMARK  11 active torsions:
REMARK  status: ('A' for Active; 'I' for Inactive)
REMARK    1  A    between atoms: C_1  and  C_2
REMARK    2  A    between atoms: C_2  and  C_4
REMARK    3  A    between atoms: C_2  and  S_16
REMARK    4  A    between atoms: N_6  and  C_7
REMARK    5  A    between atoms: C_10  and  C_13
REMARK    6  A    between atoms: S_16  and  C_17
REMARK    7  A    between atoms: N_30  and  C_31
REMARK    8  A    between atoms: C_31  and  C_32
REMARK    9  A    between atoms: C_32  and  C_33
REMARK   10  A    between atoms: C_33  and  C_34
REMARK   11  A    between atoms: C_33  and  C_35
REMARK                            x       y       z     vdW  Elec       q    Type
REMARK                         _______ _______ _______ _____ _____    ______ ____
ROOT
ATOM      1  C   UNL     1      -2.365  -0.107  -1.526  0.00  0.00    +0.173 A 
ATOM      2  N   UNL     1      -1.608   0.575  -2.361  0.00  0.00    -0.216 NA
ATOM      3  C   UNL     1      -2.083   0.985  -3.531  0.00  0.00    +0.117 A 
ATOM      4  C   UNL     1      -3.401   0.717  -3.937  0.00  0.00    +0.076 A 
ATOM      5  C   UNL     1      -3.782   1.234  -5.253  0.00  0.00    -0.023 A 
ATOM      6  C   UNL     1      -2.840   1.910  -5.941  0.00  0.00    -0.004 A 
ATOM      7  S   UNL     1      -1.409   1.900  -4.894  0.00  0.00    -0.073 S 
ATOM      8  C   UNL     1      -2.977   2.532  -7.297  0.00  0.00    +0.043 C 
ATOM      9  C   UNL     1      -4.244   1.973  -7.961  0.00  0.00    +0.005 C 
ATOM     10  C   UNL     1      -5.398   2.046  -6.957  0.00  0.00    +0.005 C 
ATOM     11  C   UNL     1      -5.177   1.028  -5.837  0.00  0.00    +0.037 C 
ATOM     12  C   UNL     1      -4.200  -0.025  -3.011  0.00  0.00    +0.263 A 
ATOM     13  O   UNL     1      -5.356  -0.305  -3.279  0.00  0.00    -0.267 OA
ATOM     14  N   UNL     1      -3.656  -0.415  -1.844  0.00  0.00    -0.287 N 
ENDROOT
BRANCH   1  15
ATOM     15  S   UNL     1      -1.701  -0.635   0.018  0.00  0.00    -0.075 S 
BRANCH  15  17
ATOM     16  C   UNL     1      -0.016   1.520  -0.004  0.00  0.00    +0.029 C 
ATOM     17  C   UNL     1       0.002  -0.010  -0.001  0.00  0.00    +0.137 C 
BRANCH  17  18
ATOM     18  C   UNL     1       0.731  -0.501   1.224  0.00  0.00    +0.230 C 
ATOM     19  O   UNL     1       0.105  -0.880   2.191  0.00  0.00    -0.274 OA
ATOM     20  N   UNL     1       2.079  -0.519   1.244  0.00  0.00    -0.285 N 
ATOM     21  H   UNL     1       2.579  -0.279   0.448  0.00  0.00    +0.155 HD
BRANCH  20  22
ATOM     22  C   UNL     1       2.753  -0.881   2.409  0.00  0.00    +0.033 A 
ATOM     23  C   UNL     1       2.224  -1.862   3.241  0.00  0.00    +0.024 A 
ATOM     24  C   UNL     1       2.888  -2.223   4.392  0.00  0.00    +0.015 A 
ATOM     25  C   UNL     1       4.095  -1.602   4.724  0.00  0.00    +0.037 A 
ATOM     26  C   UNL     1       4.625  -0.618   3.885  0.00  0.00    +0.015 A 
ATOM     27  C   UNL     1       3.958  -0.266   2.733  0.00  0.00    +0.024 A 
BRANCH  25  28
ATOM     28  C   UNL     1       4.809  -1.986   5.957  0.00  0.00    +0.242 C 
ATOM     29  O   UNL     1       4.347  -2.842   6.686  0.00  0.00    -0.270 OA
ATOM     30  N   UNL     1       5.974  -1.387   6.276  0.00  0.00    -0.325 N 
ATOM     31  H   UNL     1       6.343  -0.703   5.694  0.00  0.00    +0.145 HD
ATOM     32  H   UNL     1       6.443  -1.639   7.086  0.00  0.00    +0.145 HD
ENDBRANCH  25  28
ENDBRANCH  20  22
ENDBRANCH  17  18
ENDBRANCH  15  17
ENDBRANCH   1  15
BRANCH  14  33
ATOM     33  C   UNL     1      -4.467  -1.181  -0.894  0.00  0.00    +0.127 C 
BRANCH  33  34
ATOM     34  C   UNL     1      -5.193  -0.219   0.049  0.00  0.00    +0.025 C 
BRANCH  34  35
ATOM     35  C   UNL     1      -6.040  -1.018   1.041  0.00  0.00    -0.016 C 
ATOM     36  C   UNL     1      -5.123  -1.850   1.940  0.00  0.00    +0.007 C 
ATOM     37  C   UNL     1      -6.862  -0.056   1.901  0.00  0.00    +0.007 C 
ENDBRANCH  34  35
ENDBRANCH  33  34
ENDBRANCH  14  33
TORSDOF 8
