REMARK  Name = ZINC39769879
REMARK  5 active torsions:
REMARK  status: ('A' for Active; 'I' for Inactive)
REMARK    1  A    between atoms: C_3  and  C_8
REMARK    2  A    between atoms: C_5  and  O_7
REMARK    3  A    between atoms: N_9  and  N_10
REMARK    4  A    between atoms: C_11  and  C_13
REMARK    5  A    between atoms: C_16  and  C_19
REMARK                            x       y       z     vdW  Elec       q    Type
REMARK                         _______ _______ _______ _____ _____    ______ ____
ROOT
ATOM      1  C   UNL     1       6.113   6.301  -0.025  0.00  0.00    +0.240 C 
ATOM      2  C   UNL     1       6.657   6.422  -1.438  0.00  0.00    +0.036 C 
ATOM      3  C   UNL     1       6.673   7.738  -1.663  0.00  0.00    +0.068 C 
ATOM      4  N   UNL     1       6.218   8.416  -0.587  0.00  0.00    -0.158 NA
ATOM      5  N   UNL     1       5.887   7.702   0.368  0.00  0.00    -0.170 NA
ENDROOT
BRANCH   3   6
ATOM      6  C   UNL     1       7.138   8.380  -2.945  0.00  0.00    +0.015 C 
ATOM      7  C   UNL     1       7.580   7.294  -3.929  0.00  0.00    +0.016 C 
ATOM      8  C   UNL     1       8.051   7.946  -5.230  0.00  0.00    -0.010 C 
ATOM      9  C   UNL     1       6.903   8.752  -5.842  0.00  0.00    +0.007 C 
ATOM     10  C   UNL     1       6.461   9.838  -4.859  0.00  0.00    -0.010 C 
ATOM     11  C   UNL     1       5.990   9.186  -3.557  0.00  0.00    +0.016 C 
ATOM     12  C   UNL     1       7.639  10.770  -4.565  0.00  0.00    +0.007 C 
ATOM     13  C   UNL     1       8.787   9.964  -3.953  0.00  0.00    -0.010 C 
ATOM     14  C   UNL     1       9.228   8.878  -4.936  0.00  0.00    +0.007 C 
ATOM     15  C   UNL     1       8.315   9.312  -2.652  0.00  0.00    +0.016 C 
ENDBRANCH   3   6
BRANCH   1  17
ATOM     16  N   UNL     1       4.838   4.181  -0.023  0.00  0.00    -0.205 N 
ATOM     17  C   UNL     1       4.819   5.529  -0.016  0.00  0.00    +0.262 C 
ATOM     18  O   UNL     1       3.760   6.120  -0.003  0.00  0.00    -0.271 OA
ATOM     19  H   UNL     1       5.685   3.709  -0.034  0.00  0.00    +0.177 HD
BRANCH  16  21
ATOM     20  C   UNL     1       3.654   2.166  -0.022  0.00  0.00    +0.138 C 
ATOM     21  N   UNL     1       3.635   3.464  -0.015  0.00  0.00    -0.188 NA
BRANCH  20  24
ATOM     22  C   UNL     1      -0.017   1.378   0.010  0.00  0.00    +0.004 A 
ATOM     23  C   UNL     1       1.166   2.089   0.002  0.00  0.00    +0.010 A 
ATOM     24  C   UNL     1       2.387   1.411  -0.013  0.00  0.00    -0.002 A 
ATOM     25  C   UNL     1       2.404   0.015  -0.021  0.00  0.00    +0.054 A 
ATOM     26  C   UNL     1       1.211  -0.688  -0.013  0.00  0.00    +0.117 A 
ATOM     27  C   UNL     1       0.002  -0.004   0.002  0.00  0.00    +0.045 A 
BRANCH  26  28
ATOM     28  O   UNL     1       1.223  -2.046  -0.021  0.00  0.00    -0.507 OA
ATOM     29  H   UNL     1       1.235  -2.445   0.860  0.00  0.00    +0.292 HD
ENDBRANCH  26  28
ENDBRANCH  20  24
ENDBRANCH  16  21
ENDBRANCH   1  17
TORSDOF 5
