REMARK  Name = ZINC06408364
REMARK  13 active torsions:
REMARK  status: ('A' for Active; 'I' for Inactive)
REMARK    1  A    between atoms: C_1  and  C_2
REMARK    2  A    between atoms: C_9  and  C_14
REMARK    3  A    between atoms: C_14  and  N_15
REMARK    4  A    between atoms: N_15  and  C_16
REMARK    5  A    between atoms: N_15  and  C_26
REMARK    6  A    between atoms: C_16  and  C_17
REMARK    7  A    between atoms: C_26  and  N_28
REMARK    8  A    between atoms: N_28  and  C_29
REMARK    9  A    between atoms: C_29  and  C_30
REMARK   10  A    between atoms: C_30  and  C_31
REMARK   11  A    between atoms: C_31  and  N_63
REMARK   12  A    between atoms: C_32  and  N_63
REMARK   13  A    between atoms: C_33  and  N_63
REMARK                            x       y       z     vdW  Elec       q    Type
REMARK                         _______ _______ _______ _____ _____    ______ ____
ROOT
ATOM      1  N   UNL     1      -2.925   0.716   1.401  0.00  0.00    -0.304 N 
ENDROOT
BRANCH   1   2
ATOM      2  C   UNL     1      -2.515  -0.404   2.028  0.00  0.00    +0.133 C 
ATOM      3  S   UNL     1      -2.997  -0.706   3.643  0.00  0.00    -0.019 S 
BRANCH   2   4
ATOM      4  N   UNL     1      -1.726  -1.286   1.384  0.00  0.00    -0.326 N 
ATOM      5  H   UNL     1      -1.453  -1.115   0.469  0.00  0.00    +0.148 HD
BRANCH   4   6
ATOM      6  C   UNL     1      -1.280  -2.504   2.066  0.00  0.00    +0.101 C 
BRANCH   6   7
ATOM      7  C   UNL     1      -0.403  -3.326   1.120  0.00  0.00    +0.000 C 
BRANCH   7   8
ATOM      8  C   UNL     1       0.063  -4.598   1.832  0.00  0.00    -0.078 C 
BRANCH   8  11
ATOM      9  C   UNL     1       2.156  -4.680   0.618  0.00  0.00    -0.097 C 
ATOM     10  C   UNL     1       1.176  -6.719   1.482  0.00  0.00    -0.097 C 
ATOM     11  N   UNL     1       0.891  -5.391   0.899  0.00  0.00    +0.376 N 
ATOM     12  H   UNL     1       0.376  -5.515   0.020  0.00  0.00    -0.083 HD
ENDBRANCH   8  11
ENDBRANCH   7   8
ENDBRANCH   6   7
ENDBRANCH   4   6
ENDBRANCH   2   4
ENDBRANCH   1   2
BRANCH   1  13
ATOM     13  C   UNL     1      -3.783   1.675   2.101  0.00  0.00    +0.147 C 
BRANCH  13  22
ATOM     14  C   UNL     1     -10.128  -1.684   4.119  0.00  0.00    +0.044 C 
ATOM     15  C   UNL     1      -9.337  -0.842   3.152  0.00  0.00    -0.050 A 
ATOM     16  C   UNL     1      -9.944  -0.367   1.997  0.00  0.00    +0.005 A 
ATOM     17  C   UNL     1      -9.240   0.405   1.098  0.00  0.00    +0.026 A 
ATOM     18  C   UNL     1      -7.906   0.711   1.349  0.00  0.00    +0.049 A 
ATOM     19  C   UNL     1      -7.294   0.228   2.520  0.00  0.00    -0.001 A 
ATOM     20  C   UNL     1      -8.029  -0.553   3.418  0.00  0.00    +0.013 A 
ATOM     21  C   UNL     1      -5.891   0.557   2.775  0.00  0.00    +0.020 A 
ATOM     22  C   UNL     1      -5.229   1.319   1.869  0.00  0.00    +0.035 A 
ATOM     23  C   UNL     1      -5.891   1.783   0.712  0.00  0.00    +0.254 A 
ATOM     24  O   UNL     1      -5.279   2.470  -0.087  0.00  0.00    -0.268 OA
ATOM     25  N   UNL     1      -7.178   1.482   0.467  0.00  0.00    -0.322 N 
ATOM     26  H   UNL     1      -7.602   1.814  -0.340  0.00  0.00    +0.169 HD
ENDBRANCH  13  22
ENDBRANCH   1  13
BRANCH   1  27
ATOM     27  C   UNL     1      -2.513   0.975   0.019  0.00  0.00    +0.142 C 
BRANCH  27  28
ATOM     28  C   UNL     1      -1.220   1.749   0.017  0.00  0.00    -0.026 A 
ATOM     29  C   UNL     1      -0.013   1.076   0.008  0.00  0.00    +0.009 A 
ATOM     30  C   UNL     1       1.176   1.782   0.000  0.00  0.00    +0.050 A 
ATOM     31  C   UNL     1       1.160   3.167   0.008  0.00  0.00    +0.166 A 
ATOM     32  C   UNL     1      -0.057   3.845   0.022  0.00  0.00    +0.167 A 
ATOM     33  C   UNL     1      -1.244   3.131   0.031  0.00  0.00    +0.054 A 
ATOM     34  O   UNL     1       0.192   5.188   0.026  0.00  0.00    -0.453 OA
ATOM     35  C   UNL     1       1.561   5.326  -0.398  0.00  0.00    +0.466 C 
ATOM     36  O   UNL     1       2.171   4.084   0.002  0.00  0.00    -0.453 OA
ENDBRANCH  27  28
ENDBRANCH   1  27
TORSDOF 10
