REMARK  Name = ZINC57773636
REMARK  12 active torsions:
REMARK  status: ('A' for Active; 'I' for Inactive)
REMARK    1  A    between atoms: C_1  and  N_2
REMARK    2  A    between atoms: N_2  and  C_3
REMARK    3  A    between atoms: N_2  and  C_4
REMARK    4  A    between atoms: C_4  and  C_5
REMARK    5  A    between atoms: C_17  and  C_19
REMARK    6  A    between atoms: C_19  and  C_21
REMARK    7  A    between atoms: C_19  and  N_28
REMARK    8  A    between atoms: C_21  and  C_22
REMARK    9  A    between atoms: C_29  and  C_31
REMARK   10  A    between atoms: C_31  and  N_32
REMARK   11  A    between atoms: N_32  and  C_33
REMARK   12  A    between atoms: N_32  and  C_34
REMARK                            x       y       z     vdW  Elec       q    Type
REMARK                         _______ _______ _______ _____ _____    ______ ____
ROOT
ATOM      1  C   UNL     1      -1.875  -2.141  -0.686  0.00  0.00    +0.097 C 
ATOM      2  C   UNL     1      -3.331  -1.996  -1.106  0.00  0.00    +0.249 C 
ATOM      3  O   UNL     1      -3.772  -3.182  -1.776  0.00  0.00    -0.490 OA
ATOM      4  C   UNL     1      -3.586  -3.208  -3.118  0.00  0.00    +0.125 A 
ATOM      5  C   UNL     1      -4.672  -3.122  -3.979  0.00  0.00    +0.046 A 
ATOM      6  C   UNL     1      -4.468  -3.103  -5.345  0.00  0.00    +0.004 A 
ATOM      7  C   UNL     1      -3.186  -3.167  -5.860  0.00  0.00    +0.001 A 
ATOM      8  C   UNL     1      -2.101  -3.270  -5.006  0.00  0.00    +0.009 A 
ATOM      9  C   UNL     1      -2.306  -3.309  -3.645  0.00  0.00    +0.012 A 
ATOM     10  C   UNL     1      -1.146  -3.522  -2.693  0.00  0.00    +0.147 C 
ATOM     11  N   UNL     1      -1.006  -2.332  -1.848  0.00  0.00    -0.291 N 
ATOM     12  C   UNL     1      -0.070  -1.408  -2.143  0.00  0.00    +0.237 C 
ATOM     13  O   UNL     1       0.097  -0.458  -1.407  0.00  0.00    -0.274 OA
ENDROOT
BRANCH   1  14
ATOM     14  C   UNL     1      -1.442  -0.880   0.064  0.00  0.00    -0.054 C 
BRANCH  14  16
ATOM     15  C   UNL     1       0.359   0.138   1.279  0.00  0.00    -0.097 C 
ATOM     16  N   UNL     1      -0.154  -1.123   0.728  0.00  0.00    +0.377 N 
ATOM     17  C   UNL     1      -0.340  -2.094   1.815  0.00  0.00    -0.097 C 
ATOM     18  H   UNL     1       0.506  -1.491   0.058  0.00  0.00    -0.083 HD
ENDBRANCH  14  16
ENDBRANCH   1  14
BRANCH  12  19
ATOM     19  C   UNL     1       0.768  -1.554  -3.386  0.00  0.00    +0.163 C 
BRANCH  19  20
ATOM     20  N   UNL     1       1.143  -0.228  -3.882  0.00  0.00    -0.305 N 
ATOM     21  C   UNL     1       1.436  -0.054  -5.186  0.00  0.00    +0.197 C 
ATOM     22  O   UNL     1       1.389  -0.995  -5.949  0.00  0.00    -0.278 OA
ATOM     23  H   UNL     1       1.180   0.525  -3.272  0.00  0.00    +0.149 HD
BRANCH  21  24
ATOM     24  C   UNL     1       1.821   1.311  -5.696  0.00  0.00    +0.018 C 
BRANCH  24  25
ATOM     25  N   UNL     1       2.090   1.237  -7.138  0.00  0.00    +0.382 N 
ATOM     26  C   UNL     1       2.348   2.586  -7.658  0.00  0.00    -0.096 C 
ATOM     27  C   UNL     1       3.265   0.388  -7.375  0.00  0.00    -0.096 C 
ATOM     28  H   UNL     1       1.289   0.843  -7.609  0.00  0.00    -0.082 HD
ENDBRANCH  24  25
ENDBRANCH  21  24
ENDBRANCH  19  20
BRANCH  19  29
ATOM     29  C   UNL     1       2.032  -2.352  -3.058  0.00  0.00    +0.067 C 
BRANCH  29  30
ATOM     30  C   UNL     1       2.796  -2.627  -4.327  0.00  0.00    -0.045 A 
ATOM     31  C   UNL     1       2.535  -3.773  -5.056  0.00  0.00    +0.004 A 
ATOM     32  C   UNL     1       3.236  -4.025  -6.221  0.00  0.00    +0.000 A 
ATOM     33  C   UNL     1       4.198  -3.133  -6.656  0.00  0.00    +0.000 A 
ATOM     34  C   UNL     1       4.458  -1.987  -5.928  0.00  0.00    +0.000 A 
ATOM     35  C   UNL     1       3.754  -1.732  -4.766  0.00  0.00    +0.004 A 
ENDBRANCH  29  30
ENDBRANCH  19  29
ENDBRANCH  12  19
TORSDOF 8
