REMARK  Name = ZINC39928337
REMARK  11 active torsions:
REMARK  status: ('A' for Active; 'I' for Inactive)
REMARK    1  A    between atoms: C_1  and  C_2
REMARK    2  A    between atoms: C_2  and  O_3
REMARK    3  A    between atoms: O_3  and  C_4
REMARK    4  A    between atoms: C_4  and  C_6
REMARK    5  A    between atoms: N_10  and  C_29
REMARK    6  A    between atoms: C_15  and  N_17
REMARK    7  A    between atoms: C_18  and  C_20
REMARK    8  A    between atoms: C_20  and  S_21
REMARK    9  A    between atoms: S_21  and  C_22
REMARK   10  A    between atoms: C_25  and  C_28
REMARK   11  A    between atoms: C_29  and  C_30
REMARK                            x       y       z     vdW  Elec       q    Type
REMARK                         _______ _______ _______ _____ _____    ______ ____
ROOT
ATOM      1  C   UNL     1       1.451  -2.345  -2.520  0.00  0.00    +0.067 C 
ATOM      2  C   UNL     1       1.556  -3.637  -2.691  0.00  0.00    -0.048 C 
ATOM      3  C   UNL     1       0.916  -4.713  -1.812  0.00  0.00    +0.014 C 
ATOM      4  C   UNL     1       1.529  -6.041  -2.271  0.00  0.00    -0.074 C 
ATOM      5  N   UNL     1       1.254  -6.327  -3.673  0.00  0.00    +0.383 N 
ATOM      6  C   UNL     1       1.392  -5.179  -4.569  0.00  0.00    -0.060 C 
ATOM      7  C   UNL     1       2.308  -4.128  -3.939  0.00  0.00    +0.058 C 
ATOM      8  S   UNL     1       2.319  -2.601  -4.961  0.00  0.00    -0.128 S 
ATOM      9  C   UNL     1       2.035  -1.420  -3.573  0.00  0.00    +0.169 C 
ATOM     10  H   UNL     1       1.886  -7.050  -3.982  0.00  0.00    -0.081 HD
ENDROOT
BRANCH   9  11
ATOM     11  N   UNL     1       3.297  -0.831  -3.117  0.00  0.00    -0.299 N 
ATOM     12  C   UNL     1       4.357  -0.784  -3.948  0.00  0.00    +0.224 C 
ATOM     13  O   UNL     1       4.267  -1.228  -5.072  0.00  0.00    -0.275 OA
ATOM     14  H   UNL     1       3.370  -0.476  -2.217  0.00  0.00    +0.150 HD
BRANCH  12  15
ATOM     15  C   UNL     1       5.655  -0.178  -3.479  0.00  0.00    +0.173 C 
BRANCH  15  16
ATOM     16  S   UNL     1       6.879  -0.262  -4.815  0.00  0.00    -0.077 S 
BRANCH  16  17
ATOM     17  C   UNL     1       8.321   0.474  -4.120  0.00  0.00    +0.185 A 
ATOM     18  H   UNL     1       9.733   0.373  -5.646  0.00  0.00    +0.191 HD
ATOM     19  N   UNL     1       8.433   0.959  -2.901  0.00  0.00    -0.206 NA
ATOM     20  C   UNL     1       9.665   1.437  -2.719  0.00  0.00    +0.149 A 
ATOM     21  N   UNL     1      10.356   1.266  -3.813  0.00  0.00    -0.157 NA
ATOM     22  N   UNL     1       9.510   0.636  -4.740  0.00  0.00    -0.254 N 
ATOM     23  C   UNL     1      10.176   2.074  -1.452  0.00  0.00    +0.090 C 
ENDBRANCH  16  17
ENDBRANCH  15  16
ENDBRANCH  12  15
ENDBRANCH   9  11
BRANCH   1  24
ATOM     24  C   UNL     1       0.776  -1.799  -1.335  0.00  0.00    +0.338 C 
ATOM     25  O   UNL     1       0.312  -2.550  -0.500  0.00  0.00    -0.245 OA
BRANCH  24  26
ATOM     26  O   UNL     1       0.671  -0.465  -1.174  0.00  0.00    -0.462 OA
BRANCH  26  28
ATOM     27  C   UNL     1      -0.019   1.526   0.010  0.00  0.00    +0.048 C 
ATOM     28  C   UNL     1       0.002  -0.004   0.002  0.00  0.00    +0.229 C 
ENDBRANCH  26  28
ENDBRANCH  24  26
ENDBRANCH   1  24
BRANCH   5  29
ATOM     29  C   UNL     1      -0.119  -6.839  -3.783  0.00  0.00    -0.043 C 
BRANCH  29  30
ATOM     30  C   UNL     1      -0.220  -8.161  -3.067  0.00  0.00    -0.064 A 
ATOM     31  C   UNL     1       0.033  -9.338  -3.748  0.00  0.00    +0.002 A 
ATOM     32  C   UNL     1      -0.060 -10.550  -3.091  0.00  0.00    +0.000 A 
ATOM     33  C   UNL     1      -0.406 -10.587  -1.753  0.00  0.00    +0.000 A 
ATOM     34  C   UNL     1      -0.657  -9.411  -1.071  0.00  0.00    +0.000 A 
ATOM     35  C   UNL     1      -0.560  -8.198  -1.727  0.00  0.00    +0.002 A 
ENDBRANCH  29  30
ENDBRANCH   5  29
TORSDOF 9
