REMARK  Name = ZINC24616811
REMARK  9 active torsions:
REMARK  status: ('A' for Active; 'I' for Inactive)
REMARK    1  A    between atoms: C_1  and  C_2
REMARK    2  A    between atoms: C_6  and  C_8
REMARK    3  A    between atoms: N_10  and  C_11
REMARK    4  A    between atoms: N_10  and  C_19
REMARK    5  A    between atoms: C_11  and  C_12
REMARK    6  A    between atoms: C_12  and  C_13
REMARK    7  A    between atoms: C_20  and  N_35
REMARK    8  A    between atoms: N_21  and  C_28
REMARK    9  A    between atoms: C_28  and  C_29
REMARK                            x       y       z     vdW  Elec       q    Type
REMARK                         _______ _______ _______ _____ _____    ______ ____
ROOT
ATOM      1  C   UNL     1       1.260   1.830   0.277  0.00  0.00    +0.140 A 
ATOM      2  C   UNL     1       0.763   0.980  -0.691  0.00  0.00    +0.128 A 
ATOM      3  N   UNL     1       0.898  -0.379  -0.524  0.00  0.00    -0.276 N 
ATOM      4  C   UNL     1       1.506  -0.874   0.569  0.00  0.00    +0.331 A 
ATOM      5  O   UNL     1       1.615  -2.078   0.698  0.00  0.00    -0.246 OA
ATOM      6  N   UNL     1       1.995  -0.061   1.523  0.00  0.00    -0.273 N 
ATOM      7  H   UNL     1       2.489  -0.487   2.409  0.00  0.00    +0.173 HD
ATOM      8  C   UNL     1       1.890   1.277   1.408  0.00  0.00    +0.277 A 
ATOM      9  O   UNL     1       2.332   2.005   2.281  0.00  0.00    -0.266 OA
ENDROOT
BRANCH   1  12
ATOM     10  C   UNL     1       2.231   3.978  -0.099  0.00  0.00    +0.269 C 
ATOM     11  O   UNL     1       2.143   5.191  -0.121  0.00  0.00    -0.268 OA
ATOM     12  N   UNL     1       1.137   3.227   0.135  0.00  0.00    -0.259 N 
BRANCH  10  18
ATOM     13  C   UNL     1       4.775  -0.112  -0.773  0.00  0.00    +0.065 C 
ATOM     14  C   UNL     1       4.753   1.390  -0.650  0.00  0.00    +0.039 A 
ATOM     15  C   UNL     1       5.937   2.102  -0.755  0.00  0.00    +0.023 A 
ATOM     16  C   UNL     1       5.912   3.483  -0.641  0.00  0.00    +0.004 A 
ATOM     17  C   UNL     1       4.692   4.107  -0.431  0.00  0.00    +0.033 A 
ATOM     18  C   UNL     1       3.542   3.328  -0.330  0.00  0.00    +0.126 A 
ATOM     19  N   UNL     1       3.610   2.007  -0.445  0.00  0.00    -0.247 NA
ENDBRANCH  10  18
BRANCH  12  20
ATOM     20  C   UNL     1      -0.178   3.862   0.241  0.00  0.00    +0.118 C 
BRANCH  20  21
ATOM     21  C   UNL     1      -0.493   4.139   1.713  0.00  0.00    +0.050 C 
BRANCH  21  22
ATOM     22  C   UNL     1      -1.895   4.680   1.833  0.00  0.00    -0.072 C 
ATOM     23  C   UNL     1      -2.845   3.846   2.109  0.00  0.00    -0.028 C 
ATOM     24  C   UNL     1      -4.288   4.232   2.250  0.00  0.00    +0.027 C 
ATOM     25  C   UNL     1      -4.412   5.745   2.449  0.00  0.00    +0.004 C 
ATOM     26  C   UNL     1      -3.580   6.445   1.367  0.00  0.00    +0.005 C 
ATOM     27  C   UNL     1      -2.101   6.153   1.633  0.00  0.00    +0.030 C 
ENDBRANCH  21  22
ENDBRANCH  20  21
ENDBRANCH  12  20
ENDBRANCH   1  12
BRANCH   2  28
ATOM     28  N   UNL     1       0.142   1.485  -1.808  0.00  0.00    -0.343 N 
ATOM     29  H   UNL     1      -0.251   0.801  -2.575  0.00  0.00    +0.144 HD
ATOM     30  H   UNL     1       0.038   2.572  -1.935  0.00  0.00    +0.144 HD
ENDBRANCH   2  28
BRANCH   3  31
ATOM     31  C   UNL     1       0.376  -1.293  -1.543  0.00  0.00    +0.163 C 
BRANCH  31  32
ATOM     32  C   UNL     1      -1.052  -1.647  -1.216  0.00  0.00    -0.028 A 
ATOM     33  C   UNL     1      -1.328  -2.747  -0.426  0.00  0.00    +0.005 A 
ATOM     34  C   UNL     1      -2.638  -3.069  -0.122  0.00  0.00    +0.000 A 
ATOM     35  C   UNL     1      -3.672  -2.296  -0.616  0.00  0.00    +0.000 A 
ATOM     36  C   UNL     1      -3.396  -1.199  -1.410  0.00  0.00    +0.000 A 
ATOM     37  C   UNL     1      -2.086  -0.874  -1.710  0.00  0.00    +0.005 A 
ENDBRANCH  31  32
ENDBRANCH   3  31
TORSDOF 8
