REMARK  Name = ZINC38959326
REMARK  5 active torsions:
REMARK  status: ('A' for Active; 'I' for Inactive)
REMARK    1  A    between atoms: C_4  and  C_7
REMARK    2  A    between atoms: C_10  and  N_31
REMARK    3  A    between atoms: C_17  and  S_19
REMARK    4  A    between atoms: S_19  and  C_20
REMARK    5  A    between atoms: C_22  and  C_27
REMARK                            x       y       z     vdW  Elec       q    Type
REMARK                         _______ _______ _______ _____ _____    ______ ____
ROOT
ATOM      1  C   UNL     1       3.223  -0.609  -0.121  0.00  0.00    -0.009 C 
ATOM      2  C   UNL     1       4.256   0.324  -0.245  0.00  0.00    +0.004 A 
ATOM      3  C   UNL     1       3.973   1.697  -0.407  0.00  0.00    +0.042 A 
ATOM      4  C   UNL     1       4.997   2.584  -0.525  0.00  0.00    +0.127 A 
ATOM      5  C   UNL     1       6.325   2.165  -0.489  0.00  0.00    +0.034 A 
ATOM      6  C   UNL     1       6.662   0.855  -0.335  0.00  0.00    +0.026 A 
ATOM      7  C   UNL     1       5.654  -0.118  -0.206  0.00  0.00    +0.041 A 
ATOM      8  N   UNL     1       5.986  -1.405  -0.054  0.00  0.00    -0.284 N 
ATOM      9  C   UNL     1       5.103  -2.375   0.072  0.00  0.00    +0.235 C 
ATOM     10  O   UNL     1       5.478  -3.525   0.207  0.00  0.00    -0.274 OA
ATOM     11  C   UNL     1       3.624  -2.061   0.056  0.00  0.00    +0.171 C 
ATOM     12  H   UNL     1       6.928  -1.637  -0.036  0.00  0.00    +0.155 HD
ENDROOT
BRANCH   1  16
ATOM     13  C   UNL     1      -0.801   0.554  -0.217  0.00  0.00    +0.000 A 
ATOM     14  C   UNL     1      -0.297  -0.263  -1.216  0.00  0.00    +0.001 A 
ATOM     15  C   UNL     1       1.024  -0.650  -1.194  0.00  0.00    +0.008 A 
ATOM     16  C   UNL     1       1.861  -0.215  -0.154  0.00  0.00    -0.020 A 
ATOM     17  C   UNL     1       1.340   0.613   0.854  0.00  0.00    +0.008 A 
ATOM     18  C   UNL     1       0.016   0.989   0.814  0.00  0.00    +0.001 A 
ENDBRANCH   1  16
BRANCH   4  19
ATOM     19  N   UNL     1       4.695   4.023  -0.695  0.00  0.00    +0.056 N 
ATOM     20  O   UNL     1       3.546   4.399  -0.728  0.00  0.00    -0.126 OA
ATOM     21  O   UNL     1       5.596   4.822  -0.800  0.00  0.00    -0.126 OA
ENDBRANCH   4  19
BRANCH  11  22
ATOM     22  S   UNL     1       2.907  -2.651   1.614  0.00  0.00    -0.070 S 
BRANCH  22  23
ATOM     23  C   UNL     1       3.751  -1.721   2.850  0.00  0.00    +0.170 A 
ATOM     24  N   UNL     1       4.659  -0.836   2.489  0.00  0.00    -0.219 NA
ATOM     25  C   UNL     1       5.319  -0.113   3.391  0.00  0.00    +0.151 A 
ATOM     26  C   UNL     1       5.063  -0.279   4.721  0.00  0.00    +0.102 A 
ATOM     27  C   UNL     1       4.096  -1.220   5.116  0.00  0.00    +0.253 A 
ATOM     28  N   UNL     1       3.450  -1.925   4.163  0.00  0.00    -0.302 N 
ATOM     29  O   UNL     1       3.843  -1.394   6.297  0.00  0.00    -0.268 OA
ATOM     30  H   UNL     1       2.777  -2.578   4.412  0.00  0.00    +0.171 HD
BRANCH  25  31
ATOM     31  C   UNL     1       6.351   0.889   2.942  0.00  0.00    +0.434 C 
ATOM     32  F   UNL     1       6.905   1.520   4.061  0.00  0.00    -0.164 F 
ATOM     33  F   UNL     1       7.360   0.232   2.230  0.00  0.00    -0.164 F 
ATOM     34  F   UNL     1       5.746   1.845   2.119  0.00  0.00    -0.164 F 
ENDBRANCH  25  31
ENDBRANCH  22  23
ENDBRANCH  11  22
TORSDOF 5
