REMARK  Name = ZINC10040973
REMARK  9 active torsions:
REMARK  status: ('A' for Active; 'I' for Inactive)
REMARK    1  A    between atoms: C_1  and  C_2
REMARK    2  A    between atoms: C_2  and  C_3
REMARK    3  A    between atoms: C_2  and  C_4
REMARK    4  A    between atoms: C_4  and  C_6
REMARK    5  A    between atoms: C_4  and  N_21
REMARK    6  A    between atoms: N_8  and  N_9
REMARK    7  A    between atoms: C_10  and  C_11
REMARK    8  A    between atoms: C_14  and  N_16
REMARK    9  A    between atoms: C_22  and  C_24
REMARK                            x       y       z     vdW  Elec       q    Type
REMARK                         _______ _______ _______ _____ _____    ______ ____
ROOT
ATOM      1  C   UNL     1       4.769   4.377  -0.470  0.00  0.00    +0.163 C 
ENDROOT
BRANCH   1   2
ATOM      2  C   UNL     1       4.291   5.676  -1.067  0.00  0.00    +0.253 C 
ATOM      3  O   UNL     1       3.112   5.836  -1.306  0.00  0.00    -0.272 OA
ATOM      4  N   UNL     1       5.173   6.659  -1.336  0.00  0.00    -0.205 N 
ATOM      5  H   UNL     1       4.877   7.466  -1.785  0.00  0.00    +0.177 HD
BRANCH   4   6
ATOM      6  N   UNL     1       6.516   6.515  -0.967  0.00  0.00    -0.185 NA
ATOM      7  C   UNL     1       7.346   7.506  -1.128  0.00  0.00    +0.176 C 
BRANCH   7   8
ATOM      8  C   UNL     1       6.846   8.819  -1.535  0.00  0.00    +0.150 A 
ATOM      9  C   UNL     1       7.612   9.905  -1.851  0.00  0.00    +0.053 A 
ATOM     10  C   UNL     1       6.727  10.944  -2.182  0.00  0.00    +0.066 A 
ATOM     11  C   UNL     1       5.467  10.450  -2.055  0.00  0.00    +0.189 A 
ATOM     12  O   UNL     1       5.547   9.166  -1.670  0.00  0.00    -0.440 OA
BRANCH  11  13
ATOM     13  N   UNL     1       4.295  11.153  -2.289  0.00  0.00    -0.301 N 
ATOM     14  C   UNL     1       4.129  11.445  -3.736  0.00  0.00    +0.108 C 
ATOM     15  C   UNL     1       2.611  11.726  -3.870  0.00  0.00    +0.020 C 
ATOM     16  C   UNL     1       1.984  10.709  -2.888  0.00  0.00    +0.020 C 
ATOM     17  C   UNL     1       3.111  10.355  -1.901  0.00  0.00    +0.108 C 
ENDBRANCH  11  13
ENDBRANCH   7   8
ENDBRANCH   4   6
ENDBRANCH   1   2
BRANCH   1  18
ATOM     18  N   UNL     1       3.831   3.306  -0.815  0.00  0.00    -0.300 N 
ATOM     19  C   UNL     1       4.252   2.026  -0.851  0.00  0.00    +0.245 C 
ATOM     20  O   UNL     1       5.411   1.761  -0.598  0.00  0.00    -0.270 OA
ATOM     21  H   UNL     1       2.906   3.518  -1.017  0.00  0.00    +0.150 HD
BRANCH  19  22
ATOM     22  C   UNL     1       3.305   0.946  -1.198  0.00  0.00    +0.038 A 
ATOM     23  C   UNL     1       1.973   1.249  -1.489  0.00  0.00    +0.014 A 
ATOM     24  C   UNL     1       1.094   0.237  -1.812  0.00  0.00    +0.022 A 
ATOM     25  C   UNL     1       1.528  -1.077  -1.848  0.00  0.00    +0.059 A 
ATOM     26  C   UNL     1       2.849  -1.384  -1.562  0.00  0.00    +0.060 A 
ATOM     27  C   UNL     1       3.739  -0.380  -1.237  0.00  0.00    +0.034 A 
ATOM     28 CL   UNL     1       3.386  -3.035  -1.610  0.00  0.00    -0.082 Cl
ATOM     29 CL   UNL     1       0.415  -2.346  -2.255  0.00  0.00    -0.082 Cl
ENDBRANCH  19  22
ENDBRANCH   1  18
BRANCH   1  31
ATOM     30  C   UNL     1       5.946   5.518   1.415  0.00  0.00    +0.009 C 
ATOM     31  C   UNL     1       4.850   4.514   1.051  0.00  0.00    +0.012 C 
ATOM     32  C   UNL     1       3.507   5.009   1.591  0.00  0.00    +0.009 C 
ENDBRANCH   1  31
TORSDOF 7
