REMARK  Name = ZINC39712220
REMARK  3 active torsions:
REMARK  status: ('A' for Active; 'I' for Inactive)
REMARK    1  A    between atoms: C_1  and  S_2
REMARK    2  A    between atoms: S_2  and  C_5
REMARK    3  A    between atoms: CA_13  and  C_15
REMARK                            x       y       z     vdW  Elec       q    Type
REMARK                         _______ _______ _______ _____ _____    ______ ____
ROOT
ATOM      1  C   UNL     1       0.845  -0.437  -1.483  0.00  0.00    +0.113 C 
ATOM      2  C   UNL     1       2.047  -1.085  -1.478  0.00  0.00    +0.066 C 
ATOM      3  C   UNL     1       2.675  -1.472  -2.740  0.00  0.00    +0.122 C 
ATOM      4  C   UNL     1       2.306  -0.960  -3.921  0.00  0.00    +0.025 C 
ATOM      5  C   UNL     1       1.240   0.095  -3.955  0.00  0.00    +0.090 C 
ATOM      6  C   UNL     1       0.323  -0.145  -2.760  0.00  0.00    +0.078 C 
ATOM      7  N   UNL     1      -0.885  -0.062  -3.207  0.00  0.00    -0.242 NA
ATOM      8  CA  UNL     1      -0.943  -0.064  -4.567  0.00  0.00    +0.149 C 
ATOM      9  C   UNL     1       0.311  -0.000  -5.135  0.00  0.00    +0.022 C 
ATOM     10  F   UNL     1       3.671  -2.385  -2.715  0.00  0.00    -0.206 F 
ENDROOT
BRANCH   1  12
ATOM     11  C   UNL     1      -0.022   1.810   0.012  0.00  0.00    +0.200 C 
ATOM     12  S   UNL     1       0.002  -0.004   0.002  0.00  0.00    -0.004 S 
ATOM     13  O   UNL     1       0.835  -0.488   1.046  0.00  0.00    -0.170 OA
ATOM     14  O   UNL     1      -1.315  -0.510  -0.168  0.00  0.00    -0.170 OA
ENDBRANCH   1  12
BRANCH   8  15
ATOM     15  C   UNL     1      -2.199  -0.105  -5.341  0.00  0.00    +0.404 C 
ATOM     16  O   UNL     1      -2.164  -0.105  -6.564  0.00  0.00    -0.239 OA
ATOM     17  OXT UNL     1      -3.275  -0.140  -4.761  0.00  0.00    -0.239 OA
ENDBRANCH   8  15
TORSDOF 2
