REMARK  Name = ZINC39850323
REMARK  9 active torsions:
REMARK  status: ('A' for Active; 'I' for Inactive)
REMARK    1  A    between atoms: C_1  and  C_2
REMARK    2  A    between atoms: C_2  and  O_3
REMARK    3  A    between atoms: O_3  and  C_4
REMARK    4  A    between atoms: C_7  and  C_10
REMARK    5  A    between atoms: C_12  and  C_24
REMARK    6  A    between atoms: C_14  and  C_19
REMARK    7  A    between atoms: C_14  and  O_23
REMARK    8  A    between atoms: C_24  and  C_26
REMARK    9  A    between atoms: C_29  and  C_32
REMARK                            x       y       z     vdW  Elec       q    Type
REMARK                         _______ _______ _______ _____ _____    ______ ____
ROOT
ATOM      1  C   UNL     1       0.686  -6.036   1.720  0.00  0.00    +0.120 C 
ATOM      2  C   UNL     1      -0.082  -6.838   2.776  0.00  0.00    +0.144 C 
ATOM      3  C   UNL     1       0.617  -8.188   2.967  0.00  0.00    +0.243 C 
ATOM      4  N   UNL     1       2.022  -7.957   3.308  0.00  0.00    -0.264 N 
ATOM      5  C   UNL     1       2.674  -6.866   2.878  0.00  0.00    +0.302 C 
ATOM      6  O   UNL     1       3.843  -6.728   3.181  0.00  0.00    -0.253 OA
ATOM      7  N   UNL     1       2.087  -5.922   2.126  0.00  0.00    -0.292 N 
ATOM      8  H   UNL     1       2.491  -8.606   3.855  0.00  0.00    +0.153 HD
ATOM      9  H   UNL     1       2.601  -5.148   1.848  0.00  0.00    +0.151 HD
ENDROOT
BRANCH   1  13
ATOM     10  C   UNL     1      -1.022  -2.134   1.369  0.00  0.00    +0.121 A 
ATOM     11  C   UNL     1      -1.429  -3.150   0.516  0.00  0.00    +0.046 A 
ATOM     12  C   UNL     1      -0.875  -4.410   0.631  0.00  0.00    +0.009 A 
ATOM     13  C   UNL     1       0.084  -4.660   1.596  0.00  0.00    -0.026 A 
ATOM     14  C   UNL     1       0.491  -3.650   2.447  0.00  0.00    +0.009 A 
ATOM     15  C   UNL     1      -0.056  -2.386   2.332  0.00  0.00    +0.046 A 
BRANCH  10  16
ATOM     16  O   UNL     1      -1.565  -0.894   1.257  0.00  0.00    -0.492 OA
BRANCH  16  18
ATOM     17  C   UNL     1      -3.045   0.742   0.270  0.00  0.00    +0.048 C 
ATOM     18  C   UNL     1      -2.554  -0.707   0.243  0.00  0.00    +0.225 C 
ENDBRANCH  16  18
ENDBRANCH  10  16
ENDBRANCH   1  13
BRANCH   3  19
ATOM     19  C   UNL     1      -0.063  -8.961   4.099  0.00  0.00    +0.436 C 
ATOM     20  F   UNL     1      -1.434  -9.058   3.838  0.00  0.00    -0.166 F 
ATOM     21  F   UNL     1       0.488 -10.244   4.185  0.00  0.00    -0.166 F 
ATOM     22  F   UNL     1       0.135  -8.286   5.309  0.00  0.00    -0.166 F 
ENDBRANCH   3  19
BRANCH   3  23
ATOM     23  O   UNL     1       0.537  -8.943   1.756  0.00  0.00    -0.364 OA
ATOM     24  H   UNL     1       0.960  -9.811   1.806  0.00  0.00    +0.212 HD
ENDBRANCH   3  23
BRANCH   2  25
ATOM     25  C   UNL     1      -0.092  -6.080   4.078  0.00  0.00    +0.173 C 
ATOM     26  O   UNL     1       0.951  -5.842   4.649  0.00  0.00    -0.292 OA
BRANCH  25  27
ATOM     27  C   UNL     1      -1.368  -5.628   4.657  0.00  0.00    +0.018 A 
ATOM     28  C   UNL     1      -2.561  -5.799   3.948  0.00  0.00    +0.011 A 
ATOM     29  C   UNL     1      -3.752  -5.373   4.497  0.00  0.00    +0.004 A 
ATOM     30  C   UNL     1      -3.768  -4.779   5.747  0.00  0.00    -0.050 A 
ATOM     31  C   UNL     1      -2.592  -4.606   6.455  0.00  0.00    +0.004 A 
ATOM     32  C   UNL     1      -1.393  -5.031   5.921  0.00  0.00    +0.011 A 
ATOM     33  C   UNL     1      -5.075  -4.316   6.339  0.00  0.00    +0.044 C 
ENDBRANCH  25  27
ENDBRANCH   2  25
TORSDOF 7
