REMARK  Name = ZINC60348607
REMARK  12 active torsions:
REMARK  status: ('A' for Active; 'I' for Inactive)
REMARK    1  A    between atoms: C_1  and  C_2
REMARK    2  A    between atoms: C_2  and  N_3
REMARK    3  A    between atoms: C_7  and  C_9
REMARK    4  A    between atoms: C_9  and  N_10
REMARK    5  A    between atoms: N_10  and  C_11
REMARK    6  A    between atoms: N_10  and  S_16
REMARK    7  A    between atoms: C_11  and  C_12
REMARK    8  A    between atoms: C_12  and  N_13
REMARK    9  A    between atoms: N_13  and  C_14
REMARK   10  A    between atoms: N_13  and  C_15
REMARK   11  A    between atoms: S_16  and  C_19
REMARK   12  A    between atoms: C_22  and  C_26
REMARK                            x       y       z     vdW  Elec       q    Type
REMARK                         _______ _______ _______ _____ _____    ______ ____
ROOT
ATOM      1  N   UNL     1       2.918  -1.333  -0.063  0.00  0.00    -0.180 NA
ENDROOT
BRANCH   1   2
ATOM      2  S   UNL     1       3.242   0.250  -0.423  0.00  0.00    +0.062 S 
ATOM      3  O   UNL     1       4.121   0.725   0.588  0.00  0.00    -0.153 OA
ATOM      4  O   UNL     1       3.576   0.292  -1.803  0.00  0.00    -0.153 OA
BRANCH   2   5
ATOM      5  C   UNL     1       1.735   1.145  -0.241  0.00  0.00    +0.119 A 
ATOM      6  C   UNL     1       1.579   2.028   0.811  0.00  0.00    +0.030 A 
ATOM      7  C   UNL     1       0.397   2.731   0.953  0.00  0.00    +0.005 A 
ATOM      8  C   UNL     1      -0.629   2.551   0.044  0.00  0.00    -0.049 A 
ATOM      9  C   UNL     1      -0.473   1.668  -1.008  0.00  0.00    +0.020 A 
ATOM     10  C   UNL     1       0.711   0.968  -1.154  0.00  0.00    +0.044 A 
ATOM     11 BR   UNL     1       0.928  -0.234  -2.596  0.00  0.00    -0.048 Br
ATOM     12  C   UNL     1      -1.918   3.316   0.200  0.00  0.00    +0.044 C 
ENDBRANCH   2   5
ENDBRANCH   1   2
BRANCH   1  13
ATOM     13  C   UNL     1       2.786  -2.317  -1.140  0.00  0.00    +0.094 C 
BRANCH  13  18
ATOM     14  N   UNL     1       5.203  -2.745  -0.976  0.00  0.00    +0.382 N 
ATOM     15  C   UNL     1       5.817  -4.019  -1.405  0.00  0.00    -0.078 C 
ATOM     16  C   UNL     1       4.709  -4.741  -2.210  0.00  0.00    -0.020 C 
ATOM     17  C   UNL     1       4.029  -3.555  -2.943  0.00  0.00    -0.016 C 
ATOM     18  C   UNL     1       4.107  -2.415  -1.906  0.00  0.00    -0.053 C 
ATOM     19  H   UNL     1       4.836  -2.845  -0.041  0.00  0.00    -0.081 HD
BRANCH  14  21
ATOM     20  C   UNL     1       7.266  -1.945   0.074  0.00  0.00    -0.017 C 
ATOM     21  C   UNL     1       6.211  -1.676  -1.001  0.00  0.00    -0.082 C 
ENDBRANCH  14  21
ENDBRANCH  13  18
ENDBRANCH   1  13
BRANCH   1  22
ATOM     22  C   UNL     1       2.762  -1.750   1.333  0.00  0.00    +0.091 C 
BRANCH  22  23
ATOM     23  C   UNL     1       4.083  -2.332   1.842  0.00  0.00    -0.062 C 
BRANCH  23  24
ATOM     24  N   UNL     1       3.978  -2.595   3.284  0.00  0.00    +0.377 N 
ATOM     25  C   UNL     1       2.976  -3.643   3.518  0.00  0.00    -0.097 C 
ATOM     26  C   UNL     1       5.282  -3.040   3.795  0.00  0.00    -0.097 C 
ATOM     27  H   UNL     1       3.700  -1.751   3.761  0.00  0.00    -0.083 HD
ENDBRANCH  23  24
ENDBRANCH  22  23
ENDBRANCH   1  22
TORSDOF 8
