REMARK  Name = ZINC03841799
REMARK  6 active torsions:
REMARK  status: ('A' for Active; 'I' for Inactive)
REMARK    1  A    between atoms: C_1  and  N_2
REMARK    2  A    between atoms: C_4  and  C_11
REMARK    3  A    between atoms: C_11  and  N_63
REMARK    4  A    between atoms: C_22  and  N_27
REMARK    5  A    between atoms: C_28  and  C_30
REMARK    6  A    between atoms: C_33  and  C_36
REMARK                            x       y       z     vdW  Elec       q    Type
REMARK                         _______ _______ _______ _____ _____    ______ ____
ROOT
ATOM      1  C   UNL     1      -1.520   6.070   1.629  0.00  0.00    -0.073 C 
ATOM      2  C   UNL     1      -1.352   5.969   0.121  0.00  0.00    -0.007 C 
ATOM      3  C   UNL     1      -2.519   5.202  -0.506  0.00  0.00    +0.011 C 
ATOM      4  C   UNL     1      -2.582   3.825   0.166  0.00  0.00    +0.020 C 
ATOM      5  C   UNL     1      -2.840   4.039   1.667  0.00  0.00    -0.069 C 
ATOM      6  C   UNL     1      -1.239   3.144   0.029  0.00  0.00    +0.023 A 
ATOM      7  C   UNL     1      -1.224   1.785   0.032  0.00  0.00    +0.023 A 
ATOM      8  C   UNL     1      -0.013   1.085   0.020  0.00  0.00    +0.030 A 
ATOM      9  C   UNL     1       1.159   1.793   0.004  0.00  0.00    +0.099 A 
ATOM     10  C   UNL     1       1.106   3.200  -0.022  0.00  0.00    +0.273 A 
ATOM     11  O   UNL     1       2.143   3.843  -0.002  0.00  0.00    -0.266 OA
ATOM     12  N   UNL     1      -0.084   3.847  -0.067  0.00  0.00    -0.310 N 
ATOM     13  C   UNL     1      -0.043   5.297  -0.259  0.00  0.00    +0.127 C 
ATOM     14  N   UNL     1      -1.655   4.727   2.228  0.00  0.00    +0.383 N 
ATOM     15  H   UNL     1      -0.816   4.178   2.007  0.00  0.00    -0.081 HD
ENDROOT
BRANCH   9  16
ATOM     16  N   UNL     1       2.391   1.128   0.011  0.00  0.00    -0.277 N 
ATOM     17  C   UNL     1       3.262   1.311  -1.001  0.00  0.00    +0.248 C 
ATOM     18  O   UNL     1       3.016   2.118  -1.876  0.00  0.00    -0.270 OA
ATOM     19  H   UNL     1       2.617   0.535   0.745  0.00  0.00    +0.155 HD
BRANCH  17  20
ATOM     20  C   UNL     1       4.517   0.531  -1.046  0.00  0.00    +0.037 A 
ATOM     21  C   UNL     1       4.803  -0.392  -0.038  0.00  0.00    +0.014 A 
ATOM     22  C   UNL     1       5.969  -1.123  -0.083  0.00  0.00    +0.019 A 
ATOM     23  C   UNL     1       6.872  -0.933  -1.132  0.00  0.00    +0.052 A 
ATOM     24  C   UNL     1       6.589  -0.005  -2.138  0.00  0.00    +0.019 A 
ATOM     25  C   UNL     1       5.420   0.721  -2.095  0.00  0.00    +0.014 A 
BRANCH  23  26
ATOM     26  C   UNL     1       8.088  -1.688  -1.176  0.00  0.00    +0.099 C 
ATOM     27  N   UNL     1       9.053  -2.287  -1.211  0.00  0.00    -0.191 NA
ENDBRANCH  23  26
ENDBRANCH  17  20
ENDBRANCH   9  16
BRANCH  14  28
ATOM     28  C   UNL     1      -1.783   4.839   3.695  0.00  0.00    -0.041 C 
BRANCH  28  32
ATOM     29  C   UNL     1      -4.577   1.118   5.597  0.00  0.00    +0.149 C 
ATOM     30  N   UNL     1      -3.408   1.848   5.098  0.00  0.00    -0.349 N 
ATOM     31  C   UNL     1      -3.423   3.136   4.639  0.00  0.00    +0.088 A 
ATOM     32  C   UNL     1      -2.189   3.501   4.258  0.00  0.00    -0.039 A 
ATOM     33  C   UNL     1      -1.312   2.350   4.488  0.00  0.00    +0.001 A 
ATOM     34  C   UNL     1      -2.131   1.339   5.023  0.00  0.00    +0.049 A 
ATOM     35  C   UNL     1      -1.569   0.109   5.350  0.00  0.00    +0.026 A 
ATOM     36  C   UNL     1      -0.222  -0.102   5.153  0.00  0.00    +0.002 A 
ATOM     37  C   UNL     1       0.583   0.901   4.630  0.00  0.00    +0.001 A 
ATOM     38  C   UNL     1       0.052   2.117   4.302  0.00  0.00    +0.010 A 
ENDBRANCH  28  32
ENDBRANCH  14  28
TORSDOF 5
