REMARK  Name = ZINC39323854
REMARK  8 active torsions:
REMARK  status: ('A' for Active; 'I' for Inactive)
REMARK    1  A    between atoms: C_1  and  C_2
REMARK    2  A    between atoms: C_2  and  C_3
REMARK    3  A    between atoms: C_3  and  C_4
REMARK    4  A    between atoms: C_4  and  C_5
REMARK    5  A    between atoms: C_11  and  N_33
REMARK    6  A    between atoms: C_12  and  C_31
REMARK    7  A    between atoms: N_20  and  C_23
REMARK    8  A    between atoms: C_23  and  C_24
REMARK                            x       y       z     vdW  Elec       q    Type
REMARK                         _______ _______ _______ _____ _____    ______ ____
ROOT
ATOM      1  C   UNL     1      -2.826  -2.585   0.015  0.00  0.00    +0.198 A 
ATOM      2  N   UNL     1      -3.546  -2.847  -1.042  0.00  0.00    -0.214 NA
ATOM      3  C   UNL     1      -4.742  -3.290  -0.646  0.00  0.00    +0.127 A 
ATOM      4  C   UNL     1      -4.745  -3.300   0.714  0.00  0.00    +0.217 A 
ATOM      5  O   UNL     1      -3.549  -2.862   1.117  0.00  0.00    -0.426 OA
ATOM      6  N   UNL     1      -5.853  -3.720   1.449  0.00  0.00    -0.272 N 
ATOM      7  C   UNL     1      -6.864  -4.372   0.777  0.00  0.00    +0.103 C 
ATOM      8  C   UNL     1      -6.935  -4.400  -0.578  0.00  0.00    +0.090 C 
ATOM      9  C   UNL     1      -5.928  -3.719  -1.461  0.00  0.00    +0.158 C 
ATOM     10  C   UNL     1      -6.538  -2.557  -2.179  0.00  0.00    +0.000 A 
ATOM     11  C   UNL     1      -7.116  -1.395  -1.711  0.00  0.00    +0.007 A 
ATOM     12  C   UNL     1      -7.594  -0.502  -2.663  0.00  0.00    +0.000 A 
ATOM     13  C   UNL     1      -7.494  -0.768  -4.013  0.00  0.00    +0.002 A 
ATOM     14  C   UNL     1      -6.916  -1.934  -4.491  0.00  0.00    +0.024 A 
ATOM     15  C   UNL     1      -6.432  -2.840  -3.546  0.00  0.00    +0.042 A 
ATOM     16  N   UNL     1      -5.818  -4.065  -3.737  0.00  0.00    -0.265 N 
ATOM     17  C   UNL     1      -5.489  -4.654  -2.568  0.00  0.00    +0.242 C 
ATOM     18  O   UNL     1      -4.945  -5.729  -2.431  0.00  0.00    -0.273 OA
ATOM     19  H   UNL     1      -5.909  -3.559   2.404  0.00  0.00    +0.156 HD
ENDROOT
BRANCH   7  20
ATOM     20  N   UNL     1      -7.835  -5.016   1.506  0.00  0.00    -0.346 N 
ATOM     21  H   UNL     1      -7.800  -5.007   2.475  0.00  0.00    +0.144 HD
ATOM     22  H   UNL     1      -8.555  -5.480   1.050  0.00  0.00    +0.144 HD
ENDBRANCH   7  20
BRANCH   8  23
ATOM     23  C   UNL     1      -8.017  -5.109  -1.192  0.00  0.00    +0.100 C 
ATOM     24  N   UNL     1      -8.875  -5.672  -1.680  0.00  0.00    -0.191 NA
ENDBRANCH   8  23
BRANCH   1  25
ATOM     25  C   UNL     1      -1.413  -2.063   0.004  0.00  0.00    +0.096 C 
BRANCH  25  26
ATOM     26  C   UNL     1      -1.433  -0.534   0.013  0.00  0.00    +0.009 C 
BRANCH  26  28
ATOM     27  C   UNL     1      -0.019   1.526   0.010  0.00  0.00    +0.004 C 
ATOM     28  C   UNL     1       0.002  -0.004   0.002  0.00  0.00    -0.003 C 
ENDBRANCH  26  28
ENDBRANCH  25  26
ENDBRANCH   1  25
BRANCH  16  29
ATOM     29  C   UNL     1      -5.557  -4.654  -5.053  0.00  0.00    +0.148 C 
BRANCH  29  30
ATOM     30  C   UNL     1      -4.199  -4.215  -5.538  0.00  0.00    -0.029 A 
ATOM     31  C   UNL     1      -4.073  -3.056  -6.282  0.00  0.00    +0.005 A 
ATOM     32  C   UNL     1      -2.828  -2.653  -6.728  0.00  0.00    +0.001 A 
ATOM     33  C   UNL     1      -1.709  -3.409  -6.431  0.00  0.00    +0.015 A 
ATOM     34  C   UNL     1      -1.835  -4.568  -5.686  0.00  0.00    +0.018 A 
ATOM     35  C   UNL     1      -3.081  -4.968  -5.236  0.00  0.00    +0.020 A 
ATOM     36 BR   UNL     1      -0.305  -5.602  -5.280  0.00  0.00    -0.050 Br
ENDBRANCH  29  30
ENDBRANCH  16  29
TORSDOF 7
