REMARK  Name = ZINC17201918
REMARK  10 active torsions:
REMARK  status: ('A' for Active; 'I' for Inactive)
REMARK    1  A    between atoms: C_1  and  C_2
REMARK    2  A    between atoms: C_5  and  C_8
REMARK    3  A    between atoms: C_8  and  C_36
REMARK    4  A    between atoms: N_11  and  C_15
REMARK    5  A    between atoms: C_15  and  C_16
REMARK    6  A    between atoms: N_18  and  N_19
REMARK    7  A    between atoms: C_20  and  C_22
REMARK    8  A    between atoms: C_22  and  O_23
REMARK    9  A    between atoms: O_23  and  C_24
REMARK   10  A    between atoms: C_29  and  C_30
REMARK                            x       y       z     vdW  Elec       q    Type
REMARK                         _______ _______ _______ _____ _____    ______ ____
ROOT
ATOM      1  C   UNL     1       3.913  -5.224  -2.018  0.00  0.00    +0.247 C 
ATOM      2  O   UNL     1       3.907  -4.093  -1.580  0.00  0.00    -0.273 OA
ATOM      3  N   UNL     1       4.923  -5.635  -2.810  0.00  0.00    -0.233 N 
ATOM      4  H   UNL     1       4.927  -6.539  -3.161  0.00  0.00    +0.173 HD
ENDROOT
BRANCH   3   5
ATOM      5  N   UNL     1       5.967  -4.755  -3.127  0.00  0.00    -0.232 N 
ATOM      6  C   UNL     1       6.977  -5.166  -3.919  0.00  0.00    +0.267 C 
ATOM      7  O   UNL     1       6.982  -6.297  -4.358  0.00  0.00    -0.271 OA
ATOM      8  H   UNL     1       5.963  -3.851  -2.776  0.00  0.00    +0.173 HD
BRANCH   6   9
ATOM      9  C   UNL     1       8.100  -4.220  -4.260  0.00  0.00    +0.326 C 
BRANCH   9  10
ATOM     10  O   UNL     1       9.041  -4.884  -5.106  0.00  0.00    -0.482 OA
BRANCH  10  11
ATOM     11  C   UNL     1      10.122  -4.166  -5.508  0.00  0.00    +0.129 A 
ATOM     12  C   UNL     1      10.275  -2.851  -5.097  0.00  0.00    +0.046 A 
ATOM     13  C   UNL     1      11.375  -2.121  -5.507  0.00  0.00    +0.004 A 
ATOM     14  C   UNL     1      12.329  -2.698  -6.327  0.00  0.00    +0.001 A 
ATOM     15  C   UNL     1      12.189  -4.006  -6.743  0.00  0.00    +0.012 A 
ATOM     16  C   UNL     1      11.087  -4.752  -6.332  0.00  0.00    +0.024 A 
BRANCH  16  17
ATOM     17  C   UNL     1      10.935  -6.161  -6.771  0.00  0.00    -0.014 A 
ATOM     18  C   UNL     1      10.670  -7.160  -5.836  0.00  0.00    +0.008 A 
ATOM     19  C   UNL     1      10.524  -8.468  -6.251  0.00  0.00    +0.001 A 
ATOM     20  C   UNL     1      10.652  -8.790  -7.590  0.00  0.00    +0.000 A 
ATOM     21  C   UNL     1      10.921  -7.803  -8.522  0.00  0.00    +0.001 A 
ATOM     22  C   UNL     1      11.063  -6.491  -8.119  0.00  0.00    +0.008 A 
ENDBRANCH  16  17
ENDBRANCH  10  11
ENDBRANCH   9  10
ENDBRANCH   6   9
ENDBRANCH   3   5
BRANCH   1  23
ATOM     23  C   UNL     1       2.790  -6.170  -1.678  0.00  0.00    +0.215 C 
BRANCH  23  27
ATOM     24  C   UNL     1       0.058  -4.275  -0.021  0.00  0.00    +0.135 C 
ATOM     25  C   UNL     1       0.763  -4.793  -1.260  0.00  0.00    +0.251 C 
ATOM     26  O   UNL     1       0.438  -4.617  -2.414  0.00  0.00    -0.272 OA
ATOM     27  N   UNL     1       1.825  -5.490  -0.810  0.00  0.00    -0.215 N 
ATOM     28  C   UNL     1       1.889  -5.485   0.526  0.00  0.00    +0.310 C 
ATOM     29  O   UNL     1       2.758  -6.046   1.163  0.00  0.00    -0.252 OA
ATOM     30  N   UNL     1       0.883  -4.789   1.086  0.00  0.00    -0.281 N 
ATOM     31  C   UNL     1      -1.365  -4.831   0.060  0.00  0.00    +0.047 C 
ATOM     32  H   UNL     1       0.730  -4.652   2.034  0.00  0.00    +0.152 HD
BRANCH  24  37
ATOM     33  C   UNL     1      -0.018   1.503   0.010  0.00  0.00    +0.044 C 
ATOM     34  C   UNL     1       0.002  -0.004   0.002  0.00  0.00    -0.050 A 
ATOM     35  C   UNL     1      -0.006  -0.689  -1.199  0.00  0.00    +0.004 A 
ATOM     36  C   UNL     1       0.018  -2.071  -1.206  0.00  0.00    +0.006 A 
ATOM     37  C   UNL     1       0.039  -2.768  -0.013  0.00  0.00    -0.015 A 
ATOM     38  C   UNL     1       0.041  -2.084   1.188  0.00  0.00    +0.006 A 
ATOM     39  C   UNL     1       0.023  -0.702   1.195  0.00  0.00    +0.004 A 
ENDBRANCH  24  37
ENDBRANCH  23  27
ENDBRANCH   1  23
TORSDOF 8
