REMARK  Name = ZINC16115839
REMARK  10 active torsions:
REMARK  status: ('A' for Active; 'I' for Inactive)
REMARK    1  A    between atoms: C_1  and  C_2
REMARK    2  A    between atoms: C_5  and  C_8
REMARK    3  A    between atoms: N_10  and  C_11
REMARK    4  A    between atoms: C_11  and  C_21
REMARK    5  A    between atoms: C_12  and  C_13
REMARK    6  A    between atoms: C_16  and  S_19
REMARK    7  A    between atoms: S_19  and  C_20
REMARK    8  A    between atoms: N_23  and  C_24
REMARK    9  A    between atoms: C_24  and  C_25
REMARK   10  A    between atoms: C_25  and  C_26
REMARK                            x       y       z     vdW  Elec       q    Type
REMARK                         _______ _______ _______ _____ _____    ______ ____
ROOT
ATOM      1  C   UNL     1       2.333  -4.372  -0.075  0.00  0.00    +0.097 C 
ATOM      2  C   UNL     1       1.142  -4.853  -0.505  0.00  0.00    +0.036 C 
ENDROOT
BRANCH   2   3
ATOM      3  C   UNL     1       1.052  -6.214  -1.048  0.00  0.00    -0.023 A 
ATOM      4  C   UNL     1       2.143  -6.774  -1.723  0.00  0.00    +0.009 A 
ATOM      5  C   UNL     1       2.057  -8.047  -2.225  0.00  0.00    +0.015 A 
ATOM      6  C   UNL     1       0.882  -8.780  -2.072  0.00  0.00    +0.008 A 
ATOM      7  C   UNL     1      -0.208  -8.224  -1.406  0.00  0.00    +0.015 A 
ATOM      8  C   UNL     1      -0.128  -6.954  -0.897  0.00  0.00    +0.009 A 
BRANCH   6   9
ATOM      9  S   UNL     1       0.773 -10.413  -2.724  0.00  0.00    -0.129 S 
ATOM     10  C   UNL     1       2.397 -10.691  -3.484  0.00  0.00    +0.090 C 
ENDBRANCH   6   9
ENDBRANCH   2   3
BRANCH   1  13
ATOM     11  C   UNL     1       3.596  -2.591   0.871  0.00  0.00    +0.248 C 
ATOM     12  O   UNL     1       4.512  -3.364   1.074  0.00  0.00    -0.270 OA
ATOM     13  N   UNL     1       2.444  -3.038   0.333  0.00  0.00    -0.277 N 
ATOM     14  H   UNL     1       1.691  -2.435   0.229  0.00  0.00    +0.155 HD
BRANCH  11  19
ATOM     15  C   UNL     1       4.178   2.975   2.208  0.00  0.00    +0.044 C 
ATOM     16  C   UNL     1       4.026   1.518   1.858  0.00  0.00    -0.050 A 
ATOM     17  C   UNL     1       5.071   0.640   2.090  0.00  0.00    +0.004 A 
ATOM     18  C   UNL     1       4.937  -0.695   1.772  0.00  0.00    +0.013 A 
ATOM     19  C   UNL     1       3.745  -1.161   1.215  0.00  0.00    +0.037 A 
ATOM     20  C   UNL     1       2.696  -0.271   0.983  0.00  0.00    +0.013 A 
ATOM     21  C   UNL     1       2.842   1.062   1.306  0.00  0.00    +0.004 A 
ENDBRANCH  11  19
ENDBRANCH   1  13
BRANCH   1  22
ATOM     22  C   UNL     1       3.509  -5.251  -0.038  0.00  0.00    +0.258 C 
ATOM     23  O   UNL     1       4.451  -5.037  -0.778  0.00  0.00    -0.269 OA
ATOM     24  N   UNL     1       3.544  -6.294   0.815  0.00  0.00    -0.310 N 
ATOM     25  H   UNL     1       2.765  -6.507   1.352  0.00  0.00    +0.149 HD
BRANCH  24  26
ATOM     26  C   UNL     1       4.758  -7.105   0.931  0.00  0.00    +0.109 C 
BRANCH  26  27
ATOM     27  C   UNL     1       4.495  -8.287   1.866  0.00  0.00    +0.056 C 
BRANCH  27  28
ATOM     28  C   UNL     1       5.775  -9.052   2.081  0.00  0.00    -0.021 A 
ATOM     29  C   UNL     1       6.177 -10.141   1.407  0.00  0.00    +0.087 A 
ATOM     30  N   UNL     1       7.392 -10.559   1.877  0.00  0.00    -0.360 N 
ATOM     31  H   UNL     1       7.885 -11.326   1.544  0.00  0.00    +0.165 HD
ATOM     32  C   UNL     1       7.809  -9.733   2.896  0.00  0.00    +0.047 A 
ATOM     33  C   UNL     1       6.814  -8.752   3.069  0.00  0.00    +0.003 A 
ATOM     34  C   UNL     1       6.969  -7.767   4.045  0.00  0.00    +0.010 A 
ATOM     35  C   UNL     1       8.088  -7.759   4.830  0.00  0.00    +0.001 A 
ATOM     36  C   UNL     1       9.072  -8.724   4.664  0.00  0.00    +0.002 A 
ATOM     37  C   UNL     1       8.939  -9.706   3.706  0.00  0.00    +0.026 A 
ENDBRANCH  27  28
ENDBRANCH  26  27
ENDBRANCH  24  26
ENDBRANCH   1  22
TORSDOF 8
