REMARK  Name = ZINC14077457
REMARK  5 active torsions:
REMARK  status: ('A' for Active; 'I' for Inactive)
REMARK    1  A    between atoms: C_3  and  N_17
REMARK    2  A    between atoms: C_5  and  S_7
REMARK    3  A    between atoms: S_7  and  N_10
REMARK    4  A    between atoms: C_18  and  C_20
REMARK    5  A    between atoms: C_20  and  C_21
REMARK                            x       y       z     vdW  Elec       q    Type
REMARK                         _______ _______ _______ _____ _____    ______ ____
ROOT
ATOM      1  N   UNL     1      -1.199  -0.722   0.010  0.00  0.00    -0.285 N 
ATOM      2  C   UNL     1      -2.325  -0.156  -0.469  0.00  0.00    +0.219 C 
ATOM      3  O   UNL     1      -2.280   0.938  -0.990  0.00  0.00    -0.275 OA
ATOM      4  H   UNL     1      -1.221  -1.627   0.357  0.00  0.00    +0.155 HD
ENDROOT
BRANCH   1   7
ATOM      5  C   UNL     1       2.390   0.051  -0.184  0.00  0.00    +0.004 A 
ATOM      6  C   UNL     1       1.208  -0.662  -0.182  0.00  0.00    +0.023 A 
ATOM      7  C   UNL     1       0.001  -0.002   0.007  0.00  0.00    +0.035 A 
ATOM      8  C   UNL     1      -0.013   1.374   0.195  0.00  0.00    +0.051 A 
ATOM      9  C   UNL     1       1.174   2.081   0.192  0.00  0.00    +0.107 A 
ATOM     10  C   UNL     1       2.374   1.421   0.002  0.00  0.00    +0.028 A 
BRANCH   9  11
ATOM     11  S   UNL     1       1.158   3.827   0.429  0.00  0.00    +0.061 S 
ATOM     12  O   UNL     1       2.350   4.328  -0.160  0.00  0.00    -0.153 OA
ATOM     13  O   UNL     1      -0.132   4.278   0.039  0.00  0.00    -0.153 OA
BRANCH  11  14
ATOM     14  N   UNL     1       1.283   4.102   2.057  0.00  0.00    -0.177 NA
ATOM     15  C   UNL     1       0.070   4.197   2.839  0.00  0.00    +0.109 C 
ATOM     16  C   UNL     1      -0.423   5.659   2.867  0.00  0.00    +0.017 C 
ATOM     17  C   UNL     1       0.468   6.482   3.699  0.00  0.00    +0.001 C 
ATOM     18  C   UNL     1       1.901   6.575   3.183  0.00  0.00    +0.001 C 
ATOM     19  C   UNL     1       2.689   5.388   3.679  0.00  0.00    +0.017 C 
ATOM     20  C   UNL     1       2.627   4.245   2.649  0.00  0.00    +0.109 C 
ENDBRANCH  11  14
ENDBRANCH   9  11
ENDBRANCH   1   7
BRANCH   2  21
ATOM     21  C   UNL     1      -3.640  -0.884  -0.358  0.00  0.00    +0.120 C 
BRANCH  21  22
ATOM     22  C   UNL     1      -4.750  -0.030  -0.974  0.00  0.00    +0.146 C 
ATOM     23  C   UNL     1      -6.048  -0.794  -0.952  0.00  0.00    +0.231 C 
ATOM     24  O   UNL     1      -6.399  -1.365  -1.963  0.00  0.00    -0.274 OA
ATOM     25  N   UNL     1      -6.828  -0.872   0.121  0.00  0.00    -0.284 N 
ATOM     26  C   UNL     1      -6.652  -0.197   1.325  0.00  0.00    +0.048 A 
ATOM     27  C   UNL     1      -7.328  -0.642   2.458  0.00  0.00    +0.044 A 
ATOM     28  C   UNL     1      -7.162   0.005   3.667  0.00  0.00    +0.043 A 
ATOM     29  C   UNL     1      -6.325   1.102   3.766  0.00  0.00    +0.021 A 
ATOM     30  C   UNL     1      -5.650   1.557   2.648  0.00  0.00    +0.018 A 
ATOM     31  C   UNL     1      -5.815   0.913   1.433  0.00  0.00    +0.030 A 
ATOM     32  S   UNL     1      -4.961   1.492  -0.000  0.00  0.00    -0.110 S 
ATOM     33 CL   UNL     1      -8.011  -0.562   5.072  0.00  0.00    -0.083 Cl
ATOM     34  H   UNL     1      -7.597  -1.460   0.059  0.00  0.00    +0.155 HD
ENDBRANCH  21  22
ENDBRANCH   2  21
TORSDOF 5
