REMARK  Name = ZINC40372672
REMARK  6 active torsions:
REMARK  status: ('A' for Active; 'I' for Inactive)
REMARK    1  A    between atoms: C_1  and  C_2
REMARK    2  A    between atoms: C_2  and  C_3
REMARK    3  A    between atoms: C_6  and  C_9
REMARK    4  A    between atoms: C_6  and  N_13
REMARK    5  A    between atoms: N_10  and  O_11
REMARK    6  A    between atoms: C_14  and  C_16
REMARK                            x       y       z     vdW  Elec       q    Type
REMARK                         _______ _______ _______ _____ _____    ______ ____
ROOT
ATOM      1  C   UNL     1      -1.429  -0.571   0.081  0.00  0.00    -0.011 C 
ATOM      2  C   UNL     1      -2.093  -0.141  -1.229  0.00  0.00    +0.006 C 
ATOM      3  C   UNL     1      -3.536  -0.648  -1.261  0.00  0.00    +0.034 C 
ATOM      4  C   UNL     1      -3.542  -2.175  -1.163  0.00  0.00    +0.093 C 
ATOM      5  C   UNL     1      -2.879  -2.605   0.146  0.00  0.00    +0.034 C 
ATOM      6  C   UNL     1      -1.436  -2.098   0.178  0.00  0.00    +0.006 C 
ENDROOT
BRANCH   4   7
ATOM      7  C   UNL     1      -4.964  -2.674  -1.195  0.00  0.00    +0.155 C 
ATOM      8  N   UNL     1      -5.944  -1.833  -1.192  0.00  0.00    -0.075 NA
ATOM      9  N   UNL     1      -5.218  -4.028  -1.226  0.00  0.00    -0.342 N 
ATOM     10  H   UNL     1      -4.486  -4.660  -1.154  0.00  0.00    +0.144 HD
ATOM     11  H   UNL     1      -6.128  -4.348  -1.319  0.00  0.00    +0.144 HD
BRANCH   8  12
ATOM     12  O   UNL     1      -7.280  -2.302  -1.221  0.00  0.00    -0.408 OA
ATOM     13  H   UNL     1      -7.944  -1.599  -1.217  0.00  0.00    +0.328 HD
ENDBRANCH   8  12
ENDBRANCH   4   7
BRANCH   4  14
ATOM     14  N   UNL     1      -2.801  -2.739  -2.295  0.00  0.00    -0.296 N 
ATOM     15  C   UNL     1      -3.157  -2.427  -3.556  0.00  0.00    +0.280 C 
ATOM     16  O   UNL     1      -4.154  -1.758  -3.760  0.00  0.00    -0.267 OA
ATOM     17  H   UNL     1      -2.055  -3.338  -2.135  0.00  0.00    +0.150 HD
BRANCH  15  18
ATOM     18  C   UNL     1      -2.344  -2.892  -4.683  0.00  0.00    +0.191 A 
ATOM     19  C   UNL     1      -2.587  -2.643  -6.005  0.00  0.00    +0.056 A 
ATOM     20  C   UNL     1      -1.564  -3.274  -6.729  0.00  0.00    +0.058 A 
ATOM     21  C   UNL     1      -0.750  -3.874  -5.829  0.00  0.00    +0.171 A 
ATOM     22  O   UNL     1      -1.221  -3.636  -4.597  0.00  0.00    -0.444 OA
ATOM     23 BR   UNL     1       0.800  -4.875  -6.241  0.00  0.00    -0.008 Br
ENDBRANCH  15  18
ENDBRANCH   4  14
BRANCH   1  25
ATOM     24  C   UNL     1       0.016   1.466   0.141  0.00  0.00    +0.004 C 
ATOM     25  C   UNL     1       0.014  -0.064   0.112  0.00  0.00    -0.000 C 
ENDBRANCH   1  25
TORSDOF 5
