REMARK  Name = ZINC17131746
REMARK  9 active torsions:
REMARK  status: ('A' for Active; 'I' for Inactive)
REMARK    1  A    between atoms: C_1  and  C_2
REMARK    2  A    between atoms: C_6  and  S_13
REMARK    3  A    between atoms: N_7  and  C_10
REMARK    4  A    between atoms: C_10  and  C_11
REMARK    5  A    between atoms: S_13  and  C_14
REMARK    6  A    between atoms: C_14  and  C_15
REMARK    7  A    between atoms: N_17  and  C_18
REMARK    8  A    between atoms: C_19  and  C_23
REMARK    9  A    between atoms: C_27  and  C_28
REMARK                            x       y       z     vdW  Elec       q    Type
REMARK                         _______ _______ _______ _____ _____    ______ ____
ROOT
ATOM      1  C   UNL     1       0.292  -2.945  -0.154  0.00  0.00    +0.046 C 
ATOM      2  C   UNL     1       1.483  -2.025  -0.082  0.00  0.00    -0.021 A 
ATOM      3  C   UNL     1       1.296  -0.632  -0.061  0.00  0.00    +0.076 A 
ATOM      4  C   UNL     1       2.474   0.141   0.007  0.00  0.00    +0.117 A 
ATOM      5  N   UNL     1       2.448   1.466   0.034  0.00  0.00    -0.216 NA
ATOM      6  C   UNL     1       1.305   2.122  -0.003  0.00  0.00    +0.173 A 
ATOM      7  N   UNL     1       0.116   1.454  -0.069  0.00  0.00    -0.283 N 
ATOM      8  C   UNL     1       0.070   0.110  -0.099  0.00  0.00    +0.263 A 
ATOM      9  O   UNL     1      -1.000  -0.469  -0.158  0.00  0.00    -0.267 OA
ATOM     10  S   UNL     1       3.762  -1.080   0.039  0.00  0.00    -0.068 S 
ATOM     11  C   UNL     1       2.737  -2.539  -0.037  0.00  0.00    +0.025 A 
ENDROOT
BRANCH  11  12
ATOM     12  C   UNL     1       3.153  -3.957  -0.049  0.00  0.00    -0.011 A 
ATOM     13  C   UNL     1       4.095  -4.419   0.872  0.00  0.00    +0.009 A 
ATOM     14  C   UNL     1       4.473  -5.746   0.860  0.00  0.00    +0.001 A 
ATOM     15  C   UNL     1       3.931  -6.615  -0.070  0.00  0.00    +0.000 A 
ATOM     16  C   UNL     1       3.001  -6.162  -0.990  0.00  0.00    +0.001 A 
ATOM     17  C   UNL     1       2.609  -4.839  -0.984  0.00  0.00    +0.009 A 
ENDBRANCH  11  12
BRANCH   7  18
ATOM     18  C   UNL     1      -1.134   2.217  -0.114  0.00  0.00    +0.154 C 
BRANCH  18  19
ATOM     19  C   UNL     1      -1.632   2.448   1.289  0.00  0.00    -0.013 C 
ATOM     20  C   UNL     1      -1.879   3.666   1.704  0.00  0.00    +0.005 C 
ENDBRANCH  18  19
ENDBRANCH   7  18
BRANCH   6  21
ATOM     21  S   UNL     1       1.311   3.884   0.034  0.00  0.00    -0.078 S 
BRANCH  21  22
ATOM     22  C   UNL     1       3.093   4.190   0.119  0.00  0.00    +0.173 C 
BRANCH  22  23
ATOM     23  C   UNL     1       3.346   5.675   0.161  0.00  0.00    +0.228 C 
ATOM     24  O   UNL     1       2.414   6.450   0.136  0.00  0.00    -0.275 OA
ATOM     25  N   UNL     1       4.609   6.141   0.226  0.00  0.00    -0.279 N 
ATOM     26  H   UNL     1       5.355   5.521   0.246  0.00  0.00    +0.155 HD
BRANCH  25  27
ATOM     27  C   UNL     1       4.842   7.508   0.265  0.00  0.00    +0.084 A 
ATOM     28  C   UNL     1       6.060   8.174   0.338  0.00  0.00    +0.065 A 
ATOM     29  C   UNL     1       6.010   9.617   0.360  0.00  0.00    +0.022 A 
ATOM     30  C   UNL     1       4.794  10.190   0.319  0.00  0.00    +0.048 A 
ATOM     31  S   UNL     1       3.687   8.797   0.241  0.00  0.00    -0.081 S 
BRANCH  28  32
ATOM     32  C   UNL     1       7.332   7.448   0.386  0.00  0.00    +0.244 C 
ATOM     33  O   UNL     1       7.340   6.231   0.363  0.00  0.00    -0.270 OA
ATOM     34  N   UNL     1       8.494   8.127   0.457  0.00  0.00    -0.325 N 
ATOM     35  H   UNL     1       8.488   9.097   0.476  0.00  0.00    +0.145 HD
ATOM     36  H   UNL     1       9.336   7.647   0.489  0.00  0.00    +0.145 HD
ENDBRANCH  28  32
ENDBRANCH  25  27
ENDBRANCH  22  23
ENDBRANCH  21  22
ENDBRANCH   6  21
TORSDOF 8
