REMARK  Name = ZINC14544576
REMARK  4 active torsions:
REMARK  status: ('A' for Active; 'I' for Inactive)
REMARK    1  A    between atoms: C_7  and  C_11
REMARK    2  A    between atoms: C_22  and  S_27
REMARK    3  A    between atoms: S_27  and  N_30
REMARK    4  A    between atoms: N_30  and  C_31
REMARK                            x       y       z     vdW  Elec       q    Type
REMARK                         _______ _______ _______ _____ _____    ______ ____
ROOT
ATOM      1  C   UNL     1      -1.795   6.207  -5.048  0.00  0.00    +0.107 C 
ATOM      2  C   UNL     1      -0.594   6.644  -4.231  0.00  0.00    +0.029 C 
ATOM      3  C   UNL     1       0.709   6.015  -4.779  0.00  0.00    +0.033 C 
ATOM      4  C   UNL     1       1.594   5.942  -3.547  0.00  0.00    -0.030 C 
ATOM      5  C   UNL     1       0.867   5.965  -2.458  0.00  0.00    -0.023 C 
ATOM      6  C   UNL     1      -0.613   6.053  -2.809  0.00  0.00    +0.049 C 
ATOM      7  C   UNL     1      -1.167   4.654  -2.778  0.00  0.00    -0.018 A 
ATOM      8  C   UNL     1      -1.089   3.948  -1.584  0.00  0.00    +0.034 A 
ATOM      9  C   UNL     1      -1.571   2.658  -1.502  0.00  0.00    +0.106 A 
ATOM     10  C   UNL     1      -2.149   2.057  -2.605  0.00  0.00    +0.030 A 
ATOM     11  C   UNL     1      -2.239   2.753  -3.794  0.00  0.00    +0.025 A 
ATOM     12  C   UNL     1      -1.748   4.051  -3.878  0.00  0.00    +0.031 A 
ATOM     13  N   UNL     1      -1.854   4.742  -5.091  0.00  0.00    -0.336 N 
ATOM     14  H   UNL     1      -1.962   4.268  -5.930  0.00  0.00    +0.147 HD
ENDROOT
BRANCH   1  21
ATOM     15  C   UNL     1      -4.045  10.308  -5.354  0.00  0.00    +0.001 A 
ATOM     16  C   UNL     1      -5.193  10.355  -4.575  0.00  0.00    +0.002 A 
ATOM     17  C   UNL     1      -5.575   9.267  -3.822  0.00  0.00    +0.026 A 
ATOM     18  C   UNL     1      -4.798   8.113  -3.831  0.00  0.00    +0.047 A 
ATOM     19  C   UNL     1      -3.635   8.072  -4.620  0.00  0.00    +0.005 A 
ATOM     20  C   UNL     1      -3.270   9.184  -5.381  0.00  0.00    +0.010 A 
ATOM     21  C   UNL     1      -3.054   6.742  -4.416  0.00  0.00    -0.002 A 
ATOM     22  C   UNL     1      -3.853   6.093  -3.555  0.00  0.00    +0.089 A 
ATOM     23  N   UNL     1      -4.901   6.896  -3.195  0.00  0.00    -0.360 N 
ATOM     24  H   UNL     1      -5.610   6.646  -2.582  0.00  0.00    +0.165 HD
ENDBRANCH   1  21
BRANCH   9  25
ATOM     25  S   UNL     1      -1.456   1.774   0.019  0.00  0.00    +0.059 S 
ATOM     26  O   UNL     1      -2.475   0.784  -0.009  0.00  0.00    -0.153 OA
ATOM     27  O   UNL     1      -1.369   2.749   1.049  0.00  0.00    -0.153 OA
BRANCH  25  28
ATOM     28  N   UNL     1      -0.011   0.966   0.007  0.00  0.00    -0.187 NA
ATOM     29  H   UNL     1       0.002  -0.004   0.002  0.00  0.00    +0.148 HD
BRANCH  28  30
ATOM     30  C   UNL     1       1.248   1.716  -0.001  0.00  0.00    +0.077 C 
ATOM     31  C   UNL     1       1.736   1.876  -1.442  0.00  0.00    +0.020 C 
ATOM     32  C   UNL     1       3.051   2.659  -1.450  0.00  0.00    +0.002 C 
ATOM     33  C   UNL     1       4.101   1.901  -0.637  0.00  0.00    +0.000 C 
ATOM     34  C   UNL     1       3.613   1.740   0.804  0.00  0.00    +0.002 C 
ATOM     35  C   UNL     1       2.298   0.957   0.813  0.00  0.00    +0.020 C 
ENDBRANCH  28  30
ENDBRANCH  25  28
ENDBRANCH   9  25
TORSDOF 4
