REMARK  Name = ZINC66982309
REMARK  5 active torsions:
REMARK  status: ('A' for Active; 'I' for Inactive)
REMARK    1  A    between atoms: C_1  and  C_2
REMARK    2  A    between atoms: C_2  and  C_3
REMARK    3  A    between atoms: C_3  and  C_5
REMARK    4  A    between atoms: C_3  and  N_6
REMARK    5  A    between atoms: C_15  and  C_17
REMARK                            x       y       z     vdW  Elec       q    Type
REMARK                         _______ _______ _______ _____ _____    ______ ____
ROOT
ATOM      1  N   UNL     1      -2.150   0.954  -1.156  0.00  0.00    -0.297 N 
ATOM      2  C   UNL     1      -3.493   0.860  -1.212  0.00  0.00    +0.303 C 
ATOM      3  O   UNL     1      -4.124   0.569  -0.214  0.00  0.00    -0.253 OA
ATOM      4  N   UNL     1      -4.137   1.088  -2.373  0.00  0.00    -0.283 N 
ATOM      5  C   UNL     1      -3.383   1.323  -3.613  0.00  0.00    +0.128 C 
ATOM      6  C   UNL     1      -3.850   0.314  -4.669  0.00  0.00    +0.127 C 
ATOM      7  N   UNL     1      -5.319   0.332  -4.719  0.00  0.00    -0.298 N 
ATOM      8  C   UNL     1      -6.073   0.098  -3.479  0.00  0.00    +0.127 C 
ATOM      9  C   UNL     1      -5.606   1.102  -2.424  0.00  0.00    +0.128 C 
ATOM     10  C   UNL     1      -5.963   0.561  -5.881  0.00  0.00    +0.219 C 
ATOM     11  O   UNL     1      -7.174   0.635  -5.899  0.00  0.00    -0.275 OA
ATOM     12  H   UNL     1      -1.641   1.114  -1.966  0.00  0.00    +0.151 HD
ENDROOT
BRANCH  10  13
ATOM     13  C   UNL     1      -5.179   0.724  -7.157  0.00  0.00    +0.075 C 
ATOM     14  C   UNL     1      -4.497  -0.600  -7.510  0.00  0.00    +0.013 C 
ATOM     15  C   UNL     1      -3.701  -0.434  -8.806  0.00  0.00    +0.001 C 
ATOM     16  C   UNL     1      -4.648  -0.031  -9.938  0.00  0.00    +0.000 C 
ATOM     17  C   UNL     1      -5.330   1.292  -9.586  0.00  0.00    +0.001 C 
ATOM     18  C   UNL     1      -6.126   1.127  -8.290  0.00  0.00    +0.013 C 
ENDBRANCH  10  13
BRANCH   1  19
ATOM     19  C   UNL     1      -1.458   0.813   0.128  0.00  0.00    +0.071 C 
ATOM     20  C   UNL     1      -1.220  -0.670   0.419  0.00  0.00    +0.028 C 
BRANCH  19  22
ATOM     21  C   UNL     1      -0.357   3.044  -0.101  0.00  0.00    +0.005 C 
ATOM     22  C   UNL     1      -0.115   1.542   0.066  0.00  0.00    +0.019 C 
ENDBRANCH  19  22
ENDBRANCH   1  19
TORSDOF 3
