REMARK  Name = ZINC36610161
REMARK  19 active torsions:
REMARK  status: ('A' for Active; 'I' for Inactive)
REMARK    1  A    between atoms: C_1  and  C_2
REMARK    2  A    between atoms: C_2  and  C_3
REMARK    3  A    between atoms: C_2  and  C_4
REMARK    4  A    between atoms: C_2  and  C_5
REMARK    5  A    between atoms: C_5  and  C_6
REMARK    6  A    between atoms: C_6  and  C_7
REMARK    7  A    between atoms: C_6  and  C_8
REMARK    8  A    between atoms: C_6  and  N_9
REMARK    9  A    between atoms: C_10  and  C_12
REMARK   10  A    between atoms: C_12  and  C_14
REMARK   11  A    between atoms: C_12  and  N_24
REMARK   12  A    between atoms: C_17  and  O_22
REMARK   13  A    between atoms: C_18  and  O_20
REMARK   14  A    between atoms: O_20  and  C_21
REMARK   15  A    between atoms: O_22  and  C_23
REMARK   16  A    between atoms: N_24  and  C_25
REMARK   17  A    between atoms: C_31  and  C_33
REMARK   18  A    between atoms: C_34  and  O_40
REMARK   19  A    between atoms: C_38  and  O_39
REMARK                            x       y       z     vdW  Elec       q    Type
REMARK                         _______ _______ _______ _____ _____    ______ ____
ROOT
ATOM      1  C   UNL     1       4.362   0.265  -4.904  0.00  0.00    +0.198 C 
ENDROOT
BRANCH   1   2
ATOM      2  C   UNL     1       4.846  -1.001  -5.562  0.00  0.00    -0.014 A 
ATOM      3  C   UNL     1       6.120  -1.471  -5.301  0.00  0.00    +0.010 A 
ATOM      4  C   UNL     1       6.569  -2.631  -5.902  0.00  0.00    +0.050 A 
ATOM      5  C   UNL     1       5.742  -3.327  -6.769  0.00  0.00    +0.162 A 
ATOM      6  C   UNL     1       4.460  -2.854  -7.032  0.00  0.00    +0.162 A 
ATOM      7  C   UNL     1       4.014  -1.693  -6.422  0.00  0.00    +0.055 A 
BRANCH   6   8
ATOM      8  O   UNL     1       3.644  -3.533  -7.883  0.00  0.00    -0.491 OA
ATOM      9  C   UNL     1       2.341  -2.990  -8.106  0.00  0.00    +0.277 C 
ENDBRANCH   6   8
BRANCH   5  10
ATOM     10  O   UNL     1       6.182  -4.469  -7.363  0.00  0.00    -0.491 OA
ATOM     11  C   UNL     1       7.509  -4.894  -7.046  0.00  0.00    +0.277 C 
ENDBRANCH   5  10
ENDBRANCH   1   2
BRANCH   1  13
ATOM     12  N   UNL     1       2.970  -0.860  -3.196  0.00  0.00    -0.308 N 
ATOM     13  C   UNL     1       3.991  -0.024  -3.472  0.00  0.00    +0.239 C 
ATOM     14  O   UNL     1       4.611   0.496  -2.568  0.00  0.00    -0.273 OA
ATOM     15  H   UNL     1       2.474  -1.275  -3.918  0.00  0.00    +0.149 HD
BRANCH  12  16
ATOM     16  C   UNL     1       2.610  -1.140  -1.804  0.00  0.00    +0.030 C 
ATOM     17  C   UNL     1       2.440   0.177  -1.045  0.00  0.00    +0.031 C 
ATOM     18  C   UNL     1       3.716  -1.969  -1.147  0.00  0.00    +0.031 C 
BRANCH  16  19
ATOM     19  C   UNL     1       1.296  -1.923  -1.765  0.00  0.00    +0.031 C 
BRANCH  19  21
ATOM     20  C   UNL     1       0.642  -1.871  -4.176  0.00  0.00    +0.010 C 
ATOM     21  C   UNL     1       0.319  -1.330  -2.782  0.00  0.00    -0.036 C 
ATOM     22  C   UNL     1       0.448   0.195  -2.784  0.00  0.00    +0.010 C 
ATOM     23  C   UNL     1      -1.112  -1.720  -2.404  0.00  0.00    +0.010 C 
ENDBRANCH  19  21
ENDBRANCH  16  19
ENDBRANCH  12  16
ENDBRANCH   1  13
BRANCH   1  24
ATOM     24  N   UNL     1       5.426   1.272  -4.939  0.00  0.00    -0.251 N 
ATOM     25  C   UNL     1       6.519   1.124  -4.165  0.00  0.00    +0.259 C 
ATOM     26  O   UNL     1       6.531   0.287  -3.282  0.00  0.00    -0.269 OA
BRANCH  24  27
ATOM     27  C   UNL     1       5.306   2.386  -5.775  0.00  0.00    +0.038 A 
ATOM     28  C   UNL     1       4.115   2.627  -6.448  0.00  0.00    +0.023 A 
ATOM     29  C   UNL     1       4.001   3.729  -7.273  0.00  0.00    +0.002 A 
ATOM     30  C   UNL     1       5.070   4.591  -7.431  0.00  0.00    +0.000 A 
ATOM     31  C   UNL     1       6.258   4.353  -6.763  0.00  0.00    +0.002 A 
ATOM     32  C   UNL     1       6.377   3.257  -5.931  0.00  0.00    +0.023 A 
ENDBRANCH  24  27
BRANCH  25  33
ATOM     33  C   UNL     1       7.699   1.975  -4.388  0.00  0.00    +0.120 A 
ATOM     34  C   UNL     1       7.853   3.172  -3.672  0.00  0.00    +0.133 A 
ATOM     35  C   UNL     1       8.967   3.965  -3.889  0.00  0.00    +0.046 A 
ATOM     36  C   UNL     1       9.926   3.581  -4.808  0.00  0.00    +0.007 A 
ATOM     37  C   UNL     1       9.785   2.404  -5.520  0.00  0.00    +0.046 A 
ATOM     38  C   UNL     1       8.681   1.593  -5.314  0.00  0.00    +0.133 A 
BRANCH  38  39
ATOM     39  O   UNL     1       8.547   0.436  -6.009  0.00  0.00    -0.506 OA
ATOM     40  H   UNL     1       8.011   0.518  -6.810  0.00  0.00    +0.292 HD
ENDBRANCH  38  39
BRANCH  34  41
ATOM     41  O   UNL     1       6.913   3.551  -2.770  0.00  0.00    -0.506 OA
ATOM     42  H   UNL     1       7.074   3.225  -1.874  0.00  0.00    +0.292 HD
ENDBRANCH  34  41
ENDBRANCH  25  33
ENDBRANCH   1  24
TORSDOF 12
