REMARK  Name = ZINC64147831
REMARK  6 active torsions:
REMARK  status: ('A' for Active; 'I' for Inactive)
REMARK    1  A    between atoms: C_1  and  C_2
REMARK    2  A    between atoms: C_9  and  N_14
REMARK    3  A    between atoms: C_15  and  C_17
REMARK    4  A    between atoms: C_17  and  C_18
REMARK    5  A    between atoms: C_18  and  C_19
REMARK    6  A    between atoms: C_19  and  C_20
REMARK                            x       y       z     vdW  Elec       q    Type
REMARK                         _______ _______ _______ _____ _____    ______ ____
ROOT
ATOM      1  N   UNL     1       6.197   0.088   1.141  0.00  0.00    -0.285 N 
ATOM      2  C   UNL     1       6.845   0.415   2.277  0.00  0.00    +0.217 C 
ATOM      3  O   UNL     1       6.234   0.494   3.322  0.00  0.00    -0.275 OA
ATOM      4  H   UNL     1       6.696  -0.050   0.321  0.00  0.00    +0.155 HD
ENDROOT
BRANCH   1  12
ATOM      5  C   UNL     1       0.292  -1.409   3.347  0.00  0.00    +0.062 C 
ATOM      6  C   UNL     1       0.034  -0.230   2.407  0.00  0.00    +0.256 C 
ATOM      7  C   UNL     1       0.568   1.034   3.030  0.00  0.00    +0.258 C 
ATOM      8  O   UNL     1      -0.151   1.722   3.724  0.00  0.00    -0.271 OA
ATOM      9  N   UNL     1       1.851   1.398   2.813  0.00  0.00    -0.279 N 
ATOM     10  C   UNL     1       2.651   0.604   1.979  0.00  0.00    +0.077 A 
ATOM     11  C   UNL     1       4.028   0.745   1.979  0.00  0.00    +0.050 A 
ATOM     12  C   UNL     1       4.803  -0.051   1.145  0.00  0.00    +0.035 A 
ATOM     13  C   UNL     1       4.196  -0.983   0.314  0.00  0.00    +0.027 A 
ATOM     14  C   UNL     1       2.821  -1.125   0.315  0.00  0.00    +0.049 A 
ATOM     15  C   UNL     1       2.045  -0.334   1.145  0.00  0.00    +0.143 A 
ATOM     16  O   UNL     1       0.691  -0.464   1.159  0.00  0.00    -0.478 OA
ATOM     17  H   UNL     1       2.213   2.197   3.228  0.00  0.00    +0.155 HD
ENDBRANCH   1  12
BRANCH   2  18
ATOM     18  C   UNL     1       8.328   0.680   2.249  0.00  0.00    +0.096 C 
BRANCH  18  19
ATOM     19  C   UNL     1       8.810   1.027   3.659  0.00  0.00    +0.014 C 
BRANCH  19  20
ATOM     20  C   UNL     1      10.316   1.297   3.630  0.00  0.00    +0.033 C 
BRANCH  20  21
ATOM     21  C   UNL     1      10.792   1.638   5.019  0.00  0.00    -0.042 C 
ATOM     22  C   UNL     1      11.332   0.791   5.924  0.00  0.00    -0.001 A 
ATOM     23  C   UNL     1      11.626  -0.647   5.889  0.00  0.00    +0.010 A 
ATOM     24  C   UNL     1      12.180  -1.230   6.976  0.00  0.00    +0.001 A 
ATOM     25  C   UNL     1      12.480  -0.497   8.133  0.00  0.00    +0.002 A 
ATOM     26  C   UNL     1      12.239   0.827   8.241  0.00  0.00    +0.026 A 
ATOM     27  C   UNL     1      11.659   1.542   7.157  0.00  0.00    +0.043 A 
ATOM     28  N   UNL     1      11.333   2.804   7.019  0.00  0.00    -0.380 N 
ATOM     29  C   UNL     1      10.768   2.998   5.679  0.00  0.00    +0.144 C 
ATOM     30  H   UNL     1      11.450   3.496   7.690  0.00  0.00    +0.160 HD
ENDBRANCH  20  21
ENDBRANCH  19  20
ENDBRANCH  18  19
ENDBRANCH   2  18
TORSDOF 5
