REMARK  Name = ZINC21222036
REMARK  7 active torsions:
REMARK  status: ('A' for Active; 'I' for Inactive)
REMARK    1  A    between atoms: C_1  and  C_2
REMARK    2  A    between atoms: C_2  and  O_3
REMARK    3  A    between atoms: O_3  and  C_4
REMARK    4  A    between atoms: C_5  and  C_12
REMARK    5  A    between atoms: C_9  and  O_10
REMARK    6  A    between atoms: O_10  and  C_11
REMARK    7  A    between atoms: C_17  and  C_22
REMARK                            x       y       z     vdW  Elec       q    Type
REMARK                         _______ _______ _______ _____ _____    ______ ____
ROOT
ATOM      1  C   UNL     1      -4.620   4.884  -0.007  0.00  0.00    +0.140 C 
ATOM      2  C   UNL     1      -3.283   4.183  -0.020  0.00  0.00    +0.037 C 
ATOM      3  C   UNL     1      -2.618   3.732   1.058  0.00  0.00    +0.017 C 
ATOM      4  C   UNL     1      -1.272   3.045   0.901  0.00  0.00    +0.059 C 
ATOM      5  C   UNL     1      -1.227   2.283  -0.422  0.00  0.00    +0.032 C 
ATOM      6  C   UNL     1      -1.442   3.296  -1.552  0.00  0.00    +0.088 C 
ATOM      7  C   UNL     1      -2.741   4.006  -1.315  0.00  0.00    +0.163 C 
ATOM      8  O   UNL     1      -3.351   4.446  -2.270  0.00  0.00    -0.292 OA
ATOM      9  N   UNL     1      -3.052   3.850   2.339  0.00  0.00    -0.316 N 
ATOM     10  C   UNL     1      -4.340   3.558   2.772  0.00  0.00    +0.052 A 
ATOM     11  C   UNL     1      -4.610   2.526   3.654  0.00  0.00    +0.025 A 
ATOM     12  C   UNL     1      -5.910   2.321   4.082  0.00  0.00    +0.002 A 
ATOM     13  C   UNL     1      -6.930   3.141   3.633  0.00  0.00    +0.002 A 
ATOM     14  C   UNL     1      -6.665   4.161   2.736  0.00  0.00    +0.025 A 
ATOM     15  C   UNL     1      -5.367   4.356   2.291  0.00  0.00    +0.049 A 
ATOM     16  N   UNL     1      -5.071   5.296   1.305  0.00  0.00    -0.331 N 
ATOM     17  H   UNL     1      -2.364   4.198   3.123  0.00  0.00    +0.152 HD
ATOM     18  H   UNL     1      -5.183   6.365   1.538  0.00  0.00    +0.147 HD
ENDROOT
BRANCH   5  19
ATOM     19  C   UNL     1       0.115   1.617  -0.582  0.00  0.00    -0.043 A 
ATOM     20  C   UNL     1       1.267   2.381  -0.609  0.00  0.00    +0.007 A 
ATOM     21  C   UNL     1       2.498   1.772  -0.761  0.00  0.00    +0.038 A 
ATOM     22  C   UNL     1       2.577   0.395  -0.887  0.00  0.00    +0.123 A 
ATOM     23  C   UNL     1       1.423  -0.369  -0.860  0.00  0.00    +0.038 A 
ATOM     24  C   UNL     1       0.193   0.242  -0.708  0.00  0.00    +0.007 A 
ATOM     25  F   UNL     1       3.780  -0.202  -1.036  0.00  0.00    -0.205 F 
ENDBRANCH   5  19
BRANCH   1  27
ATOM     26  C   UNL     1      -6.830   4.461  -1.111  0.00  0.00    +0.167 A 
ATOM     27  C   UNL     1      -5.649   3.952  -0.594  0.00  0.00    +0.023 A 
ATOM     28  C   UNL     1      -5.418   2.590  -0.613  0.00  0.00    +0.009 A 
ATOM     29  C   UNL     1      -6.359   1.732  -1.151  0.00  0.00    +0.004 A 
ATOM     30  C   UNL     1      -7.537   2.234  -1.672  0.00  0.00    +0.049 A 
ATOM     31  C   UNL     1      -7.776   3.599  -1.657  0.00  0.00    +0.162 A 
BRANCH  31  32
ATOM     32  O   UNL     1      -8.934   4.094  -2.169  0.00  0.00    -0.491 OA
ATOM     33  C   UNL     1      -9.862   3.149  -2.707  0.00  0.00    +0.277 C 
ENDBRANCH  31  32
BRANCH  26  34
ATOM     34  O   UNL     1      -7.062   5.801  -1.088  0.00  0.00    -0.488 OA
BRANCH  34  36
ATOM     35  C   UNL     1      -6.941   8.031  -2.013  0.00  0.00    +0.048 C 
ATOM     36  C   UNL     1      -6.730   6.537  -2.268  0.00  0.00    +0.226 C 
ENDBRANCH  34  36
ENDBRANCH  26  34
ENDBRANCH   1  27
TORSDOF 5
