REMARK  Name = ZINC12905508
REMARK  7 active torsions:
REMARK  status: ('A' for Active; 'I' for Inactive)
REMARK    1  A    between atoms: C_1  and  C_2
REMARK    2  A    between atoms: C_3  and  C_29
REMARK    3  A    between atoms: N_9  and  N_12
REMARK    4  A    between atoms: C_13  and  C_15
REMARK    5  A    between atoms: C_15  and  C_16
REMARK    6  A    between atoms: C_16  and  C_17
REMARK    7  A    between atoms: C_19  and  C_22
REMARK                            x       y       z     vdW  Elec       q    Type
REMARK                         _______ _______ _______ _____ _____    ______ ____
ROOT
ATOM      1  N   UNL     1       1.623   3.376   0.005  0.00  0.00    -0.219 N 
ATOM      2  C   UNL     1       1.395   2.047  -0.000  0.00  0.00    +0.232 C 
ATOM      3  O   UNL     1       2.328   1.272  -0.013  0.00  0.00    -0.274 OA
ATOM      4  H   UNL     1       0.878   3.996   0.015  0.00  0.00    +0.176 HD
ENDROOT
BRANCH   1  13
ATOM      5  C   UNL     1       7.848   6.478   2.876  0.00  0.00    +0.052 C 
ATOM      6  C   UNL     1       6.857   5.849   1.931  0.00  0.00    -0.003 A 
ATOM      7  C   UNL     1       5.588   5.449   2.188  0.00  0.00    +0.007 A 
ATOM      8  C   UNL     1       4.806   4.861   1.107  0.00  0.00    +0.082 A 
ATOM      9  C   UNL     1       5.471   4.767  -0.127  0.00  0.00    +0.116 A 
ATOM     10  S   UNL     1       7.073   5.453   0.206  0.00  0.00    -0.073 S 
ATOM     11  N   UNL     1       4.885   4.252  -1.204  0.00  0.00    -0.228 NA
ATOM     12  C   UNL     1       3.657   3.810  -1.156  0.00  0.00    +0.223 A 
ATOM     13  N   UNL     1       2.938   3.861  -0.005  0.00  0.00    -0.212 N 
ATOM     14  C   UNL     1       3.461   4.373   1.124  0.00  0.00    +0.280 A 
ATOM     15  O   UNL     1       2.800   4.416   2.148  0.00  0.00    -0.265 OA
BRANCH   7  16
ATOM     16  C   UNL     1       5.006   5.607   3.542  0.00  0.00    -0.016 A 
ATOM     17  C   UNL     1       4.657   4.483   4.289  0.00  0.00    +0.008 A 
ATOM     18  C   UNL     1       4.121   4.637   5.551  0.00  0.00    +0.001 A 
ATOM     19  C   UNL     1       3.918   5.903   6.070  0.00  0.00    +0.000 A 
ATOM     20  C   UNL     1       4.258   7.022   5.332  0.00  0.00    +0.001 A 
ATOM     21  C   UNL     1       4.800   6.881   4.071  0.00  0.00    +0.008 A 
ENDBRANCH   7  16
ENDBRANCH   1  13
BRANCH   2  22
ATOM     22  C   UNL     1      -0.019   1.526   0.010  0.00  0.00    +0.107 C 
BRANCH  22  23
ATOM     23  C   UNL     1       0.002  -0.004   0.002  0.00  0.00    +0.108 C 
BRANCH  23  24
ATOM     24  C   UNL     1      -1.412  -0.526   0.013  0.00  0.00    +0.228 A 
ATOM     25  N   UNL     1      -2.152  -0.789  -1.035  0.00  0.00    -0.191 NA
ATOM     26  C   UNL     1      -3.332  -1.230  -0.545  0.00  0.00    +0.202 A 
ATOM     27  N   UNL     1      -3.241  -1.208   0.759  0.00  0.00    -0.056 NA
ATOM     28  O   UNL     1      -2.144  -0.812   1.094  0.00  0.00    -0.338 OA
BRANCH  26  29
ATOM     29  C   UNL     1      -4.511  -1.657  -1.338  0.00  0.00    +0.023 A 
ATOM     30  C   UNL     1      -4.467  -1.621  -2.731  0.00  0.00    +0.014 A 
ATOM     31  C   UNL     1      -5.563  -2.024  -3.465  0.00  0.00    +0.039 A 
ATOM     32  C   UNL     1      -6.712  -2.454  -2.819  0.00  0.00    +0.123 A 
ATOM     33  C   UNL     1      -6.762  -2.487  -1.434  0.00  0.00    +0.039 A 
ATOM     34  C   UNL     1      -5.668  -2.091  -0.693  0.00  0.00    +0.014 A 
ATOM     35  F   UNL     1      -7.785  -2.843  -3.541  0.00  0.00    -0.205 F 
ENDBRANCH  26  29
ENDBRANCH  23  24
ENDBRANCH  22  23
ENDBRANCH   2  22
TORSDOF 6
