REMARK  Name = ZINC12402302
REMARK  8 active torsions:
REMARK  status: ('A' for Active; 'I' for Inactive)
REMARK    1  A    between atoms: C_1  and  C_2
REMARK    2  A    between atoms: C_2  and  C_35
REMARK    3  A    between atoms: C_6  and  C_24
REMARK    4  A    between atoms: C_8  and  C_22
REMARK    5  A    between atoms: C_9  and  N_21
REMARK    6  A    between atoms: N_10  and  C_11
REMARK    7  A    between atoms: C_14  and  C_17
REMARK    8  A    between atoms: C_27  and  N_29
REMARK                            x       y       z     vdW  Elec       q    Type
REMARK                         _______ _______ _______ _____ _____    ______ ____
ROOT
ATOM      1  C   UNL     1      -1.162   2.328   2.409  0.00  0.00    +0.011 C 
ATOM      2  C   UNL     1      -1.939   1.269   3.193  0.00  0.00    -0.023 C 
ATOM      3  C   UNL     1      -3.187   0.860   2.407  0.00  0.00    +0.058 C 
ATOM      4  C   UNL     1      -2.779   0.260   1.085  0.00  0.00    +0.025 C 
ATOM      5  C   UNL     1      -1.614  -0.410   0.955  0.00  0.00    +0.026 C 
ATOM      6  C   UNL     1      -1.210  -1.014  -0.367  0.00  0.00    +0.104 C 
ATOM      7  C   UNL     1      -2.388  -1.141  -1.288  0.00  0.00    +0.077 C 
ATOM      8  C   UNL     1      -3.528  -0.435  -1.070  0.00  0.00    +0.107 C 
ATOM      9  N   UNL     1      -3.623   0.406   0.015  0.00  0.00    -0.260 N 
ATOM     10  C   UNL     1      -0.740  -0.563   2.046  0.00  0.00    +0.162 C 
ATOM     11  O   UNL     1       0.294  -1.184   1.899  0.00  0.00    -0.292 OA
ATOM     12  C   UNL     1      -1.062   0.028   3.391  0.00  0.00    +0.086 C 
ATOM     13  C   UNL     1      -2.351   1.835   4.554  0.00  0.00    +0.011 C 
ENDROOT
BRANCH   9  14
ATOM     14  C   UNL     1      -4.588   1.420   0.026  0.00  0.00    +0.040 A 
ATOM     15  C   UNL     1      -5.857   1.168   0.531  0.00  0.00    +0.024 A 
ATOM     16  C   UNL     1      -6.805   2.172   0.544  0.00  0.00    +0.014 A 
ATOM     17  C   UNL     1      -6.496   3.424   0.046  0.00  0.00    +0.055 A 
ATOM     18  C   UNL     1      -5.235   3.677  -0.462  0.00  0.00    +0.014 A 
ATOM     19  C   UNL     1      -4.280   2.679  -0.474  0.00  0.00    +0.024 A 
BRANCH  17  20
ATOM     20  C   UNL     1      -7.535   4.515   0.057  0.00  0.00    +0.417 C 
ATOM     21  F   UNL     1      -8.264   4.477  -1.137  0.00  0.00    -0.166 F 
ATOM     22  F   UNL     1      -8.401   4.324   1.138  0.00  0.00    -0.166 F 
ATOM     23  F   UNL     1      -6.905   5.758   0.179  0.00  0.00    -0.166 F 
ENDBRANCH  17  20
ENDBRANCH   9  14
BRANCH   6  24
ATOM     24  C   UNL     1      -0.170  -0.137  -1.014  0.00  0.00    +0.005 A 
ATOM     25  C   UNL     1       1.101  -0.443  -1.372  0.00  0.00    +0.014 A 
ATOM     26  C   UNL     1       1.886   0.532  -1.959  0.00  0.00    +0.041 A 
ATOM     27  C   UNL     1       1.361   1.766  -2.158  0.00  0.00    +0.164 A 
ATOM     28  S   UNL     1      -0.290   1.574  -1.507  0.00  0.00    -0.068 S 
BRANCH  27  29
ATOM     29  N   UNL     1       1.993   2.962  -2.759  0.00  0.00    +0.063 N 
ATOM     30  O   UNL     1       3.144   2.909  -3.154  0.00  0.00    -0.126 OA
ATOM     31  O   UNL     1       1.362   3.999  -2.859  0.00  0.00    -0.126 OA
ENDBRANCH  27  29
ENDBRANCH   6  24
BRANCH   8  32
ATOM     32  N   UNL     1      -4.589  -0.563  -1.934  0.00  0.00    -0.345 N 
ATOM     33  H   UNL     1      -5.372   0.001  -1.828  0.00  0.00    +0.144 HD
ATOM     34  H   UNL     1      -4.556  -1.216  -2.650  0.00  0.00    +0.144 HD
ENDBRANCH   8  32
BRANCH   7  35
ATOM     35  C   UNL     1      -2.308  -2.020  -2.415  0.00  0.00    +0.099 C 
ATOM     36  N   UNL     1      -2.245  -2.717  -3.310  0.00  0.00    -0.191 NA
ENDBRANCH   7  35
TORSDOF 6
