REMARK  Name = ZINC06265381
REMARK  8 active torsions:
REMARK  status: ('A' for Active; 'I' for Inactive)
REMARK    1  A    between atoms: C_1  and  C_2
REMARK    2  A    between atoms: C_2  and  C_3
REMARK    3  A    between atoms: C_3  and  C_4
REMARK    4  A    between atoms: C_4  and  C_6
REMARK    5  A    between atoms: C_4  and  N_7
REMARK    6  A    between atoms: C_14  and  C_21
REMARK    7  A    between atoms: C_18  and  O_20
REMARK    8  A    between atoms: C_25  and  N_27
REMARK                            x       y       z     vdW  Elec       q    Type
REMARK                         _______ _______ _______ _____ _____    ______ ____
ROOT
ATOM      1  N   UNL     1       1.551  -2.512   0.092  0.00  0.00    -0.264 N 
ATOM      2  C   UNL     1       1.081  -3.313  -0.948  0.00  0.00    +0.161 A 
ATOM      3  C   UNL     1       2.134  -3.525  -1.801  0.00  0.00    +0.079 A 
ATOM      4  C   UNL     1       3.259  -2.842  -1.280  0.00  0.00    +0.271 A 
ATOM      5  O   UNL     1       4.369  -2.811  -1.784  0.00  0.00    -0.266 OA
ATOM      6  N   UNL     1       2.897  -2.231  -0.143  0.00  0.00    -0.261 N 
ATOM      7  H   UNL     1       3.471  -1.689   0.420  0.00  0.00    +0.190 HD
ATOM      8  C   UNL     1       2.196  -4.317  -3.072  0.00  0.00    +0.116 C 
ATOM      9  S   UNL     1       0.656  -4.273  -3.996  0.00  0.00    -0.138 S 
ATOM     10  C   UNL     1      -0.549  -5.143  -2.984  0.00  0.00    +0.165 C 
ATOM     11  C   UNL     1      -0.903  -4.409  -1.750  0.00  0.00    +0.199 C 
ATOM     12  N   UNL     1      -0.182  -3.724  -0.982  0.00  0.00    -0.197 NA
ENDROOT
BRANCH   8  13
ATOM     13  C   UNL     1       3.296  -3.761  -3.938  0.00  0.00    -0.028 A 
ATOM     14  C   UNL     1       3.251  -2.443  -4.351  0.00  0.00    +0.005 A 
ATOM     15  C   UNL     1       4.261  -1.933  -5.146  0.00  0.00    +0.003 A 
ATOM     16  C   UNL     1       5.316  -2.741  -5.527  0.00  0.00    +0.033 A 
ATOM     17  C   UNL     1       5.361  -4.059  -5.113  0.00  0.00    +0.126 A 
ATOM     18  C   UNL     1       4.353  -4.568  -4.315  0.00  0.00    +0.037 A 
BRANCH  17  19
ATOM     19  N   UNL     1       6.490  -4.925  -5.521  0.00  0.00    +0.056 N 
ATOM     20  O   UNL     1       7.373  -4.479  -6.217  0.00  0.00    -0.126 OA
ATOM     21  O   UNL     1       6.530  -6.077  -5.159  0.00  0.00    -0.126 OA
ENDBRANCH  17  19
ENDBRANCH   8  13
BRANCH   1  22
ATOM     22  C   UNL     1       0.763  -2.041   1.233  0.00  0.00    +0.104 C 
ATOM     23  C   UNL     1       1.392  -2.549   2.532  0.00  0.00    +0.032 C 
BRANCH  22  24
ATOM     24  C   UNL     1       0.742  -0.511   1.242  0.00  0.00    +0.026 C 
BRANCH  24  26
ATOM     25  C   UNL     1      -0.019   1.526   0.010  0.00  0.00    +0.004 C 
ATOM     26  C   UNL     1       0.002  -0.004   0.002  0.00  0.00    -0.001 C 
ENDBRANCH  24  26
ENDBRANCH  22  24
ENDBRANCH   1  22
BRANCH  11  27
ATOM     27  O   UNL     1      -2.197  -4.487  -1.393  0.00  0.00    -0.495 OA
ATOM     28  H   UNL     1      -2.412  -4.003  -0.585  0.00  0.00    +0.293 HD
ENDBRANCH  11  27
TORSDOF 6
