REMARK  Name = ZINC58849193
REMARK  6 active torsions:
REMARK  status: ('A' for Active; 'I' for Inactive)
REMARK    1  A    between atoms: C_4  and  C_7
REMARK    2  A    between atoms: C_18  and  S_23
REMARK    3  A    between atoms: S_23  and  N_26
REMARK    4  A    between atoms: N_26  and  C_27
REMARK    5  A    between atoms: C_30  and  O_33
REMARK    6  A    between atoms: O_33  and  C_34
REMARK                            x       y       z     vdW  Elec       q    Type
REMARK                         _______ _______ _______ _____ _____    ______ ____
ROOT
ATOM      1  C   UNL     1       3.121  -1.100   0.509  0.00  0.00    +0.105 C 
ATOM      2  C   UNL     1       3.541  -1.279  -0.919  0.00  0.00    +0.029 C 
ATOM      3  C   UNL     1       2.398  -1.822  -1.801  0.00  0.00    +0.033 C 
ATOM      4  C   UNL     1       3.117  -2.569  -2.905  0.00  0.00    -0.030 C 
ATOM      5  C   UNL     1       4.353  -2.827  -2.566  0.00  0.00    -0.023 C 
ATOM      6  C   UNL     1       4.630  -2.317  -1.173  0.00  0.00    +0.049 C 
ATOM      7  C   UNL     1       4.564  -3.485  -0.229  0.00  0.00    -0.018 A 
ATOM      8  C   UNL     1       5.291  -4.625  -0.542  0.00  0.00    +0.034 A 
ATOM      9  C   UNL     1       5.254  -5.728   0.288  0.00  0.00    +0.109 A 
ATOM     10  C   UNL     1       4.489  -5.705   1.440  0.00  0.00    +0.030 A 
ATOM     11  C   UNL     1       3.766  -4.574   1.760  0.00  0.00    +0.025 A 
ATOM     12  C   UNL     1       3.807  -3.459   0.927  0.00  0.00    +0.031 A 
ATOM     13  N   UNL     1       3.114  -2.319   1.290  0.00  0.00    -0.336 N 
ATOM     14  H   UNL     1       2.576  -2.352   2.096  0.00  0.00    +0.147 HD
ENDROOT
BRANCH   1  18
ATOM     15  C   UNL     1      -0.812   0.565   0.563  0.00  0.00    +0.000 A 
ATOM     16  C   UNL     1       0.288   1.387   0.712  0.00  0.00    +0.000 A 
ATOM     17  C   UNL     1       1.561   0.849   0.695  0.00  0.00    +0.005 A 
ATOM     18  C   UNL     1       1.734  -0.513   0.529  0.00  0.00    -0.027 A 
ATOM     19  C   UNL     1       0.633  -1.336   0.382  0.00  0.00    +0.005 A 
ATOM     20  C   UNL     1      -0.640  -0.797   0.398  0.00  0.00    +0.000 A 
ENDBRANCH   1  18
BRANCH   9  21
ATOM     21  S   UNL     1       6.184  -7.168  -0.121  0.00  0.00    +0.072 S 
ATOM     22  O   UNL     1       5.680  -8.220   0.690  0.00  0.00    -0.150 OA
ATOM     23  O   UNL     1       6.208  -7.245  -1.540  0.00  0.00    -0.150 OA
BRANCH  21  24
ATOM     24  N   UNL     1       7.743  -6.899   0.365  0.00  0.00    -0.216 N 
ATOM     25  H   UNL     1       8.449  -6.812  -0.294  0.00  0.00    +0.174 HD
BRANCH  24  26
ATOM     26  C   UNL     1       8.043  -6.796   1.728  0.00  0.00    +0.048 A 
ATOM     27  C   UNL     1       7.267  -5.991   2.552  0.00  0.00    +0.028 A 
ATOM     28  C   UNL     1       7.564  -5.891   3.897  0.00  0.00    +0.048 A 
ATOM     29  C   UNL     1       8.636  -6.595   4.426  0.00  0.00    +0.129 A 
ATOM     30  C   UNL     1       9.411  -7.399   3.603  0.00  0.00    +0.048 A 
ATOM     31  C   UNL     1       9.113  -7.505   2.259  0.00  0.00    +0.028 A 
BRANCH  29  32
ATOM     32  O   UNL     1       8.927  -6.496   5.750  0.00  0.00    -0.456 OA
BRANCH  32  33
ATOM     33  C   UNL     1       8.200  -5.627   6.500  0.00  0.00    +0.128 A 
ATOM     34  C   UNL     1       6.910  -5.957   6.893  0.00  0.00    +0.046 A 
ATOM     35  C   UNL     1       6.174  -5.071   7.655  0.00  0.00    +0.004 A 
ATOM     36  C   UNL     1       6.720  -3.856   8.025  0.00  0.00    +0.000 A 
ATOM     37  C   UNL     1       8.004  -3.524   7.635  0.00  0.00    +0.004 A 
ATOM     38  C   UNL     1       8.748  -4.409   6.879  0.00  0.00    +0.046 A 
ENDBRANCH  32  33
ENDBRANCH  29  32
ENDBRANCH  24  26
ENDBRANCH  21  24
ENDBRANCH   9  21
TORSDOF 6
