REMARK  Name = ZINC47778183
REMARK  14 active torsions:
REMARK  status: ('A' for Active; 'I' for Inactive)
REMARK    1  A    between atoms: C_1  and  C_2
REMARK    2  A    between atoms: C_5  and  C_32
REMARK    3  A    between atoms: N_8  and  C_10
REMARK    4  A    between atoms: C_10  and  C_11
REMARK    5  A    between atoms: C_16  and  C_17
REMARK    6  A    between atoms: C_17  and  N_18
REMARK    7  A    between atoms: N_18  and  C_19
REMARK    8  A    between atoms: C_19  and  C_20
REMARK    9  A    between atoms: C_23  and  O_30
REMARK   10  A    between atoms: C_24  and  O_28
REMARK   11  A    between atoms: C_25  and  O_26
REMARK   12  A    between atoms: O_26  and  C_27
REMARK   13  A    between atoms: O_28  and  C_29
REMARK   14  A    between atoms: O_30  and  C_31
REMARK                            x       y       z     vdW  Elec       q    Type
REMARK                         _______ _______ _______ _____ _____    ______ ____
ROOT
ATOM      1  C   UNL     1       2.463   0.124   3.285  0.00  0.00    -0.046 C 
ENDROOT
BRANCH   1   7
ATOM      2  C   UNL     1       3.030  -2.175   2.475  0.00  0.00    -0.063 A 
ATOM      3  C   UNL     1       3.929  -3.101   1.980  0.00  0.00    +0.002 A 
ATOM      4  C   UNL     1       5.246  -2.739   1.766  0.00  0.00    +0.000 A 
ATOM      5  C   UNL     1       5.663  -1.451   2.047  0.00  0.00    +0.000 A 
ATOM      6  C   UNL     1       4.763  -0.525   2.542  0.00  0.00    +0.002 A 
ATOM      7  C   UNL     1       3.445  -0.886   2.751  0.00  0.00    -0.063 A 
BRANCH   2   8
ATOM      8  C   UNL     1       1.594  -2.570   2.708  0.00  0.00    -0.043 C 
BRANCH   8  14
ATOM      9  C   UNL     1       1.432  -5.222  -1.404  0.00  0.00    +0.005 C 
ATOM     10  C   UNL     1       1.313  -5.274   0.121  0.00  0.00    -0.031 C 
ATOM     11  C   UNL     1      -0.065  -5.821   0.508  0.00  0.00    +0.003 C 
ATOM     12  C   UNL     1      -0.203  -5.795   2.033  0.00  0.00    -0.031 C 
ATOM     13  C   UNL     1       0.016  -4.367   2.535  0.00  0.00    -0.075 C 
ATOM     14  N   UNL     1       1.359  -3.912   2.157  0.00  0.00    +0.383 N 
ATOM     15  C   UNL     1       1.477  -3.865   0.694  0.00  0.00    -0.075 C 
ATOM     16  C   UNL     1      -1.604  -6.267   2.426  0.00  0.00    +0.005 C 
ATOM     17  H   UNL     1       2.047  -4.551   2.528  0.00  0.00    -0.081 HD
ENDBRANCH   8  14
ENDBRANCH   2   8
ENDBRANCH   1   7
BRANCH   1  18
ATOM     18  N   UNL     1       2.228  -0.129   4.713  0.00  0.00    +0.384 N 
ATOM     19  H   UNL     1       1.853  -1.058   4.833  0.00  0.00    -0.085 HD
ATOM     20  H   UNL     1       3.098  -0.051   5.217  0.00  0.00    -0.085 HD
BRANCH  18  21
ATOM     21  C   UNL     1       1.270   0.856   5.234  0.00  0.00    -0.043 C 
BRANCH  21  22
ATOM     22  C   UNL     1       1.028   0.596   6.699  0.00  0.00    -0.019 A 
ATOM     23  C   UNL     1      -0.103  -0.089   7.101  0.00  0.00    +0.009 A 
ATOM     24  C   UNL     1      -0.329  -0.330   8.443  0.00  0.00    +0.050 A 
ATOM     25  C   UNL     1       0.579   0.115   9.392  0.00  0.00    +0.165 A 
ATOM     26  C   UNL     1       1.718   0.804   8.992  0.00  0.00    +0.204 A 
ATOM     27  C   UNL     1       1.944   1.039   7.640  0.00  0.00    +0.166 A 
BRANCH  27  28
ATOM     28  O   UNL     1       3.060   1.708   7.243  0.00  0.00    -0.491 OA
ATOM     29  C   UNL     1       2.963   3.130   7.146  0.00  0.00    +0.277 C 
ENDBRANCH  27  28
BRANCH  26  30
ATOM     30  O   UNL     1       2.612   1.242   9.919  0.00  0.00    -0.488 OA
ATOM     31  C   UNL     1       3.671   0.350  10.272  0.00  0.00    +0.277 C 
ENDBRANCH  26  30
BRANCH  25  32
ATOM     32  O   UNL     1       0.355  -0.121  10.712  0.00  0.00    -0.491 OA
ATOM     33  C   UNL     1      -0.836  -0.835  11.051  0.00  0.00    +0.277 C 
ENDBRANCH  25  32
ENDBRANCH  21  22
ENDBRANCH  18  21
ENDBRANCH   1  18
TORSDOF 9
