REMARK  Name = ZINC28084342
REMARK  4 active torsions:
REMARK  status: ('A' for Active; 'I' for Inactive)
REMARK    1  A    between atoms: C_6  and  C_7
REMARK    2  A    between atoms: C_10  and  S_13
REMARK    3  A    between atoms: S_13  and  C_14
REMARK    4  A    between atoms: C_14  and  C_15
REMARK                            x       y       z     vdW  Elec       q    Type
REMARK                         _______ _______ _______ _____ _____    ______ ____
ROOT
ATOM      1  S   UNL     1      -5.136   4.545   1.723  0.00  0.00    -0.080 S 
ENDROOT
BRANCH   1   5
ATOM      2  C   UNL     1      -8.502   6.527   1.735  0.00  0.00    +0.182 A 
ATOM      3  N   UNL     1      -7.385   6.068   2.393  0.00  0.00    -0.201 NA
ATOM      4  H   UNL     1      -7.115   4.980  -0.647  0.00  0.00    +0.191 HD
ATOM      5  C   UNL     1      -6.672   5.366   1.462  0.00  0.00    +0.185 A 
ATOM      6  N   UNL     1      -7.346   5.419   0.335  0.00  0.00    -0.253 N 
ATOM      7  N   UNL     1      -8.421   6.104   0.495  0.00  0.00    -0.152 NA
BRANCH   2  13
ATOM      8  C   UNL     1      -9.540   7.724   3.658  0.00  0.00    +0.013 A 
ATOM      9  C   UNL     1     -10.555   8.490   4.193  0.00  0.00    +0.021 A 
ATOM     10  C   UNL     1     -11.627   8.871   3.404  0.00  0.00    +0.041 A 
ATOM     11  C   UNL     1     -11.685   8.492   2.074  0.00  0.00    +0.021 A 
ATOM     12  C   UNL     1     -10.673   7.731   1.526  0.00  0.00    +0.013 A 
ATOM     13  C   UNL     1      -9.590   7.343   2.316  0.00  0.00    +0.021 A 
ATOM     14 CL   UNL     1     -12.905   9.828   4.087  0.00  0.00    -0.084 Cl
ENDBRANCH   2  13
ENDBRANCH   1   5
BRANCH   1  15
ATOM     15  C   UNL     1      -4.856   3.867   0.069  0.00  0.00    +0.133 C 
BRANCH  15  16
ATOM     16  C   UNL     1      -3.559   3.099   0.052  0.00  0.00    +0.059 A 
ATOM     17  C   UNL     1      -3.574   1.718   0.044  0.00  0.00    +0.094 A 
ATOM     18  C   UNL     1      -2.357   1.028   0.029  0.00  0.00    +0.259 A 
ATOM     19  O   UNL     1      -2.336  -0.193   0.022  0.00  0.00    -0.267 OA
ATOM     20  N   UNL     1      -1.206   1.733   0.017  0.00  0.00    -0.267 N 
ATOM     21  C   UNL     1      -0.013   1.076   0.008  0.00  0.00    +0.116 A 
ATOM     22  C   UNL     1       1.154   1.761   0.001  0.00  0.00    +0.058 A 
ATOM     23  C   UNL     1       1.147   3.164   0.009  0.00  0.00    +0.025 A 
ATOM     24  C   UNL     1      -0.041   3.830   0.024  0.00  0.00    +0.048 A 
ATOM     25  C   UNL     1      -1.244   3.099   0.031  0.00  0.00    +0.141 A 
ATOM     26  N   UNL     1      -2.406   3.750   0.045  0.00  0.00    -0.233 NA
ATOM     27 CL   UNL     1       2.663   0.902  -0.018  0.00  0.00    -0.082 Cl
ENDBRANCH  15  16
ENDBRANCH   1  15
TORSDOF 4
