REMARK  Name = ZINC27348228
REMARK  10 active torsions:
REMARK  status: ('A' for Active; 'I' for Inactive)
REMARK    1  A    between atoms: C_1  and  N_2
REMARK    2  A    between atoms: N_2  and  C_3
REMARK    3  A    between atoms: N_2  and  C_4
REMARK    4  A    between atoms: C_4  and  C_6
REMARK    5  A    between atoms: C_4  and  C_24
REMARK    6  A    between atoms: C_6  and  N_7
REMARK    7  A    between atoms: C_8  and  C_10
REMARK    8  A    between atoms: C_10  and  C_11
REMARK    9  A    between atoms: C_11  and  C_12
REMARK   10  A    between atoms: C_15  and  C_17
REMARK                            x       y       z     vdW  Elec       q    Type
REMARK                         _______ _______ _______ _____ _____    ______ ____
ROOT
ATOM      1  N   UNL     1       1.691   1.488  -2.059  0.00  0.00    -0.317 N 
ATOM      2  C   UNL     1       2.624   2.144  -2.776  0.00  0.00    +0.213 C 
ATOM      3  O   UNL     1       3.152   3.136  -2.320  0.00  0.00    -0.276 OA
ATOM      4  H   UNL     1       1.212   0.588  -2.473  0.00  0.00    +0.149 HD
ENDROOT
BRANCH   1   5
ATOM      5  C   UNL     1       1.314   1.972  -0.729  0.00  0.00    +0.093 C 
BRANCH   5   6
ATOM      6  C   UNL     1       0.243   1.053  -0.136  0.00  0.00    -0.020 C 
BRANCH   6   7
ATOM      7  C   UNL     1      -0.232   1.619   1.177  0.00  0.00    -0.041 A 
ATOM      8  C   UNL     1      -0.174   2.981   1.405  0.00  0.00    +0.003 A 
ATOM      9  C   UNL     1      -0.615   3.500   2.608  0.00  0.00    +0.000 A 
ATOM     10  C   UNL     1      -1.105   2.656   3.588  0.00  0.00    +0.001 A 
ATOM     11  C   UNL     1      -1.158   1.294   3.363  0.00  0.00    +0.020 A 
ATOM     12  C   UNL     1      -0.722   0.774   2.158  0.00  0.00    +0.043 A 
ATOM     13 CL   UNL     1      -0.788  -0.938   1.875  0.00  0.00    -0.083 Cl
ENDBRANCH   6   7
BRANCH   6  15
ATOM     14  C   UNL     1      -1.833  -0.085  -0.640  0.00  0.00    -0.096 C 
ATOM     15  N   UNL     1      -0.889   0.957  -1.067  0.00  0.00    +0.382 N 
ATOM     16  C   UNL     1      -1.564   2.253  -1.210  0.00  0.00    -0.096 C 
ATOM     17  H   UNL     1      -0.493   0.670  -2.052  0.00  0.00    -0.082 HD
ENDBRANCH   6  15
ENDBRANCH   5   6
ENDBRANCH   1   5
BRANCH   2  18
ATOM     18  C   UNL     1       3.011   1.646  -4.144  0.00  0.00    +0.105 C 
BRANCH  18  19
ATOM     19  C   UNL     1       4.082   2.565  -4.737  0.00  0.00    +0.105 C 
BRANCH  19  20
ATOM     20  C   UNL     1       4.469   2.067  -6.106  0.00  0.00    +0.197 A 
ATOM     21  N   UNL     1       3.906   2.420  -7.227  0.00  0.00    -0.221 NA
ATOM     22  C   UNL     1       4.510   1.777  -8.238  0.00  0.00    +0.161 A 
ATOM     23  C   UNL     1       5.485   0.998  -7.703  0.00  0.00    +0.157 A 
ATOM     24  O   UNL     1       5.452   1.194  -6.366  0.00  0.00    -0.440 OA
BRANCH  23  25
ATOM     25  C   UNL     1       6.409   0.112  -8.441  0.00  0.00    +0.037 A 
ATOM     26  C   UNL     1       5.911  -0.797  -9.376  0.00  0.00    +0.013 A 
ATOM     27  C   UNL     1       6.779  -1.622 -10.062  0.00  0.00    +0.001 A 
ATOM     28  C   UNL     1       8.140  -1.550  -9.825  0.00  0.00    +0.001 A 
ATOM     29  C   UNL     1       8.641  -0.652  -8.899  0.00  0.00    +0.021 A 
ATOM     30  C   UNL     1       7.784   0.183  -8.210  0.00  0.00    +0.052 A 
ATOM     31 CL   UNL     1       8.415   1.315  -7.055  0.00  0.00    -0.083 Cl
ENDBRANCH  23  25
ENDBRANCH  19  20
ENDBRANCH  18  19
ENDBRANCH   2  18
TORSDOF 8
