REMARK  Name = ZINC24148216
REMARK  10 active torsions:
REMARK  status: ('A' for Active; 'I' for Inactive)
REMARK    1  A    between atoms: C_1  and  C_2
REMARK    2  A    between atoms: C_4  and  C_30
REMARK    3  A    between atoms: C_6  and  C_29
REMARK    4  A    between atoms: C_7  and  S_8
REMARK    5  A    between atoms: S_8  and  N_11
REMARK    6  A    between atoms: N_14  and  C_17
REMARK    7  A    between atoms: C_17  and  C_18
REMARK    8  A    between atoms: C_30  and  C_31
REMARK    9  A    between atoms: C_30  and  C_32
REMARK   10  A    between atoms: C_30  and  C_33
REMARK                            x       y       z     vdW  Elec       q    Type
REMARK                         _______ _______ _______ _____ _____    ______ ____
ROOT
ATOM      1  N   UNL     1       2.284   7.601  -0.826  0.00  0.00    -0.174 NA
ATOM      2  C   UNL     1       2.871   7.584   0.522  0.00  0.00    +0.125 C 
ATOM      3  C   UNL     1       3.795   6.367   0.635  0.00  0.00    +0.102 C 
ATOM      4  N   UNL     1       3.051   5.155   0.267  0.00  0.00    -0.293 NA
ATOM      5  C   UNL     1       2.611   5.205  -1.134  0.00  0.00    +0.102 C 
ATOM      6  C   UNL     1       1.639   6.375  -1.319  0.00  0.00    +0.125 C 
ENDROOT
BRANCH   1   7
ATOM      7  S   UNL     1       2.347   8.965  -1.763  0.00  0.00    +0.061 S 
ATOM      8  O   UNL     1       1.188   8.946  -2.586  0.00  0.00    -0.153 OA
ATOM      9  O   UNL     1       2.644  10.045  -0.889  0.00  0.00    -0.153 OA
BRANCH   7  16
ATOM     10  C   UNL     1       2.154   8.099  -4.655  0.00  0.00    +0.046 C 
ATOM     11  C   UNL     1       3.543   8.390  -4.149  0.00  0.00    -0.024 A 
ATOM     12  C   UNL     1       4.628   8.260  -4.995  0.00  0.00    +0.009 A 
ATOM     13  C   UNL     1       5.903   8.523  -4.529  0.00  0.00    -0.041 A 
ATOM     14  C   UNL     1       6.092   8.920  -3.219  0.00  0.00    +0.009 A 
ATOM     15  C   UNL     1       5.006   9.055  -2.374  0.00  0.00    -0.024 A 
ATOM     16  C   UNL     1       3.731   8.793  -2.840  0.00  0.00    +0.111 A 
ATOM     17  C   UNL     1       5.212   9.488  -0.946  0.00  0.00    +0.046 C 
BRANCH  13  18
ATOM     18  C   UNL     1       7.087   8.376  -5.450  0.00  0.00    -0.013 C 
ATOM     19  C   UNL     1       8.049   7.331  -4.882  0.00  0.00    +0.015 C 
ATOM     20  C   UNL     1       6.605   7.928  -6.832  0.00  0.00    +0.015 C 
ATOM     21  C   UNL     1       7.808   9.720  -5.572  0.00  0.00    +0.015 C 
ENDBRANCH  13  18
ENDBRANCH   7  16
ENDBRANCH   1   7
BRANCH   4  22
ATOM     22  C   UNL     1       3.848   3.948   0.526  0.00  0.00    +0.158 C 
BRANCH  22  23
ATOM     23  C   UNL     1       2.976   2.728   0.372  0.00  0.00    +0.124 A 
ATOM     24  N   UNL     1       3.536   1.507   0.574  0.00  0.00    -0.309 N 
ATOM     25  C   UNL     1       2.798   0.380   0.440  0.00  0.00    +0.259 A 
ATOM     26  O   UNL     1       3.287  -0.720   0.617  0.00  0.00    -0.267 OA
ATOM     27  C   UNL     1       1.381   0.538   0.081  0.00  0.00    +0.065 A 
ATOM     28  C   UNL     1       0.534  -0.557  -0.078  0.00  0.00    +0.015 A 
ATOM     29  C   UNL     1      -0.782  -0.352  -0.428  0.00  0.00    +0.001 A 
ATOM     30  C   UNL     1      -1.272   0.934  -0.614  0.00  0.00    +0.002 A 
ATOM     31  C   UNL     1      -0.458   2.031  -0.438  0.00  0.00    +0.028 A 
ATOM     32  C   UNL     1       0.885   1.848  -0.102  0.00  0.00    +0.078 A 
ATOM     33  N   UNL     1       1.729   2.899   0.054  0.00  0.00    -0.232 NA
ATOM     34  H   UNL     1       4.598   1.427   0.848  0.00  0.00    +0.170 HD
ENDBRANCH  22  23
ENDBRANCH   4  22
TORSDOF 5
