REMARK  Name = ZINC60155896
REMARK  13 active torsions:
REMARK  status: ('A' for Active; 'I' for Inactive)
REMARK    1  A    between atoms: C_1  and  C_2
REMARK    2  A    between atoms: C_5  and  C_8
REMARK    3  A    between atoms: C_8  and  C_10
REMARK    4  A    between atoms: C_8  and  N_31
REMARK    5  A    between atoms: C_10  and  N_11
REMARK    6  A    between atoms: C_12  and  C_14
REMARK    7  A    between atoms: C_14  and  N_15
REMARK    8  A    between atoms: C_21  and  C_24
REMARK    9  A    between atoms: C_24  and  C_25
REMARK   10  A    between atoms: C_24  and  C_26
REMARK   11  A    between atoms: C_24  and  C_27
REMARK   12  A    between atoms: N_31  and  C_32
REMARK   13  A    between atoms: N_31  and  C_33
REMARK                            x       y       z     vdW  Elec       q    Type
REMARK                         _______ _______ _______ _____ _____    ______ ____
ROOT
ATOM      1  C   UNL     1      -2.065  -8.633   0.587  0.00  0.00    +0.213 C 
ENDROOT
BRANCH   1   2
ATOM      2  N   UNL     1      -3.373  -9.239   0.850  0.00  0.00    -0.215 N 
ATOM      3  C   UNL     1      -3.837  -9.536   2.081  0.00  0.00    +0.247 C 
ATOM      4  O   UNL     1      -3.275  -9.358   3.140  0.00  0.00    -0.273 OA
ATOM      5  C   UNL     1      -5.207 -10.135   1.862  0.00  0.00    +0.113 C 
ATOM      6  C   UNL     1      -6.274  -9.285   2.542  0.00  0.00    +0.035 C 
ATOM      7  C   UNL     1      -6.049  -9.296   4.056  0.00  0.00    +0.006 C 
ATOM      8  C   UNL     1      -6.115 -10.736   4.570  0.00  0.00    -0.005 C 
ATOM      9  C   UNL     1      -5.027 -11.572   3.895  0.00  0.00    +0.006 C 
ATOM     10  C   UNL     1      -5.248 -11.569   2.380  0.00  0.00    +0.035 C 
ATOM     11  N   UNL     1      -5.379 -10.109   0.404  0.00  0.00    -0.285 N 
ATOM     12  C   UNL     1      -4.257  -9.563  -0.102  0.00  0.00    +0.310 C 
ATOM     13  O   UNL     1      -4.067  -9.387  -1.290  0.00  0.00    -0.252 OA
ATOM     14  H   UNL     1      -6.150 -10.420  -0.096  0.00  0.00    +0.151 HD
BRANCH   8  15
ATOM     15  C   UNL     1      -5.901 -10.747   6.085  0.00  0.00    -0.035 C 
ATOM     16  C   UNL     1      -6.991  -9.913   6.761  0.00  0.00    +0.011 C 
ATOM     17  C   UNL     1      -5.967 -12.186   6.599  0.00  0.00    +0.011 C 
ATOM     18  C   UNL     1      -4.529 -10.152   6.410  0.00  0.00    +0.011 C 
ENDBRANCH   8  15
ENDBRANCH   1   2
BRANCH   1  20
ATOM     19  N   UNL     1      -1.115  -6.359   0.374  0.00  0.00    -0.315 N 
ATOM     20  C   UNL     1      -2.197  -7.131   0.595  0.00  0.00    +0.231 C 
ATOM     21  O   UNL     1      -3.277  -6.619   0.800  0.00  0.00    -0.274 OA
ATOM     22  H   UNL     1      -0.252  -6.769   0.210  0.00  0.00    +0.149 HD
BRANCH  19  23
ATOM     23  C   UNL     1      -1.244  -4.899   0.382  0.00  0.00    +0.093 C 
BRANCH  23  24
ATOM     24  C   UNL     1       0.090  -4.268  -0.022  0.00  0.00    -0.021 C 
BRANCH  24  29
ATOM     25  C   UNL     1       1.299  -5.664  -5.498  0.00  0.00    +0.044 C 
ATOM     26  C   UNL     1       0.984  -5.300  -4.070  0.00  0.00    -0.050 A 
ATOM     27  C   UNL     1       1.585  -5.987  -3.032  0.00  0.00    +0.003 A 
ATOM     28  C   UNL     1       1.296  -5.653  -1.722  0.00  0.00    +0.002 A 
ATOM     29  C   UNL     1       0.406  -4.631  -1.450  0.00  0.00    -0.059 A 
ATOM     30  C   UNL     1      -0.195  -3.943  -2.487  0.00  0.00    +0.002 A 
ATOM     31  C   UNL     1       0.097  -4.274  -3.797  0.00  0.00    +0.003 A 
ENDBRANCH  24  29
BRANCH  24  32
ATOM     32  N   UNL     1      -0.002  -2.807   0.103  0.00  0.00    +0.382 N 
ATOM     33  C   UNL     1      -0.293  -2.452   1.498  0.00  0.00    -0.096 C 
ATOM     34  C   UNL     1       1.273  -2.200  -0.302  0.00  0.00    -0.096 C 
ATOM     35  H   UNL     1      -0.742  -2.465  -0.492  0.00  0.00    -0.082 HD
ENDBRANCH  24  32
ENDBRANCH  23  24
ENDBRANCH  19  23
ENDBRANCH   1  20
TORSDOF 7
