REMARK  Name = ZINC19234217
REMARK  6 active torsions:
REMARK  status: ('A' for Active; 'I' for Inactive)
REMARK    1  A    between atoms: C_1  and  C_2
REMARK    2  A    between atoms: C_7  and  C_15
REMARK    3  A    between atoms: C_13  and  C_14
REMARK    4  A    between atoms: C_15  and  C_17
REMARK    5  A    between atoms: C_15  and  N_28
REMARK    6  A    between atoms: N_21  and  C_22
REMARK                            x       y       z     vdW  Elec       q    Type
REMARK                         _______ _______ _______ _____ _____    ______ ____
ROOT
ATOM      1  C   UNL     1       0.005   1.186  -2.409  0.00  0.00    +0.163 C 
ENDROOT
BRANCH   1   8
ATOM      2  C   UNL     1       6.705   5.373  -3.507  0.00  0.00    +0.044 C 
ATOM      3  C   UNL     1       5.367   4.680  -3.499  0.00  0.00    -0.046 A 
ATOM      4  C   UNL     1       4.469   4.907  -4.534  0.00  0.00    +0.004 A 
ATOM      5  C   UNL     1       3.252   4.288  -4.546  0.00  0.00    +0.010 A 
ATOM      6  C   UNL     1       2.906   3.417  -3.507  0.00  0.00    -0.001 A 
ATOM      7  C   UNL     1       1.612   2.732  -3.492  0.00  0.00    +0.021 A 
ATOM      8  C   UNL     1       1.330   1.903  -2.457  0.00  0.00    +0.042 A 
ATOM      9  C   UNL     1       2.275   1.704  -1.428  0.00  0.00    +0.254 A 
ATOM     10  O   UNL     1       2.003   0.950  -0.509  0.00  0.00    -0.268 OA
ATOM     11  N   UNL     1       3.467   2.325  -1.435  0.00  0.00    -0.322 N 
ATOM     12  H   UNL     1       4.183   2.151  -0.619  0.00  0.00    +0.169 HD
ATOM     13  C   UNL     1       3.813   3.185  -2.456  0.00  0.00    +0.052 A 
ATOM     14  C   UNL     1       5.047   3.827  -2.465  0.00  0.00    -0.024 A 
ATOM     15  C   UNL     1       6.030   3.591  -1.348  0.00  0.00    +0.046 C 
ENDBRANCH   1   8
BRANCH   1  16
ATOM     16  N   UNL     1      -0.647   1.448  -1.119  0.00  0.00    -0.284 NA
ATOM     17  C   UNL     1      -1.892   0.675  -0.991  0.00  0.00    +0.090 C 
ATOM     18  C   UNL     1      -2.326   0.694   0.475  0.00  0.00    +0.051 C 
ATOM     19  C   UNL     1      -2.332   2.110   0.992  0.00  0.00    -0.042 A 
ATOM     20  C   UNL     1      -3.020   2.383   2.165  0.00  0.00    +0.004 A 
ATOM     21  C   UNL     1      -3.048   3.665   2.674  0.00  0.00    +0.000 A 
ATOM     22  C   UNL     1      -2.387   4.683   2.012  0.00  0.00    +0.000 A 
ATOM     23  C   UNL     1      -1.704   4.412   0.844  0.00  0.00    +0.005 A 
ATOM     24  C   UNL     1      -1.673   3.120   0.332  0.00  0.00    -0.030 A 
ATOM     25  C   UNL     1      -0.919   2.879  -0.950  0.00  0.00    +0.120 C 
ENDBRANCH   1  16
BRANCH   1  26
ATOM     26  C   UNL     1       0.230  -0.296  -2.566  0.00  0.00    +0.173 A 
ATOM     27  N   UNL     1       0.708  -1.115  -1.661  0.00  0.00    -0.111 NA
ATOM     28  N   UNL     1       0.746  -2.296  -2.174  0.00  0.00    -0.023 NA
ATOM     29  N   UNL     1       0.313  -2.251  -3.385  0.00  0.00    -0.044 NA
ATOM     30  N   UNL     1      -0.015  -1.035  -3.664  0.00  0.00    -0.224 N 
BRANCH  30  31
ATOM     31  C   UNL     1      -0.553  -0.549  -4.937  0.00  0.00    +0.111 C 
ATOM     32  C   UNL     1      -1.868  -1.268  -5.242  0.00  0.00    +0.027 C 
ATOM     33  C   UNL     1      -2.431  -0.760  -6.572  0.00  0.00    +0.002 C 
ATOM     34  C   UNL     1      -1.425  -1.040  -7.690  0.00  0.00    +0.000 C 
ATOM     35  C   UNL     1      -0.110  -0.320  -7.385  0.00  0.00    +0.002 C 
ATOM     36  C   UNL     1       0.453  -0.828  -6.056  0.00  0.00    +0.027 C 
ENDBRANCH  30  31
ENDBRANCH   1  26
TORSDOF 4
