REMARK  Name = ZINC37064002
REMARK  4 active torsions:
REMARK  status: ('A' for Active; 'I' for Inactive)
REMARK    1  A    between atoms: C_5  and  S_8
REMARK    2  A    between atoms: C_6  and  N_7
REMARK    3  A    between atoms: S_8  and  N_11
REMARK    4  A    between atoms: N_11  and  C_12
REMARK                            x       y       z     vdW  Elec       q    Type
REMARK                         _______ _______ _______ _____ _____    ______ ____
ROOT
ATOM      1  C   UNL     1       0.059   1.360   0.452  0.00  0.00    +0.040 A 
ATOM      2  C   UNL     1       1.256   2.043   0.348  0.00  0.00    +0.021 A 
ATOM      3  C   UNL     1       2.388   1.392  -0.109  0.00  0.00    +0.032 A 
ATOM      4  C   UNL     1       2.325   0.056  -0.463  0.00  0.00    +0.047 A 
ATOM      5  C   UNL     1       1.132  -0.632  -0.360  0.00  0.00    +0.145 A 
ATOM      6  C   UNL     1      -0.007   0.019   0.098  0.00  0.00    +0.054 A 
ATOM      7 BR   UNL     1       3.875  -0.829  -1.087  0.00  0.00    -0.048 Br
ATOM      8 BR   UNL     1       1.346   3.869   0.830  0.00  0.00    -0.050 Br
ENDROOT
BRANCH   6   9
ATOM      9  N   UNL     1      -1.215  -0.674   0.202  0.00  0.00    -0.356 N 
ATOM     10  H   UNL     1      -2.055  -0.189   0.196  0.00  0.00    +0.142 HD
ATOM     11  H   UNL     1      -1.214  -1.641   0.281  0.00  0.00    +0.142 HD
ENDBRANCH   6   9
BRANCH   5  12
ATOM     12  S   UNL     1       1.053  -2.334  -0.811  0.00  0.00    +0.096 S 
ATOM     13  O   UNL     1      -0.304  -2.607  -1.132  0.00  0.00    -0.148 OA
ATOM     14  O   UNL     1       2.114  -2.560  -1.730  0.00  0.00    -0.148 OA
BRANCH  12  15
ATOM     15  N   UNL     1       1.405  -3.217   0.544  0.00  0.00    -0.068 NA
BRANCH  15  16
ATOM     16  C   UNL     1       1.418  -4.602   0.486  0.00  0.00    +0.223 A 
ATOM     17  N   UNL     1       1.187  -5.416  -0.536  0.00  0.00    -0.123 NA
ATOM     18  N   UNL     1       1.241  -6.670  -0.413  0.00  0.00    -0.148 NA
ATOM     19  C   UNL     1       1.528  -7.251   0.734  0.00  0.00    +0.183 A 
ATOM     20  S   UNL     1       1.758  -5.807   1.767  0.00  0.00    -0.036 S 
ENDBRANCH  15  16
ENDBRANCH  12  15
ENDBRANCH   5  12
TORSDOF 4
