REMARK  Name = ZINC39534986
REMARK  8 active torsions:
REMARK  status: ('A' for Active; 'I' for Inactive)
REMARK    1  A    between atoms: C_1  and  C_2
REMARK    2  A    between atoms: C_7  and  N_12
REMARK    3  A    between atoms: C_9  and  C_11
REMARK    4  A    between atoms: C_13  and  C_15
REMARK    5  A    between atoms: C_15  and  N_16
REMARK    6  A    between atoms: C_19  and  C_23
REMARK    7  A    between atoms: C_19  and  C_30
REMARK    8  A    between atoms: C_23  and  C_24
REMARK                            x       y       z     vdW  Elec       q    Type
REMARK                         _______ _______ _______ _____ _____    ______ ____
ROOT
ATOM      1  N   UNL     1       3.328  -5.574   3.360  0.00  0.00    -0.215 N 
ATOM      2  C   UNL     1       2.663  -6.722   3.593  0.00  0.00    +0.252 C 
ATOM      3  O   UNL     1       1.544  -6.842   4.046  0.00  0.00    -0.272 OA
ATOM      4  C   UNL     1       3.603  -7.833   3.170  0.00  0.00    +0.142 C 
ATOM      5  N   UNL     1       4.801  -7.115   2.705  0.00  0.00    -0.281 N 
ATOM      6  C   UNL     1       4.543  -5.802   2.850  0.00  0.00    +0.310 C 
ATOM      7  O   UNL     1       5.328  -4.923   2.553  0.00  0.00    -0.252 OA
ATOM      8  H   UNL     1       5.616  -7.510   2.358  0.00  0.00    +0.152 HD
ENDROOT
BRANCH   4   9
ATOM      9  C   UNL     1       3.000  -8.641   2.050  0.00  0.00    -0.015 A 
ATOM     10  C   UNL     1       2.224  -9.749   2.336  0.00  0.00    +0.006 A 
ATOM     11  C   UNL     1       1.671 -10.489   1.308  0.00  0.00    +0.000 A 
ATOM     12  C   UNL     1       1.893 -10.121  -0.006  0.00  0.00    +0.000 A 
ATOM     13  C   UNL     1       2.668  -9.013  -0.292  0.00  0.00    +0.000 A 
ATOM     14  C   UNL     1       3.218  -8.270   0.736  0.00  0.00    +0.006 A 
ENDBRANCH   4   9
BRANCH   1  15
ATOM     15  C   UNL     1       2.785  -4.239   3.627  0.00  0.00    +0.213 C 
BRANCH  15  17
ATOM     16  N   UNL     1       1.471  -2.526   2.420  0.00  0.00    -0.311 N 
ATOM     17  C   UNL     1       2.056  -3.740   2.406  0.00  0.00    +0.231 C 
ATOM     18  O   UNL     1       1.996  -4.431   1.411  0.00  0.00    -0.274 OA
ATOM     19  H   UNL     1       1.520  -1.974   3.216  0.00  0.00    +0.149 HD
BRANCH  16  25
ATOM     20  C   UNL     1      -0.019   1.526   0.010  0.00  0.00    +0.008 C 
ATOM     21  C   UNL     1       0.002  -0.004   0.002  0.00  0.00    -0.009 C 
ATOM     22  C   UNL     1      -1.433  -0.534   0.013  0.00  0.00    +0.003 C 
ATOM     23  C   UNL     1      -1.413  -2.063   0.004  0.00  0.00    +0.002 C 
ATOM     24  C   UNL     1      -0.673  -2.570   1.244  0.00  0.00    +0.022 C 
ATOM     25  C   UNL     1       0.763  -2.041   1.233  0.00  0.00    +0.076 C 
ATOM     26  C   UNL     1       0.742  -0.511   1.242  0.00  0.00    +0.009 C 
ATOM     27  C   UNL     1       0.026  -0.018   2.500  0.00  0.00    +0.009 C 
ENDBRANCH  16  25
ENDBRANCH  15  17
ENDBRANCH   1  15
BRANCH   4  28
ATOM     28  C   UNL     1       3.943  -8.733   4.361  0.00  0.00    +0.075 C 
BRANCH  28  29
ATOM     29  C   UNL     1       4.593  -7.909   5.443  0.00  0.00    -0.045 A 
ATOM     30  C   UNL     1       5.966  -7.750   5.460  0.00  0.00    +0.004 A 
ATOM     31  C   UNL     1       6.562  -6.995   6.452  0.00  0.00    +0.000 A 
ATOM     32  C   UNL     1       5.785  -6.398   7.427  0.00  0.00    +0.000 A 
ATOM     33  C   UNL     1       4.412  -6.556   7.410  0.00  0.00    +0.000 A 
ATOM     34  C   UNL     1       3.815  -7.308   6.415  0.00  0.00    +0.004 A 
ENDBRANCH  28  29
ENDBRANCH   4  28
TORSDOF 6
