REMARK  Name = ZINC08175569
REMARK  12 active torsions:
REMARK  status: ('A' for Active; 'I' for Inactive)
REMARK    1  A    between atoms: C_1  and  C_2
REMARK    2  A    between atoms: C_5  and  N_9
REMARK    3  A    between atoms: C_6  and  C_8
REMARK    4  A    between atoms: C_10  and  C_12
REMARK    5  A    between atoms: C_12  and  C_14
REMARK    6  A    between atoms: C_12  and  S_15
REMARK    7  A    between atoms: S_15  and  C_16
REMARK    8  A    between atoms: C_19  and  C_21
REMARK    9  A    between atoms: C_24  and  C_27
REMARK   10  A    between atoms: C_27  and  C_28
REMARK   11  A    between atoms: C_27  and  C_29
REMARK   12  A    between atoms: C_27  and  C_30
REMARK                            x       y       z     vdW  Elec       q    Type
REMARK                         _______ _______ _______ _____ _____    ______ ____
ROOT
ATOM      1  S   UNL     1       3.474  -2.614   0.871  0.00  0.00    -0.053 S 
ENDROOT
BRANCH   1   2
ATOM      2  C   UNL     1       5.142  -3.162   1.013  0.00  0.00    +0.278 A 
ATOM      3  N   UNL     1       6.215  -2.485   0.675  0.00  0.00    -0.101 NA
ATOM      4  N   UNL     1       7.262  -3.191   0.919  0.00  0.00    -0.106 NA
ATOM      5  C   UNL     1       6.901  -4.350   1.413  0.00  0.00    +0.249 A 
ATOM      6  O   UNL     1       5.551  -4.356   1.483  0.00  0.00    -0.411 OA
BRANCH   5   7
ATOM      7  C   UNL     1       7.803  -5.447   1.819  0.00  0.00    +0.039 A 
ATOM      8  C   UNL     1       7.277  -6.631   2.339  0.00  0.00    +0.013 A 
ATOM      9  C   UNL     1       8.125  -7.653   2.713  0.00  0.00    +0.005 A 
ATOM     10  C   UNL     1       9.494  -7.503   2.583  0.00  0.00    -0.042 A 
ATOM     11  C   UNL     1      10.023  -6.330   2.072  0.00  0.00    +0.005 A 
ATOM     12  C   UNL     1       9.186  -5.302   1.691  0.00  0.00    +0.013 A 
BRANCH  10  13
ATOM     13  C   UNL     1      10.415  -8.621   2.998  0.00  0.00    -0.013 C 
ATOM     14  C   UNL     1      11.354  -8.126   4.101  0.00  0.00    +0.015 C 
ATOM     15  C   UNL     1       9.586  -9.795   3.524  0.00  0.00    +0.015 C 
ATOM     16  C   UNL     1      11.239  -9.078   1.793  0.00  0.00    +0.015 C 
ENDBRANCH  10  13
ENDBRANCH   5   7
ENDBRANCH   1   2
BRANCH   1  17
ATOM     17  C   UNL     1       3.744  -0.963   0.179  0.00  0.00    +0.139 C 
ATOM     18  C   UNL     1       4.362  -1.089  -1.215  0.00  0.00    +0.029 C 
BRANCH  17  20
ATOM     19  N   UNL     1       2.403   1.107  -0.014  0.00  0.00    -0.284 N 
ATOM     20  C   UNL     1       2.426  -0.238   0.081  0.00  0.00    +0.230 C 
ATOM     21  O   UNL     1       1.388  -0.864   0.088  0.00  0.00    -0.274 OA
ATOM     22  H   UNL     1       3.233   1.603  -0.085  0.00  0.00    +0.155 HD
BRANCH  19  27
ATOM     23  C   UNL     1      -2.555   3.864   0.001  0.00  0.00    +0.044 C 
ATOM     24  C   UNL     1      -1.238   3.131  -0.003  0.00  0.00    -0.050 A 
ATOM     25  C   UNL     1      -1.140   1.891  -0.607  0.00  0.00    +0.005 A 
ATOM     26  C   UNL     1       0.064   1.215  -0.608  0.00  0.00    +0.024 A 
ATOM     27  C   UNL     1       1.180   1.787  -0.010  0.00  0.00    +0.036 A 
ATOM     28  C   UNL     1       1.079   3.034   0.592  0.00  0.00    -0.029 A 
ATOM     29  C   UNL     1      -0.130   3.702   0.594  0.00  0.00    +0.008 A 
ATOM     30  C   UNL     1       2.287   3.657   1.242  0.00  0.00    +0.045 C 
ENDBRANCH  19  27
ENDBRANCH  17  20
ENDBRANCH   1  17
TORSDOF 6
