REMARK  Name = ZINC23358010
REMARK  11 active torsions:
REMARK  status: ('A' for Active; 'I' for Inactive)
REMARK    1  A    between atoms: C_1  and  N_2
REMARK    2  A    between atoms: N_2  and  C_3
REMARK    3  A    between atoms: N_2  and  C_4
REMARK    4  A    between atoms: C_4  and  C_5
REMARK    5  A    between atoms: C_5  and  N_6
REMARK    6  A    between atoms: N_6  and  C_7
REMARK    7  A    between atoms: N_6  and  C_18
REMARK    8  A    between atoms: C_7  and  C_8
REMARK    9  A    between atoms: C_18  and  C_19
REMARK   10  A    between atoms: N_24  and  C_26
REMARK   11  A    between atoms: C_26  and  C_27
REMARK                            x       y       z     vdW  Elec       q    Type
REMARK                         _______ _______ _______ _____ _____    ______ ____
ROOT
ATOM      1  N   UNL     1      -3.319  -1.241  -1.472  0.00  0.00    +0.383 N 
ATOM      2  H   UNL     1      -3.193  -2.150  -1.052  0.00  0.00    -0.081 HD
ENDROOT
BRANCH   1   3
ATOM      3  C   UNL     1      -2.071  -0.474  -1.362  0.00  0.00    -0.063 C 
BRANCH   3   4
ATOM      4  C   UNL     1      -1.633  -0.421   0.103  0.00  0.00    +0.065 C 
BRANCH   4   6
ATOM      5  C   UNL     1      -0.441   1.683  -0.035  0.00  0.00    +0.104 C 
ATOM      6  N   UNL     1      -0.323   0.237   0.198  0.00  0.00    -0.310 NA
ATOM      7  C   UNL     1       0.311  -0.036   1.495  0.00  0.00    +0.104 C 
ENDBRANCH   4   6
ENDBRANCH   3   4
ENDBRANCH   1   3
BRANCH   1   8
ATOM      8  C   UNL     1      -4.396  -0.526  -0.776  0.00  0.00    -0.042 C 
BRANCH   8   9
ATOM      9  C   UNL     1      -5.643  -1.372  -0.777  0.00  0.00    -0.056 A 
ATOM     10  C   UNL     1      -6.672  -1.078  -1.620  0.00  0.00    +0.002 A 
ATOM     11  C   UNL     1      -7.832  -1.850  -1.634  0.00  0.00    +0.001 A 
ATOM     12  C   UNL     1      -7.974  -2.922  -0.806  0.00  0.00    +0.010 A 
ATOM     13  C   UNL     1      -6.935  -3.256   0.076  0.00  0.00    +0.000 A 
ATOM     14  C   UNL     1      -5.752  -2.472   0.086  0.00  0.00    -0.014 A 
ATOM     15  C   UNL     1      -4.723  -2.831   0.977  0.00  0.00    +0.028 A 
ATOM     16  C   UNL     1      -4.905  -3.913   1.783  0.00  0.00    +0.111 A 
ATOM     17  N   UNL     1      -6.019  -4.632   1.750  0.00  0.00    -0.263 NA
ATOM     18  C   UNL     1      -7.024  -4.349   0.953  0.00  0.00    +0.119 A 
ENDBRANCH   8   9
ENDBRANCH   1   8
BRANCH   1  19
ATOM     19  C   UNL     1      -3.672  -1.401  -2.889  0.00  0.00    -0.077 C 
BRANCH  19  20
ATOM     20  C   UNL     1      -2.610  -2.253  -3.587  0.00  0.00    -0.044 C 
ATOM     21  C   UNL     1      -2.628  -3.669  -3.006  0.00  0.00    -0.002 C 
ATOM     22  C   UNL     1      -1.617  -4.534  -3.764  0.00  0.00    -0.018 C 
ATOM     23  C   UNL     1      -1.956  -4.516  -5.256  0.00  0.00    -0.078 C 
ATOM     24  N   UNL     1      -1.896  -3.137  -5.757  0.00  0.00    +0.383 N 
ATOM     25  C   UNL     1      -2.911  -2.317  -5.086  0.00  0.00    -0.077 C 
ATOM     26  H   UNL     1      -0.981  -2.753  -5.574  0.00  0.00    -0.081 HD
BRANCH  24  27
ATOM     27  C   UNL     1      -2.145  -3.134  -7.205  0.00  0.00    -0.040 C 
BRANCH  27  28
ATOM     28  C   UNL     1      -1.030  -3.863  -7.909  0.00  0.00    -0.029 A 
ATOM     29  C   UNL     1      -0.009  -3.151  -8.509  0.00  0.00    +0.004 A 
ATOM     30  C   UNL     1       1.014  -3.820  -9.155  0.00  0.00    +0.000 A 
ATOM     31  C   UNL     1       1.018  -5.202  -9.200  0.00  0.00    +0.003 A 
ATOM     32  C   UNL     1      -0.002  -5.916  -8.600  0.00  0.00    +0.038 A 
ATOM     33  C   UNL     1      -1.024  -5.247  -7.948  0.00  0.00    +0.125 A 
ATOM     34  F   UNL     1      -2.019  -5.944  -7.357  0.00  0.00    -0.205 F 
ENDBRANCH  27  28
ENDBRANCH  24  27
ENDBRANCH  19  20
ENDBRANCH   1  19
TORSDOF 9
