REMARK  Name = ZINC39837635
REMARK  8 active torsions:
REMARK  status: ('A' for Active; 'I' for Inactive)
REMARK    1  A    between atoms: C_1  and  C_2
REMARK    2  A    between atoms: C_2  and  C_3
REMARK    3  A    between atoms: C_3  and  C_4
REMARK    4  A    between atoms: C_10  and  C_25
REMARK    5  A    between atoms: C_28  and  O_34
REMARK    6  A    between atoms: C_29  and  O_31
REMARK    7  A    between atoms: O_31  and  C_32
REMARK    8  A    between atoms: C_32  and  C_33
REMARK                            x       y       z     vdW  Elec       q    Type
REMARK                         _______ _______ _______ _____ _____    ______ ____
ROOT
ATOM      1  C   UNL     1      -1.413  -2.041   0.005  0.00  0.00    +0.104 A 
ATOM      2  N   UNL     1      -1.398  -2.893   1.010  0.00  0.00    -0.145 NA
ATOM      3  N   UNL     1      -1.382  -4.142   0.832  0.00  0.00    -0.125 NA
ATOM      4  C   UNL     1      -1.379  -4.675  -0.383  0.00  0.00    +0.191 A 
ATOM      5  S   UNL     1      -1.410  -3.184  -1.374  0.00  0.00    -0.035 S 
ATOM      6  N   UNL     1      -1.363  -6.007  -0.773  0.00  0.00    -0.230 N 
ATOM      7  C   UNL     1      -1.351  -7.172   0.126  0.00  0.00    +0.152 C 
ATOM      8  C   UNL     1      -1.333  -8.372  -0.763  0.00  0.00    +0.072 A 
ATOM      9  C   UNL     1      -1.305  -9.805  -0.451  0.00  0.00    +0.199 A 
ATOM     10  O   UNL     1      -1.469 -10.247   0.672  0.00  0.00    -0.287 OA
ATOM     11  C   UNL     1      -1.060 -10.666  -1.636  0.00  0.00    +0.064 A 
ATOM     12  C   UNL     1      -0.808 -12.029  -1.478  0.00  0.00    +0.015 A 
ATOM     13  C   UNL     1      -0.579 -12.807  -2.578  0.00  0.00    +0.001 A 
ATOM     14  C   UNL     1      -0.595 -12.246  -3.848  0.00  0.00    +0.004 A 
ATOM     15  C   UNL     1      -0.843 -10.903  -4.021  0.00  0.00    +0.047 A 
ATOM     16  C   UNL     1      -1.083 -10.088  -2.915  0.00  0.00    +0.139 A 
ATOM     17  O   UNL     1      -1.334  -8.773  -3.110  0.00  0.00    -0.450 OA
ATOM     18  C   UNL     1      -1.340  -7.933  -2.056  0.00  0.00    +0.199 A 
ATOM     19  C   UNL     1      -1.362  -6.460  -2.044  0.00  0.00    +0.289 C 
ATOM     20  O   UNL     1      -1.375  -5.756  -3.034  0.00  0.00    -0.266 OA
ENDROOT
BRANCH   7  21
ATOM     21  C   UNL     1      -0.118  -7.147   0.993  0.00  0.00    -0.018 A 
ATOM     22  C   UNL     1       1.089  -6.727   0.464  0.00  0.00    +0.009 A 
ATOM     23  C   UNL     1       2.222  -6.702   1.255  0.00  0.00    +0.049 A 
ATOM     24  C   UNL     1       2.150  -7.097   2.581  0.00  0.00    +0.158 A 
ATOM     25  C   UNL     1       0.936  -7.519   3.114  0.00  0.00    +0.162 A 
ATOM     26  C   UNL     1      -0.197  -7.537   2.317  0.00  0.00    +0.055 A 
BRANCH  24  27
ATOM     27  O   UNL     1       3.265  -7.073   3.360  0.00  0.00    -0.503 OA
ATOM     28  H   UNL     1       3.403  -6.236   3.823  0.00  0.00    +0.292 HD
ENDBRANCH  24  27
BRANCH  25  29
ATOM     29  O   UNL     1       0.861  -7.908   4.414  0.00  0.00    -0.489 OA
BRANCH  29  30
ATOM     30  C   UNL     1      -0.418  -8.329   4.893  0.00  0.00    +0.226 C 
ATOM     31  C   UNL     1      -0.307  -8.725   6.366  0.00  0.00    +0.048 C 
ENDBRANCH  29  30
ENDBRANCH  25  29
ENDBRANCH   7  21
BRANCH   1  32
ATOM     32  C   UNL     1      -1.433  -0.534   0.013  0.00  0.00    +0.064 C 
BRANCH  32  34
ATOM     33  C   UNL     1      -0.019   1.526   0.010  0.00  0.00    +0.004 C 
ATOM     34  C   UNL     1       0.002  -0.004   0.002  0.00  0.00    +0.003 C 
ENDBRANCH  32  34
ENDBRANCH   1  32
TORSDOF 6
