REMARK  Name = ZINC22064909
REMARK  12 active torsions:
REMARK  status: ('A' for Active; 'I' for Inactive)
REMARK    1  A    between atoms: C_4  and  C_7
REMARK    2  A    between atoms: C_7  and  O_9
REMARK    3  A    between atoms: O_9  and  C_10
REMARK    4  A    between atoms: C_10  and  C_11
REMARK    5  A    between atoms: C_13  and  O_42
REMARK    6  A    between atoms: C_15  and  O_41
REMARK    7  A    between atoms: C_17  and  O_32
REMARK    8  A    between atoms: C_19  and  O_22
REMARK    9  A    between atoms: O_22  and  C_23
REMARK   10  A    between atoms: C_26  and  N_29
REMARK   11  A    between atoms: O_32  and  C_33
REMARK   12  A    between atoms: C_33  and  C_35
REMARK                            x       y       z     vdW  Elec       q    Type
REMARK                         _______ _______ _______ _____ _____    ______ ____
ROOT
ATOM      1  C   UNL     1       8.825  -1.025  -0.911  0.00  0.00    +0.191 C 
ATOM      2  C   UNL     1       8.497  -0.764   0.561  0.00  0.00    +0.179 C 
ATOM      3  C   UNL     1       7.186   0.023   0.653  0.00  0.00    +0.192 C 
ATOM      4  C   UNL     1       6.081  -0.762  -0.059  0.00  0.00    +0.276 C 
ATOM      5  C   UNL     1       6.502  -1.024  -1.508  0.00  0.00    +0.352 C 
ATOM      6  O   UNL     1       7.743  -1.732  -1.520  0.00  0.00    -0.329 OA
ENDROOT
BRANCH   3   7
ATOM      7  O   UNL     1       6.833   0.207   2.026  0.00  0.00    -0.385 OA
ATOM      8  H   UNL     1       5.915   0.754   2.289  0.00  0.00    +0.210 HD
ENDBRANCH   3   7
BRANCH   2   9
ATOM      9  O   UNL     1       9.552  -0.008   1.159  0.00  0.00    -0.386 OA
ATOM     10  H   UNL     1       9.492   0.277   2.220  0.00  0.00    +0.210 HD
ENDBRANCH   2   9
BRANCH   1  11
ATOM     11  C   UNL     1      10.101  -1.863  -1.008  0.00  0.00    +0.266 C 
BRANCH  11  12
ATOM     12  O   UNL     1      10.477  -2.013  -2.403  0.00  0.00    -0.458 OA
BRANCH  12  13
ATOM     13  C   UNL     1      11.588  -2.729  -2.663  0.00  0.00    +0.339 C 
ATOM     14  O   UNL     1      12.225  -3.216  -1.751  0.00  0.00    -0.245 OA
BRANCH  13  18
ATOM     15  C   UNL     1      12.862  -3.286  -6.676  0.00  0.00    +0.000 A 
ATOM     16  C   UNL     1      13.590  -3.842  -5.639  0.00  0.00    +0.001 A 
ATOM     17  C   UNL     1      13.182  -3.665  -4.333  0.00  0.00    +0.015 A 
ATOM     18  C   UNL     1      12.031  -2.923  -4.059  0.00  0.00    +0.059 A 
ATOM     19  C   UNL     1      11.298  -2.369  -5.111  0.00  0.00    +0.015 A 
ATOM     20  C   UNL     1      11.721  -2.549  -6.412  0.00  0.00    +0.001 A 
ENDBRANCH  13  18
ENDBRANCH  12  13
ENDBRANCH  11  12
ENDBRANCH   1  11
BRANCH   5  21
ATOM     21  O   UNL     1       6.657   0.221  -2.191  0.00  0.00    -0.460 OA
BRANCH  21  22
ATOM     22  C   UNL     1       6.825   0.169  -3.539  0.00  0.00    +0.124 A 
ATOM     23  C   UNL     1       6.845  -1.057  -4.189  0.00  0.00    +0.048 A 
ATOM     24  C   UNL     1       7.011  -1.107  -5.560  0.00  0.00    +0.036 A 
ATOM     25  C   UNL     1       7.166   0.061  -6.282  0.00  0.00    +0.126 A 
ATOM     26  C   UNL     1       7.151   1.284  -5.636  0.00  0.00    +0.036 A 
ATOM     27  C   UNL     1       6.981   1.340  -4.266  0.00  0.00    +0.048 A 
BRANCH  25  28
ATOM     28  N   UNL     1       7.349   0.004  -7.750  0.00  0.00    +0.056 N 
ATOM     29  O   UNL     1       7.486   1.033  -8.387  0.00  0.00    -0.126 OA
ATOM     30  O   UNL     1       7.362  -1.072  -8.320  0.00  0.00    -0.126 OA
ENDBRANCH  25  28
ENDBRANCH  21  22
ENDBRANCH   5  21
BRANCH   4  31
ATOM     31  O   UNL     1       4.850   0.009  -0.044  0.00  0.00    -0.449 OA
BRANCH  31  32
ATOM     32  C   UNL     1       3.695  -0.684  -0.036  0.00  0.00    +0.340 C 
ATOM     33  O   UNL     1       3.715  -1.898  -0.043  0.00  0.00    -0.245 OA
BRANCH  32  34
ATOM     34  C   UNL     1       2.404   0.034  -0.021  0.00  0.00    +0.059 A 
ATOM     35  C   UNL     1       1.204  -0.681  -0.013  0.00  0.00    +0.015 A 
ATOM     36  C   UNL     1       0.002  -0.004   0.002  0.00  0.00    +0.001 A 
ATOM     37  C   UNL     1      -0.017   1.379   0.010  0.00  0.00    +0.000 A 
ATOM     38  C   UNL     1       1.168   2.094   0.002  0.00  0.00    +0.001 A 
ATOM     39  C   UNL     1       2.377   1.430  -0.013  0.00  0.00    +0.015 A 
ENDBRANCH  32  34
ENDBRANCH  31  32
ENDBRANCH   4  31
TORSDOF 12
