REMARK  Name = ZINC15497812
REMARK  5 active torsions:
REMARK  status: ('A' for Active; 'I' for Inactive)
REMARK    1  A    between atoms: C_7  and  C_11
REMARK    2  A    between atoms: C_11  and  C_12
REMARK    3  A    between atoms: C_12  and  C_13
REMARK    4  A    between atoms: N_15  and  N_16
REMARK    5  A    between atoms: C_17  and  C_19
REMARK                            x       y       z     vdW  Elec       q    Type
REMARK                         _______ _______ _______ _____ _____    ______ ____
ROOT
ATOM      1  C   UNL     1       4.225   5.802  -0.026  0.00  0.00    +0.229 C 
ATOM      2  O   UNL     1       5.153   5.020  -0.027  0.00  0.00    -0.274 OA
ATOM      3  N   UNL     1       2.958   5.343  -0.019  0.00  0.00    -0.234 N 
ATOM      4  H   UNL     1       2.216   5.968  -0.018  0.00  0.00    +0.173 HD
ENDROOT
BRANCH   3   5
ATOM      5  N   UNL     1       2.712   3.964  -0.012  0.00  0.00    -0.230 N 
ATOM      6  C   UNL     1       1.444   3.506  -0.005  0.00  0.00    +0.267 C 
ATOM      7  O   UNL     1       0.514   4.290  -0.004  0.00  0.00    -0.268 OA
ATOM      8  H   UNL     1       3.453   3.339  -0.013  0.00  0.00    +0.173 HD
BRANCH   6   9
ATOM      9  C   UNL     1       1.187   2.063   0.002  0.00  0.00    +0.076 A 
ATOM     10  C   UNL     1      -0.017   1.393   0.010  0.00  0.00    +0.024 A 
ATOM     11  C   UNL     1       0.002  -0.004   0.002  0.00  0.00    -0.036 A 
ATOM     12  C   UNL     1       1.210  -0.601   0.046  0.00  0.00    -0.006 A 
ATOM     13  S   UNL     1       2.348   0.711   0.002  0.00  0.00    -0.088 S 
ATOM     14  C   UNL     1       1.637  -2.039   0.187  0.00  0.00    +0.043 C 
ATOM     15  C   UNL     1       0.445  -2.988   0.319  0.00  0.00    +0.005 C 
ATOM     16  C   UNL     1      -0.170  -3.273  -1.042  0.00  0.00    +0.000 C 
ATOM     17  C   UNL     1      -0.179  -2.057  -1.947  0.00  0.00    +0.000 C 
ATOM     18  C   UNL     1      -1.430  -1.246  -1.597  0.00  0.00    +0.005 C 
ATOM     19  C   UNL     1      -1.314  -0.753  -0.155  0.00  0.00    +0.036 C 
ENDBRANCH   6   9
ENDBRANCH   3   5
BRANCH   1  20
ATOM     20  C   UNL     1       4.490   7.285  -0.033  0.00  0.00    +0.102 C 
BRANCH  20  21
ATOM     21  C   UNL     1       6.000   7.534  -0.041  0.00  0.00    +0.046 C 
BRANCH  21  28
ATOM     22  C   UNL     1       6.284  10.756   3.352  0.00  0.00    +0.001 A 
ATOM     23  C   UNL     1       6.553  12.029   2.867  0.00  0.00    +0.002 A 
ATOM     24  C   UNL     1       6.707  12.249   1.516  0.00  0.00    +0.026 A 
ATOM     25  C   UNL     1       6.594  11.186   0.626  0.00  0.00    +0.047 A 
ATOM     26  C   UNL     1       6.322   9.898   1.122  0.00  0.00    +0.003 A 
ATOM     27  C   UNL     1       6.168   9.698   2.495  0.00  0.00    +0.010 A 
ATOM     28  C   UNL     1       6.264   9.017  -0.047  0.00  0.00    -0.022 A 
ATOM     29  C   UNL     1       6.498   9.782  -1.126  0.00  0.00    +0.087 A 
ATOM     30  N   UNL     1       6.692  11.081  -0.743  0.00  0.00    -0.360 N 
ATOM     31  H   UNL     1       6.875  11.818  -1.347  0.00  0.00    +0.165 HD
ENDBRANCH  21  28
ENDBRANCH  20  21
ENDBRANCH   1  20
TORSDOF 5
