REMARK  Name = ZINC23145357
REMARK  7 active torsions:
REMARK  status: ('A' for Active; 'I' for Inactive)
REMARK    1  A    between atoms: C_1  and  C_2
REMARK    2  A    between atoms: C_2  and  O_3
REMARK    3  A    between atoms: O_3  and  C_4
REMARK    4  A    between atoms: C_4  and  C_6
REMARK    5  A    between atoms: C_7  and  C_31
REMARK    6  A    between atoms: C_11  and  C_15
REMARK    7  A    between atoms: N_24  and  C_25
REMARK                            x       y       z     vdW  Elec       q    Type
REMARK                         _______ _______ _______ _____ _____    ______ ____
ROOT
ATOM      1  C   UNL     1       2.405  -0.596  -3.260  0.00  0.00    +0.102 A 
ATOM      2  C   UNL     1       2.769   0.295  -2.296  0.00  0.00    -0.017 A 
ATOM      3  C   UNL     1       1.933   0.507  -1.192  0.00  0.00    +0.051 A 
ATOM      4  C   UNL     1       2.113   1.382  -0.078  0.00  0.00    +0.133 A 
ATOM      5  N   UNL     1       1.185   1.425   0.864  0.00  0.00    -0.217 NA
ATOM      6  C   UNL     1       0.092   0.685   0.812  0.00  0.00    +0.129 A 
ATOM      7  N   UNL     1      -0.133  -0.143  -0.190  0.00  0.00    -0.225 NA
ATOM      8  C   UNL     1       0.737  -0.252  -1.173  0.00  0.00    +0.115 A 
ATOM      9  S   UNL     1       0.836  -1.205  -2.667  0.00  0.00    -0.062 S 
ATOM     10  C   UNL     1      -0.923   0.793   1.920  0.00  0.00    +0.088 C 
ATOM     11  N   UNL     1       3.240   2.172   0.015  0.00  0.00    -0.312 N 
ATOM     12  C   UNL     1       4.111   1.720   1.108  0.00  0.00    +0.125 C 
ATOM     13  C   UNL     1       5.428   2.502   1.064  0.00  0.00    +0.128 C 
ATOM     14  N   UNL     1       5.118   3.940   1.070  0.00  0.00    -0.283 N 
ATOM     15  C   UNL     1       4.146   4.446   0.089  0.00  0.00    +0.128 C 
ATOM     16  C   UNL     1       2.879   3.588   0.171  0.00  0.00    +0.125 C 
ATOM     17  C   UNL     1       5.709   4.772   1.950  0.00  0.00    +0.303 C 
ATOM     18  O   UNL     1       5.371   5.938   2.006  0.00  0.00    -0.253 OA
ATOM     19  N   UNL     1       6.675   4.310   2.770  0.00  0.00    -0.296 N 
ATOM     20  C   UNL     1       4.067   1.050  -2.416  0.00  0.00    +0.046 C 
ATOM     21  H   UNL     1       6.923   3.239   2.777  0.00  0.00    +0.151 HD
ENDROOT
BRANCH  19  22
ATOM     22  C   UNL     1       7.393   5.235   3.650  0.00  0.00    +0.074 C 
ATOM     23  C   UNL     1       8.553   5.873   2.882  0.00  0.00    +0.022 C 
ATOM     24  C   UNL     1       9.302   6.839   3.802  0.00  0.00    +0.002 C 
ATOM     25  C   UNL     1       9.849   6.074   5.009  0.00  0.00    +0.000 C 
ATOM     26  C   UNL     1       8.689   5.436   5.776  0.00  0.00    +0.002 C 
ATOM     27  C   UNL     1       7.939   4.470   4.857  0.00  0.00    +0.022 C 
ENDBRANCH  19  22
BRANCH   1  28
ATOM     28  C   UNL     1       3.125  -0.964  -4.483  0.00  0.00    +0.346 C 
ATOM     29  O   UNL     1       4.195  -0.446  -4.737  0.00  0.00    -0.244 OA
BRANCH  28  30
ATOM     30  O   UNL     1       2.600  -1.876  -5.326  0.00  0.00    -0.461 OA
BRANCH  30  32
ATOM     31  C   UNL     1       2.618  -3.238  -7.345  0.00  0.00    +0.048 C 
ATOM     32  C   UNL     1       3.368  -2.192  -6.517  0.00  0.00    +0.229 C 
ENDBRANCH  30  32
ENDBRANCH  28  30
ENDBRANCH   1  28
TORSDOF 4
