REMARK  Name = ZINC27570801
REMARK  10 active torsions:
REMARK  status: ('A' for Active; 'I' for Inactive)
REMARK    1  A    between atoms: C_1  and  C_2
REMARK    2  A    between atoms: C_2  and  C_3
REMARK    3  A    between atoms: C_5  and  C_28
REMARK    4  A    between atoms: C_6  and  C_11
REMARK    5  A    between atoms: C_11  and  N_12
REMARK    6  A    between atoms: C_16  and  C_19
REMARK    7  A    between atoms: N_21  and  C_22
REMARK    8  A    between atoms: C_28  and  O_30
REMARK    9  A    between atoms: O_30  and  C_31
REMARK   10  A    between atoms: C_31  and  C_32
REMARK                            x       y       z     vdW  Elec       q    Type
REMARK                         _______ _______ _______ _____ _____    ______ ____
ROOT
ATOM      1  C   UNL     1      -4.245   1.257   0.028  0.00  0.00    -0.026 C 
ENDROOT
BRANCH   1   4
ATOM      2  C   UNL     1      -5.609   3.490   2.859  0.00  0.00    +0.113 C 
ATOM      3  C   UNL     1      -5.102   3.042   1.503  0.00  0.00    +0.072 C 
ATOM      4  C   UNL     1      -4.750   1.746   1.361  0.00  0.00    +0.007 C 
ATOM      5  N   UNL     1      -4.838   0.872   2.407  0.00  0.00    -0.274 N 
ATOM      6  C   UNL     1      -5.274   1.215   3.626  0.00  0.00    +0.304 C 
ATOM      7  O   UNL     1      -5.318   0.366   4.495  0.00  0.00    -0.253 OA
ATOM      8  N   UNL     1      -5.667   2.470   3.920  0.00  0.00    -0.292 N 
ATOM      9  H   UNL     1      -4.542  -0.179   2.273  0.00  0.00    +0.156 HD
ATOM     10  H   UNL     1      -6.024   2.742   4.925  0.00  0.00    +0.151 HD
BRANCH   2  12
ATOM     11  C   UNL     1      -7.440   4.796   3.947  0.00  0.00    +0.006 C 
ATOM     12  C   UNL     1      -7.018   4.059   2.675  0.00  0.00    +0.024 C 
ENDBRANCH   2  12
BRANCH   3  13
ATOM     13  C   UNL     1      -5.005   3.949   0.422  0.00  0.00    +0.338 C 
ATOM     14  O   UNL     1      -4.674   3.550  -0.679  0.00  0.00    -0.245 OA
BRANCH  13  15
ATOM     15  O   UNL     1      -5.280   5.256   0.612  0.00  0.00    -0.462 OA
BRANCH  15  16
ATOM     16  C   UNL     1      -5.162   6.115  -0.524  0.00  0.00    +0.229 C 
ATOM     17  C   UNL     1      -5.511   7.548  -0.118  0.00  0.00    +0.048 C 
ENDBRANCH  15  16
ENDBRANCH  13  15
ENDBRANCH   3  13
ENDBRANCH   1   4
BRANCH   1  18
ATOM     18  N   UNL     1      -2.814   1.565  -0.097  0.00  0.00    +0.384 N 
ATOM     19  C   UNL     1      -2.068   1.081   1.072  0.00  0.00    -0.078 C 
ATOM     20  C   UNL     1      -0.611   1.545   0.978  0.00  0.00    -0.018 C 
ATOM     21  C   UNL     1       0.010   0.999  -0.311  0.00  0.00    +0.009 C 
ATOM     22  C   UNL     1      -0.815   1.478  -1.510  0.00  0.00    +0.059 C 
ATOM     23  C   UNL     1      -2.264   1.016  -1.343  0.00  0.00    -0.066 C 
ATOM     24  H   UNL     1      -2.704   2.659  -0.135  0.00  0.00    -0.081 HD
BRANCH  22  25
ATOM     25  C   UNL     1      -0.244   0.896  -2.777  0.00  0.00    +0.218 C 
ATOM     26  O   UNL     1      -0.930   0.185  -3.481  0.00  0.00    -0.275 OA
ATOM     27  N   UNL     1       1.029   1.166  -3.129  0.00  0.00    -0.285 N 
ATOM     28  H   UNL     1       1.629   1.865  -2.528  0.00  0.00    +0.155 HD
BRANCH  27  29
ATOM     29  C   UNL     1       1.586   0.558  -4.259  0.00  0.00    +0.033 A 
ATOM     30  C   UNL     1       2.930   0.208  -4.269  0.00  0.00    +0.023 A 
ATOM     31  C   UNL     1       3.476  -0.397  -5.385  0.00  0.00    +0.002 A 
ATOM     32  C   UNL     1       2.689  -0.643  -6.495  0.00  0.00    +0.000 A 
ATOM     33  C   UNL     1       1.352  -0.291  -6.489  0.00  0.00    +0.002 A 
ATOM     34  C   UNL     1       0.798   0.309  -5.375  0.00  0.00    +0.023 A 
ENDBRANCH  27  29
ENDBRANCH  22  25
ENDBRANCH   1  18
TORSDOF 8
