REMARK  Name = ZINC09981735
REMARK  5 active torsions:
REMARK  status: ('A' for Active; 'I' for Inactive)
REMARK    1  A    between atoms: C_1  and  C_2
REMARK    2  A    between atoms: C_2  and  C_21
REMARK    3  A    between atoms: N_5  and  C_9
REMARK    4  A    between atoms: C_9  and  C_10
REMARK    5  A    between atoms: N_12  and  C_13
REMARK                            x       y       z     vdW  Elec       q    Type
REMARK                         _______ _______ _______ _____ _____    ______ ____
ROOT
ATOM      1  C   UNL     1       0.048  -4.851  -1.292  0.00  0.00    +0.047 C 
ATOM      2  C   UNL     1      -1.219  -4.258  -0.672  0.00  0.00    +0.136 C 
ATOM      3  C   UNL     1      -1.403  -2.815  -1.096  0.00  0.00    +0.251 C 
ATOM      4  O   UNL     1      -1.556  -2.397  -2.223  0.00  0.00    -0.272 OA
ATOM      5  N   UNL     1      -1.361  -2.093   0.042  0.00  0.00    -0.215 N 
ATOM      6  C   UNL     1      -1.184  -2.872   1.115  0.00  0.00    +0.310 C 
ATOM      7  O   UNL     1      -1.118  -2.451   2.252  0.00  0.00    -0.252 OA
ATOM      8  N   UNL     1      -1.088  -4.175   0.793  0.00  0.00    -0.281 N 
ATOM      9  H   UNL     1      -0.958  -4.915   1.406  0.00  0.00    +0.152 HD
ENDROOT
BRANCH   2  10
ATOM     10  C   UNL     1      -2.426  -5.077  -1.051  0.00  0.00    +0.003 A 
ATOM     11  C   UNL     1      -3.207  -5.654  -0.067  0.00  0.00    +0.009 A 
ATOM     12  C   UNL     1      -4.317  -6.400  -0.414  0.00  0.00    +0.020 A 
ATOM     13  C   UNL     1      -4.642  -6.579  -1.747  0.00  0.00    +0.042 A 
ATOM     14  C   UNL     1      -3.858  -6.006  -2.732  0.00  0.00    +0.040 A 
ATOM     15  C   UNL     1      -2.749  -5.255  -2.384  0.00  0.00    +0.048 A 
ATOM     16 CL   UNL     1      -1.764  -4.537  -3.620  0.00  0.00    -0.083 Cl
ATOM     17 CL   UNL     1      -6.033  -7.521  -2.183  0.00  0.00    -0.083 Cl
ENDBRANCH   2  10
BRANCH   5  18
ATOM     18  C   UNL     1      -1.498  -0.635   0.097  0.00  0.00    +0.214 C 
BRANCH  18  19
ATOM     19  C   UNL     1      -0.137   0.001  -0.017  0.00  0.00    +0.235 C 
ATOM     20  O   UNL     1       0.851  -0.694  -0.133  0.00  0.00    -0.274 OA
ATOM     21  N   UNL     1      -0.016   1.344   0.009  0.00  0.00    -0.282 N 
ATOM     22  H   UNL     1      -0.809   1.901   0.033  0.00  0.00    +0.155 HD
BRANCH  21  23
ATOM     23  C   UNL     1       1.255   1.933  -0.003  0.00  0.00    +0.069 A 
ATOM     24  C   UNL     1       2.288   1.345  -0.719  0.00  0.00    +0.029 A 
ATOM     25  C   UNL     1       3.539   1.930  -0.734  0.00  0.00    +0.040 A 
ATOM     26  C   UNL     1       3.767   3.099  -0.026  0.00  0.00    +0.126 A 
ATOM     27  C   UNL     1       2.741   3.686   0.694  0.00  0.00    +0.078 A 
ATOM     28  C   UNL     1       1.485   3.107   0.708  0.00  0.00    +0.147 A 
ATOM     29  F   UNL     1       0.483   3.679   1.410  0.00  0.00    -0.203 F 
ATOM     30  F   UNL     1       4.993   3.667  -0.039  0.00  0.00    -0.205 F 
ENDBRANCH  21  23
ENDBRANCH  18  19
ENDBRANCH   5  18
TORSDOF 4
