REMARK  Name = ZINC36366818
REMARK  9 active torsions:
REMARK  status: ('A' for Active; 'I' for Inactive)
REMARK    1  A    between atoms: C_1  and  C_2
REMARK    2  A    between atoms: C_2  and  C_3
REMARK    3  A    between atoms: C_2  and  C_4
REMARK    4  A    between atoms: C_4  and  N_5
REMARK    5  A    between atoms: C_16  and  O_34
REMARK    6  A    between atoms: C_21  and  C_31
REMARK    7  A    between atoms: C_22  and  C_23
REMARK    8  A    between atoms: C_26  and  O_29
REMARK    9  A    between atoms: O_29  and  C_30
REMARK                            x       y       z     vdW  Elec       q    Type
REMARK                         _______ _______ _______ _____ _____    ______ ____
ROOT
ATOM      1  N   UNL     1      -1.416  -1.993  -0.116  0.00  0.00    -0.270 N 
ATOM      2  C   UNL     1      -1.448  -2.664  -1.327  0.00  0.00    +0.041 A 
ATOM      3  C   UNL     1      -1.502  -2.150  -2.623  0.00  0.00    +0.026 A 
ATOM      4  C   UNL     1      -1.524  -3.062  -3.667  0.00  0.00    +0.040 A 
ATOM      5  C   UNL     1      -1.494  -4.426  -3.447  0.00  0.00    +0.124 A 
ATOM      6  C   UNL     1      -1.440  -4.951  -2.158  0.00  0.00    +0.045 A 
ATOM      7  C   UNL     1      -1.418  -4.049  -1.116  0.00  0.00    -0.003 A 
ATOM      8  C   UNL     1      -1.364  -4.245   0.365  0.00  0.00    +0.115 C 
ATOM      9  C   UNL     1      -1.363  -2.842   0.932  0.00  0.00    +0.236 C 
ATOM     10  O   UNL     1      -1.323  -2.539   2.106  0.00  0.00    -0.274 OA
ATOM     11  C   UNL     1      -0.085  -4.975   0.778  0.00  0.00    +0.121 C 
ATOM     12  C   UNL     1      -0.244  -6.460   0.630  0.00  0.00    +0.189 C 
ATOM     13  N   UNL     1      -1.357  -7.096   0.779  0.00  0.00    -0.216 NA
ATOM     14  C   UNL     1      -2.526  -6.396   1.067  0.00  0.00    +0.087 A 
ATOM     15  C   UNL     1      -2.539  -5.022   0.864  0.00  0.00    +0.036 A 
ATOM     16  S   UNL     1      -4.065  -4.511   1.284  0.00  0.00    -0.082 S 
ATOM     17  C   UNL     1      -4.770  -6.076   1.767  0.00  0.00    +0.110 A 
ATOM     18  C   UNL     1      -3.708  -6.962   1.552  0.00  0.00    +0.029 A 
ATOM     19  F   UNL     1      -1.519  -5.268  -4.504  0.00  0.00    -0.205 F 
ENDROOT
BRANCH  18  20
ATOM     20  C   UNL     1      -3.830  -8.411   1.823  0.00  0.00    -0.014 A 
ATOM     21  C   UNL     1      -3.741  -9.329   0.775  0.00  0.00    +0.012 A 
ATOM     22  C   UNL     1      -3.854 -10.678   1.032  0.00  0.00    +0.046 A 
ATOM     23  C   UNL     1      -4.057 -11.125   2.331  0.00  0.00    +0.120 A 
ATOM     24  C   UNL     1      -4.146 -10.215   3.377  0.00  0.00    +0.046 A 
ATOM     25  C   UNL     1      -4.028  -8.864   3.129  0.00  0.00    +0.012 A 
BRANCH  23  26
ATOM     26  O   UNL     1      -4.168 -12.456   2.580  0.00  0.00    -0.495 OA
ATOM     27  C   UNL     1      -4.375 -12.846   3.939  0.00  0.00    +0.277 C 
ENDBRANCH  23  26
ENDBRANCH  18  20
BRANCH  17  28
ATOM     28  C   UNL     1      -6.071  -6.352   2.246  0.00  0.00    +0.394 C 
ATOM     29  O   UNL     1      -6.882  -5.442   2.373  0.00  0.00    -0.240 OA
ATOM     30  O   UNL     1      -6.387  -7.500   2.534  0.00  0.00    -0.240 OA
ENDBRANCH  17  28
BRANCH  12  31
ATOM     31  O   UNL     1       0.854  -7.181   0.318  0.00  0.00    -0.495 OA
ATOM     32  H   UNL     1       0.691  -8.131   0.236  0.00  0.00    +0.293 HD
ENDBRANCH  12  31
BRANCH   1  33
ATOM     33  C   UNL     1      -1.433  -0.534   0.013  0.00  0.00    +0.116 C 
BRANCH  33  35
ATOM     34  C   UNL     1      -0.019   1.526   0.010  0.00  0.00    +0.009 C 
ATOM     35  C   UNL     1       0.002  -0.004   0.002  0.00  0.00    +0.001 C 
ATOM     36  C   UNL     1       0.742  -0.511   1.242  0.00  0.00    +0.009 C 
ENDBRANCH  33  35
ENDBRANCH   1  33
TORSDOF 6
