REMARK  Name = ZINC39978192
REMARK  3 active torsions:
REMARK  status: ('A' for Active; 'I' for Inactive)
REMARK    1  A    between atoms: C_5  and  C_7
REMARK    2  A    between atoms: N_9  and  C_10
REMARK    3  A    between atoms: C_10  and  N_12
REMARK                            x       y       z     vdW  Elec       q    Type
REMARK                         _______ _______ _______ _____ _____    ______ ____
ROOT
ATOM      1  C   UNL     1       0.128  -4.215  -0.032  0.00  0.00    +0.161 C 
ATOM      2  S   UNL     1       1.617  -5.057  -0.094  0.00  0.00    -0.016 S 
ENDROOT
BRANCH   1   3
ATOM      3  N   UNL     1      -1.030  -4.897  -0.015  0.00  0.00    -0.193 NA
ATOM      4  C   UNL     1      -1.248  -5.806   0.919  0.00  0.00    +0.058 C 
ATOM      5  C   UNL     1      -0.287  -5.977   2.014  0.00  0.00    +0.027 C 
ATOM      6  C   UNL     1      -0.500  -6.900   2.973  0.00  0.00    +0.032 C 
ATOM      7  C   UNL     1      -1.693  -7.742   2.931  0.00  0.00    +0.095 C 
ATOM      8  N   UNL     1      -2.170  -8.709   3.700  0.00  0.00    -0.190 NA
ATOM      9  C   UNL     1      -3.325  -9.149   3.189  0.00  0.00    +0.369 C 
ATOM     10  O   UNL     1      -4.075 -10.137   3.735  0.00  0.00    -0.243 OA
ATOM     11  N   UNL     1      -3.643  -8.501   2.089  0.00  0.00    -0.190 NA
ATOM     12  C   UNL     1      -2.669  -7.585   1.839  0.00  0.00    +0.097 C 
ATOM     13  C   UNL     1      -2.457  -6.642   0.865  0.00  0.00    +0.055 C 
ENDBRANCH   1   3
BRANCH   1  16
ATOM     14  C   UNL     1       1.278  -2.183  -0.018  0.00  0.00    +0.251 C 
ATOM     15  O   UNL     1       2.335  -2.781  -0.061  0.00  0.00    -0.270 OA
ATOM     16  N   UNL     1       0.117  -2.867  -0.001  0.00  0.00    -0.262 N 
ATOM     17  H   UNL     1      -0.727  -2.390   0.034  0.00  0.00    +0.157 HD
BRANCH  14  22
ATOM     18  C   UNL     1       0.048   1.363   0.099  0.00  0.00    +0.001 A 
ATOM     19  C   UNL     1       1.242   2.063   0.081  0.00  0.00    +0.001 A 
ATOM     20  C   UNL     1       2.447   1.386   0.032  0.00  0.00    +0.015 A 
ATOM     21  C   UNL     1       2.466   0.006  -0.000  0.00  0.00    +0.025 A 
ATOM     22  C   UNL     1       1.265  -0.706   0.017  0.00  0.00    +0.050 A 
ATOM     23  C   UNL     1       0.052  -0.016   0.067  0.00  0.00    +0.014 A 
ATOM     24  I   UNL     1       4.293  -1.017  -0.076  0.00  0.00    -0.043 I 
ENDBRANCH  14  22
ENDBRANCH   1  16
TORSDOF 3
