REMARK  Name = ZINC14832240
REMARK  11 active torsions:
REMARK  status: ('A' for Active; 'I' for Inactive)
REMARK    1  A    between atoms: C_1  and  C_2
REMARK    2  A    between atoms: C_2  and  C_3
REMARK    3  A    between atoms: C_3  and  C_5
REMARK    4  A    between atoms: C_3  and  C_6
REMARK    5  A    between atoms: C_9  and  O_13
REMARK    6  A    between atoms: O_13  and  C_14
REMARK    7  A    between atoms: C_14  and  C_15
REMARK    8  A    between atoms: N_17  and  N_18
REMARK    9  A    between atoms: C_19  and  C_21
REMARK   10  A    between atoms: C_21  and  C_22
REMARK   11  A    between atoms: C_21  and  C_28
REMARK                            x       y       z     vdW  Elec       q    Type
REMARK                         _______ _______ _______ _____ _____    ______ ____
ROOT
ATOM      1  C   UNL     1      -0.301   0.179   4.843  0.00  0.00    +0.267 C 
ATOM      2  O   UNL     1       0.774   0.739   4.863  0.00  0.00    -0.271 OA
ATOM      3  N   UNL     1      -0.848  -0.188   3.667  0.00  0.00    -0.232 N 
ATOM      4  H   UNL     1      -1.708  -0.636   3.652  0.00  0.00    +0.173 HD
ENDROOT
BRANCH   3   5
ATOM      5  N   UNL     1      -0.175   0.077   2.468  0.00  0.00    -0.234 N 
ATOM      6  C   UNL     1      -0.722  -0.290   1.292  0.00  0.00    +0.241 C 
ATOM      7  O   UNL     1      -1.798  -0.850   1.273  0.00  0.00    -0.273 OA
ATOM      8  H   UNL     1       0.685   0.525   2.483  0.00  0.00    +0.173 HD
BRANCH   6   9
ATOM      9  C   UNL     1       0.002  -0.004   0.002  0.00  0.00    +0.136 C 
BRANCH   9  10
ATOM     10  C   UNL     1       0.208   1.482  -0.140  0.00  0.00    -0.031 A 
ATOM     11  C   UNL     1      -0.864   2.344  -0.003  0.00  0.00    +0.005 A 
ATOM     12  C   UNL     1      -0.675   3.708  -0.129  0.00  0.00    +0.000 A 
ATOM     13  C   UNL     1       0.585   4.208  -0.402  0.00  0.00    +0.000 A 
ATOM     14  C   UNL     1       1.655   3.346  -0.545  0.00  0.00    +0.000 A 
ATOM     15  C   UNL     1       1.467   1.983  -0.414  0.00  0.00    +0.005 A 
ENDBRANCH   9  10
BRANCH   9  16
ATOM     16  C   UNL     1      -0.817  -0.511  -1.157  0.00  0.00    -0.031 A 
ATOM     17  C   UNL     1      -2.134  -0.116  -1.298  0.00  0.00    +0.005 A 
ATOM     18  C   UNL     1      -2.884  -0.577  -2.364  0.00  0.00    +0.000 A 
ATOM     19  C   UNL     1      -2.320  -1.442  -3.283  0.00  0.00    +0.000 A 
ATOM     20  C   UNL     1      -1.005  -1.842  -3.138  0.00  0.00    +0.000 A 
ATOM     21  C   UNL     1      -0.253  -1.376  -2.076  0.00  0.00    +0.005 A 
ENDBRANCH   9  16
ENDBRANCH   6   9
ENDBRANCH   3   5
BRANCH   1  22
ATOM     22  C   UNL     1      -1.025  -0.107   6.133  0.00  0.00    +0.326 C 
BRANCH  22  23
ATOM     23  O   UNL     1      -0.249   0.374   7.232  0.00  0.00    -0.482 OA
BRANCH  23  27
ATOM     24  C   UNL     1      -1.811  -0.172  11.012  0.00  0.00    -0.043 A 
ATOM     25  C   UNL     1      -2.511  -0.614   9.904  0.00  0.00    +0.007 A 
ATOM     26  C   UNL     1      -1.993  -0.427   8.637  0.00  0.00    +0.047 A 
ATOM     27  C   UNL     1      -0.763   0.194   8.477  0.00  0.00    +0.135 A 
ATOM     28  C   UNL     1      -0.062   0.637   9.590  0.00  0.00    +0.060 A 
ATOM     29  C   UNL     1      -0.588   0.453  10.855  0.00  0.00    +0.022 A 
ATOM     30 BR   UNL     1       1.611   1.492   9.376  0.00  0.00    -0.047 Br
BRANCH  24  31
ATOM     31  C   UNL     1      -2.383  -0.372  12.392  0.00  0.00    +0.016 C 
ATOM     32  C   UNL     1      -2.580  -1.867  12.651  0.00  0.00    +0.012 C 
BRANCH  31  34
ATOM     33  C   UNL     1      -4.251   0.249  13.930  0.00  0.00    +0.004 C 
ATOM     34  C   UNL     1      -3.730   0.346  12.495  0.00  0.00    +0.004 C 
ENDBRANCH  31  34
ENDBRANCH  24  31
ENDBRANCH  23  27
ENDBRANCH  22  23
ENDBRANCH   1  22
TORSDOF 9
