REMARK  Name = ZINC40530373
REMARK  10 active torsions:
REMARK  status: ('A' for Active; 'I' for Inactive)
REMARK    1  A    between atoms: C_1  and  C_2
REMARK    2  A    between atoms: C_2  and  O_3
REMARK    3  A    between atoms: O_3  and  C_4
REMARK    4  A    between atoms: C_9  and  C_10
REMARK    5  A    between atoms: C_15  and  O_24
REMARK    6  A    between atoms: C_19  and  N_23
REMARK    7  A    between atoms: C_20  and  C_21
REMARK    8  A    between atoms: O_24  and  C_25
REMARK    9  A    between atoms: C_25  and  C_27
REMARK   10  A    between atoms: C_28  and  C_37
REMARK                            x       y       z     vdW  Elec       q    Type
REMARK                         _______ _______ _______ _____ _____    ______ ____
ROOT
ATOM      1  C   UNL     1       2.048  -1.404  -3.520  0.00  0.00    +0.101 C 
ATOM      2  C   UNL     1       1.367  -1.658  -4.838  0.00  0.00    +0.008 A 
ATOM      3  C   UNL     1       0.053  -1.261  -5.013  0.00  0.00    +0.012 A 
ATOM      4  C   UNL     1      -0.588  -1.486  -6.216  0.00  0.00    +0.047 A 
ATOM      5  C   UNL     1       0.087  -2.112  -7.255  0.00  0.00    +0.136 A 
ATOM      6  C   UNL     1       1.402  -2.511  -7.083  0.00  0.00    +0.093 A 
ATOM      7  C   UNL     1       2.045  -2.284  -5.872  0.00  0.00    +0.138 A 
ATOM      8  O   UNL     1       3.332  -2.681  -5.720  0.00  0.00    -0.441 OA
ATOM      9  C   UNL     1       4.086  -2.149  -4.743  0.00  0.00    +0.199 C 
ATOM     10  C   UNL     1       3.537  -1.532  -3.675  0.00  0.00    +0.098 C 
ENDROOT
BRANCH   1  16
ATOM     11  C   UNL     1       0.922  -1.979  -1.354  0.00  0.00    +0.125 A 
ATOM     12  C   UNL     1       0.472  -2.906  -0.425  0.00  0.00    +0.046 A 
ATOM     13  C   UNL     1       0.669  -4.255  -0.647  0.00  0.00    +0.004 A 
ATOM     14  C   UNL     1       1.314  -4.681  -1.794  0.00  0.00    +0.001 A 
ATOM     15  C   UNL     1       1.763  -3.759  -2.721  0.00  0.00    +0.008 A 
ATOM     16  C   UNL     1       1.563  -2.409  -2.506  0.00  0.00    +0.007 A 
BRANCH  11  17
ATOM     17  O   UNL     1       0.728  -0.651  -1.138  0.00  0.00    -0.492 OA
BRANCH  17  19
ATOM     18  C   UNL     1      -0.065   1.243   0.137  0.00  0.00    +0.048 C 
ATOM     19  C   UNL     1       0.060  -0.281   0.070  0.00  0.00    +0.225 C 
ENDBRANCH  17  19
ENDBRANCH  11  17
ENDBRANCH   1  16
BRANCH   9  20
ATOM     20  N   UNL     1       5.453  -2.237  -4.834  0.00  0.00    -0.328 N 
ATOM     21  H   UNL     1       5.861  -2.679  -5.595  0.00  0.00    +0.145 HD
ATOM     22  H   UNL     1       6.011  -1.858  -4.137  0.00  0.00    +0.145 HD
ENDBRANCH   9  20
BRANCH  10  23
ATOM     23  C   UNL     1       4.396  -0.986  -2.667  0.00  0.00    +0.101 C 
ATOM     24  N   UNL     1       5.078  -0.553  -1.868  0.00  0.00    -0.191 NA
ENDBRANCH  10  23
BRANCH   5  25
ATOM     25  O   UNL     1      -0.543  -2.334  -8.439  0.00  0.00    -0.420 OA
BRANCH  25  26
ATOM     26  C   UNL     1      -0.835  -3.608  -8.771  0.00  0.00    +0.380 C 
ATOM     27  O   UNL     1      -0.632  -4.506  -7.976  0.00  0.00    -0.241 OA
BRANCH  26  28
ATOM     28  C   UNL     1      -1.399  -3.911 -10.092  0.00  0.00    +0.216 A 
ATOM     29  C   UNL     1      -1.736  -5.152 -10.533  0.00  0.00    +0.010 A 
ATOM     30  C   UNL     1      -2.251  -4.973 -11.889  0.00  0.00    +0.025 A 
ATOM     31  C   UNL     1      -2.751  -5.842 -12.863  0.00  0.00    +0.032 A 
ATOM     32  C   UNL     1      -3.163  -5.344 -14.068  0.00  0.00    +0.042 A 
ATOM     33  C   UNL     1      -3.087  -3.981 -14.329  0.00  0.00    +0.023 A 
ATOM     34  C   UNL     1      -2.598  -3.109 -13.381  0.00  0.00    +0.048 A 
ATOM     35  C   UNL     1      -2.173  -3.592 -12.149  0.00  0.00    +0.136 A 
ATOM     36  O   UNL     1      -1.666  -2.999 -11.050  0.00  0.00    -0.448 OA
ATOM     37 CL   UNL     1      -3.784  -6.421 -15.279  0.00  0.00    -0.084 Cl
ATOM     38  C   UNL     1      -1.606  -6.449  -9.776  0.00  0.00    +0.048 C 
ENDBRANCH  26  28
ENDBRANCH  25  26
ENDBRANCH   5  25
TORSDOF 8
