REMARK  Name = ZINC13064554
REMARK  13 active torsions:
REMARK  status: ('A' for Active; 'I' for Inactive)
REMARK    1  A    between atoms: C_1  and  C_2
REMARK    2  A    between atoms: C_2  and  C_3
REMARK    3  A    between atoms: C_3  and  C_5
REMARK    4  A    between atoms: C_3  and  N_71
REMARK    5  A    between atoms: N_9  and  C_10
REMARK    6  A    between atoms: C_10  and  C_11
REMARK    7  A    between atoms: C_10  and  C_12
REMARK    8  A    between atoms: C_10  and  C_13
REMARK    9  A    between atoms: C_14  and  C_15
REMARK   10  A    between atoms: C_14  and  N_71
REMARK   11  A    between atoms: C_19  and  C_28
REMARK   12  A    between atoms: C_20  and  C_27
REMARK   13  A    between atoms: C_29  and  N_71
REMARK                            x       y       z     vdW  Elec       q    Type
REMARK                         _______ _______ _______ _____ _____    ______ ____
ROOT
ATOM      1  N   UNL     1      -6.075   3.862  -0.904  0.00  0.00    +0.391 N 
ATOM      2  H   UNL     1      -5.987   2.885  -0.601  0.00  0.00    -0.080 HD
ENDROOT
BRANCH   1   3
ATOM      3  C   UNL     1      -5.054   4.139  -1.936  0.00  0.00    -0.067 C 
ATOM      4  C   UNL     1      -5.242   5.543  -2.514  0.00  0.00    -0.015 C 
ATOM      5  C   UNL     1      -4.176   5.803  -3.580  0.00  0.00    -0.002 C 
ATOM      6  C   UNL     1      -4.311   4.768  -4.699  0.00  0.00    -0.000 C 
ATOM      7  C   UNL     1      -4.123   3.364  -4.122  0.00  0.00    -0.002 C 
ATOM      8  C   UNL     1      -5.189   3.104  -3.055  0.00  0.00    -0.015 C 
ENDBRANCH   1   3
BRANCH   1   9
ATOM      9  C   UNL     1      -7.428   4.071  -1.463  0.00  0.00    +0.003 C 
BRANCH   9  10
ATOM     10  C   UNL     1      -7.756   5.541  -1.513  0.00  0.00    +0.139 A 
ATOM     11  N   UNL     1      -7.421   6.448  -0.628  0.00  0.00    -0.115 NA
ATOM     12  N   UNL     1      -7.885   7.582  -1.026  0.00  0.00    -0.023 NA
ATOM     13  N   UNL     1      -8.507   7.422  -2.142  0.00  0.00    -0.043 NA
ATOM     14  N   UNL     1      -8.445   6.178  -2.478  0.00  0.00    -0.226 N 
BRANCH  14  15
ATOM     15  C   UNL     1      -9.020   5.572  -3.681  0.00  0.00    +0.059 C 
ATOM     16  C   UNL     1      -9.903   4.387  -3.284  0.00  0.00    +0.036 C 
ATOM     17  C   UNL     1      -9.865   6.611  -4.422  0.00  0.00    +0.036 C 
ATOM     18  C   UNL     1      -7.894   5.085  -4.595  0.00  0.00    +0.036 C 
ENDBRANCH  14  15
ENDBRANCH   9  10
BRANCH   9  20
ATOM     19  C   UNL     1      -8.189   1.844  -0.626  0.00  0.00    +0.002 C 
ATOM     20  C   UNL     1      -8.443   3.352  -0.572  0.00  0.00    -0.011 C 
ENDBRANCH   9  20
ENDBRANCH   1   9
BRANCH   1  21
ATOM     21  C   UNL     1      -5.868   4.747   0.262  0.00  0.00    -0.036 C 
BRANCH  21  22
ATOM     22  C   UNL     1      -4.682   4.245   1.045  0.00  0.00    +0.001 A 
ATOM     23  C   UNL     1      -3.504   4.913   0.989  0.00  0.00    +0.017 A 
ATOM     24  C   UNL     1      -2.371   4.400   1.762  0.00  0.00    -0.001 A 
ATOM     25  C   UNL     1      -1.131   5.046   1.743  0.00  0.00    +0.013 A 
ATOM     26  C   UNL     1      -0.094   4.541   2.475  0.00  0.00    -0.047 A 
ATOM     27  C   UNL     1      -0.260   3.393   3.238  0.00  0.00    -0.046 A 
ATOM     28  C   UNL     1      -1.473   2.740   3.270  0.00  0.00    +0.030 A 
ATOM     29  C   UNL     1      -2.542   3.232   2.528  0.00  0.00    +0.049 A 
ATOM     30  N   UNL     1      -3.768   2.602   2.547  0.00  0.00    -0.322 N 
ATOM     31  H   UNL     1      -3.885   1.800   3.080  0.00  0.00    +0.169 HD
ATOM     32  C   UNL     1      -4.803   3.081   1.834  0.00  0.00    +0.251 A 
ATOM     33  O   UNL     1      -5.871   2.495   1.870  0.00  0.00    -0.268 OA
ATOM     34  C   UNL     1       0.898   2.855   4.037  0.00  0.00    +0.044 C 
ATOM     35  C   UNL     1       1.243   5.237   2.455  0.00  0.00    +0.044 C 
ENDBRANCH  21  22
ENDBRANCH   1  21
TORSDOF 7
