REMARK  Name = ZINC37813009
REMARK  4 active torsions:
REMARK  status: ('A' for Active; 'I' for Inactive)
REMARK    1  A    between atoms: C_13  and  C_15
REMARK    2  A    between atoms: C_15  and  C_17
REMARK    3  A    between atoms: C_15  and  N_21
REMARK    4  A    between atoms: C_17  and  C_18
REMARK                            x       y       z     vdW  Elec       q    Type
REMARK                         _______ _______ _______ _____ _____    ______ ____
ROOT
ATOM      1  C   UNL     1      -0.016   1.319   0.009  0.00  0.00    +0.131 A 
ATOM      2  C   UNL     1       1.185   2.011   0.002  0.00  0.00    +0.054 A 
ATOM      3  C   UNL     1       2.368   1.287  -0.014  0.00  0.00    +0.131 A 
ATOM      4  N   UNL     1       2.315  -0.035  -0.020  0.00  0.00    -0.222 NA
ATOM      5  C   UNL     1       1.150  -0.666  -0.013  0.00  0.00    +0.218 A 
ATOM      6  N   UNL     1       0.002  -0.004   0.002  0.00  0.00    -0.222 NA
ATOM      7  N   UNL     1       1.131  -2.050  -0.020  0.00  0.00    -0.297 N 
ATOM      8  C   UNL     1       2.386  -2.815  -0.030  0.00  0.00    +0.127 C 
ATOM      9  C   UNL     1       2.379  -3.784   1.159  0.00  0.00    +0.126 C 
ATOM     10  N   UNL     1       1.104  -4.515   1.162  0.00  0.00    -0.300 N 
ATOM     11  C   UNL     1      -0.151  -3.750   1.172  0.00  0.00    +0.126 C 
ATOM     12  C   UNL     1      -0.144  -2.781  -0.011  0.00  0.00    +0.127 C 
ATOM     13  C   UNL     1       1.086  -5.862   1.155  0.00  0.00    +0.202 C 
ATOM     14  O   UNL     1       2.128  -6.483   1.146  0.00  0.00    -0.277 OA
ATOM     15 BR   UNL     1       1.211   3.902   0.011  0.00  0.00    -0.047 Br
ENDROOT
BRANCH  13  16
ATOM     16  C   UNL     1      -0.229  -6.598   1.158  0.00  0.00    +0.022 C 
BRANCH  16  17
ATOM     17  N   UNL     1      -0.018  -7.976   1.623  0.00  0.00    +0.386 N 
ATOM     18  H   UNL     1       0.360  -7.961   2.558  0.00  0.00    -0.089 HD
ATOM     19  H   UNL     1      -0.899  -8.469   1.625  0.00  0.00    -0.089 HD
ATOM     20  H   UNL     1       0.628  -8.444   1.006  0.00  0.00    -0.089 HD
ENDBRANCH  16  17
BRANCH  16  21
ATOM     21  C   UNL     1      -0.804  -6.621  -0.260  0.00  0.00    +0.088 C 
BRANCH  21  22
ATOM     22  C   UNL     1      -2.174  -7.248  -0.237  0.00  0.00    +0.209 C 
ATOM     23  O   UNL     1      -2.644  -7.638   0.811  0.00  0.00    -0.276 OA
ATOM     24  N   UNL     1      -2.876  -7.375  -1.380  0.00  0.00    -0.329 N 
ATOM     25  H   UNL     1      -2.500  -7.064  -2.218  0.00  0.00    +0.145 HD
ATOM     26  H   UNL     1      -3.758  -7.779  -1.365  0.00  0.00    +0.145 HD
ENDBRANCH  21  22
ENDBRANCH  16  21
ENDBRANCH  13  16
TORSDOF 4
