REMARK  Name = ZINC13576659
REMARK  4 active torsions:
REMARK  status: ('A' for Active; 'I' for Inactive)
REMARK    1  A    between atoms: C_1  and  C_2
REMARK    2  A    between atoms: C_2  and  N_3
REMARK    3  A    between atoms: C_16  and  C_18
REMARK    4  A    between atoms: N_22  and  C_25
REMARK                            x       y       z     vdW  Elec       q    Type
REMARK                         _______ _______ _______ _____ _____    ______ ____
ROOT
ATOM      1  N   UNL     1      -0.813   0.154   0.080  0.00  0.00    +0.388 N 
ATOM      2  C   UNL     1       0.201   1.075   0.609  0.00  0.00    -0.073 C 
ATOM      3  C   UNL     1       1.036   1.638  -0.549  0.00  0.00    +0.019 C 
ATOM      4  C   UNL     1       1.487   0.476  -1.399  0.00  0.00    -0.022 A 
ATOM      5  C   UNL     1       2.518   0.422  -2.410  0.00  0.00    +0.003 A 
ATOM      6  C   UNL     1       3.404   1.378  -2.919  0.00  0.00    +0.010 A 
ATOM      7  C   UNL     1       4.270   0.962  -3.900  0.00  0.00    +0.001 A 
ATOM      8  C   UNL     1       4.277  -0.340  -4.372  0.00  0.00    +0.002 A 
ATOM      9  C   UNL     1       3.413  -1.306  -3.887  0.00  0.00    +0.026 A 
ATOM     10  C   UNL     1       2.522  -0.914  -2.891  0.00  0.00    +0.047 A 
ATOM     11  N   UNL     1       1.557  -1.596  -2.206  0.00  0.00    -0.359 N 
ATOM     12  H   UNL     1       1.341  -2.534  -2.331  0.00  0.00    +0.166 HD
ATOM     13  C   UNL     1       0.942  -0.759  -1.316  0.00  0.00    +0.011 A 
ATOM     14  C   UNL     1      -0.181  -1.097  -0.364  0.00  0.00    +0.021 C 
ATOM     15  H   UNL     1      -1.281   0.588  -0.701  0.00  0.00    -0.080 HD
ENDROOT
BRANCH  14  16
ATOM     16  C   UNL     1      -1.199  -1.956  -1.069  0.00  0.00    +0.074 A 
ATOM     17  C   UNL     1      -1.430  -3.235  -0.654  0.00  0.00    +0.260 A 
ATOM     18  N   UNL     1      -2.362  -3.999  -1.310  0.00  0.00    -0.274 N 
ATOM     19  C   UNL     1      -3.045  -3.494  -2.354  0.00  0.00    +0.337 A 
ATOM     20  N   UNL     1      -2.830  -2.235  -2.779  0.00  0.00    -0.229 N 
ATOM     21  C   UNL     1      -1.928  -1.449  -2.159  0.00  0.00    +0.267 A 
ATOM     22  O   UNL     1      -1.742  -0.307  -2.543  0.00  0.00    -0.267 OA
ATOM     23  O   UNL     1      -3.867  -4.186  -2.924  0.00  0.00    -0.246 OA
ATOM     24  O   UNL     1      -0.747  -3.744   0.392  0.00  0.00    -0.267 OA
ATOM     25  H   UNL     1      -2.530  -4.909  -1.019  0.00  0.00    +0.173 HD
BRANCH  20  26
ATOM     26  C   UNL     1      -3.555  -1.736  -3.869  0.00  0.00    +0.056 A 
ATOM     27  C   UNL     1      -3.061  -1.886  -5.159  0.00  0.00    +0.026 A 
ATOM     28  C   UNL     1      -3.777  -1.393  -6.232  0.00  0.00    +0.003 A 
ATOM     29  C   UNL     1      -4.984  -0.751  -6.025  0.00  0.00    +0.020 A 
ATOM     30  C   UNL     1      -5.478  -0.600  -4.742  0.00  0.00    +0.043 A 
ATOM     31  C   UNL     1      -4.769  -1.096  -3.664  0.00  0.00    +0.046 A 
ATOM     32 CL   UNL     1      -6.994   0.208  -4.485  0.00  0.00    -0.083 Cl
ENDBRANCH  20  26
ENDBRANCH  14  16
BRANCH   1  34
ATOM     33  C   UNL     1      -2.543   1.137   1.508  0.00  0.00    -0.017 C 
ATOM     34  C   UNL     1      -1.795  -0.144   1.131  0.00  0.00    -0.081 C 
ENDBRANCH   1  34
TORSDOF 3
