REMARK  Name = ZINC39988965
REMARK  7 active torsions:
REMARK  status: ('A' for Active; 'I' for Inactive)
REMARK    1  A    between atoms: C_1  and  N_2
REMARK    2  A    between atoms: N_2  and  C_3
REMARK    3  A    between atoms: C_3  and  N_5
REMARK    4  A    between atoms: C_6  and  C_30
REMARK    5  A    between atoms: C_9  and  C_11
REMARK    6  A    between atoms: C_13  and  C_24
REMARK    7  A    between atoms: C_34  and  N_36
REMARK                            x       y       z     vdW  Elec       q    Type
REMARK                         _______ _______ _______ _____ _____    ______ ____
ROOT
ATOM      1  N   UNL     1      -1.223  -2.153  -0.094  0.00  0.00    -0.197 N 
ATOM      2  C   UNL     1      -2.377  -3.067  -0.114  0.00  0.00    +0.136 C 
ATOM      3  C   UNL     1      -1.723  -4.463  -0.100  0.00  0.00    +0.083 C 
ATOM      4  C   UNL     1      -0.240  -4.167  -0.073  0.00  0.00    +0.055 C 
ATOM      5  N   UNL     1      -0.054  -2.911  -0.077  0.00  0.00    -0.185 NA
ENDROOT
BRANCH   4   6
ATOM      6  C   UNL     1       0.851  -5.205  -0.051  0.00  0.00    +0.152 C 
ATOM      7  C   UNL     1       2.175  -4.493  -0.249  0.00  0.00    -0.014 C 
ATOM      8  C   UNL     1       3.138  -4.654   0.752  0.00  0.00    +0.002 A 
ATOM      9  C   UNL     1       4.397  -4.026   0.648  0.00  0.00    +0.030 A 
ATOM     10  C   UNL     1       5.316  -4.199   1.637  0.00  0.00    +0.042 A 
ATOM     11  C   UNL     1       5.040  -4.986   2.753  0.00  0.00    +0.022 A 
ATOM     12  C   UNL     1       3.842  -5.616   2.909  0.00  0.00    +0.025 A 
ATOM     13  C   UNL     1       2.845  -5.482   1.927  0.00  0.00    +0.041 A 
ATOM     14  N   UNL     1       1.670  -6.102   2.082  0.00  0.00    -0.284 N 
ATOM     15  C   UNL     1       0.686  -6.025   1.208  0.00  0.00    +0.230 C 
ATOM     16  O   UNL     1      -0.357  -6.617   1.416  0.00  0.00    -0.274 OA
ATOM     17 CL   UNL     1       6.864  -3.424   1.504  0.00  0.00    -0.084 Cl
ATOM     18  H   UNL     1       1.535  -6.636   2.880  0.00  0.00    +0.155 HD
BRANCH   7  19
ATOM     19  C   UNL     1       2.426  -3.700  -1.397  0.00  0.00    -0.020 A 
ATOM     20  C   UNL     1       2.679  -2.325  -1.266  0.00  0.00    +0.008 A 
ATOM     21  C   UNL     1       2.921  -1.564  -2.387  0.00  0.00    +0.001 A 
ATOM     22  C   UNL     1       2.915  -2.150  -3.643  0.00  0.00    +0.000 A 
ATOM     23  C   UNL     1       2.666  -3.506  -3.784  0.00  0.00    +0.001 A 
ATOM     24  C   UNL     1       2.428  -4.286  -2.674  0.00  0.00    +0.008 A 
ENDBRANCH   7  19
ENDBRANCH   4   6
BRANCH   2  25
ATOM     25  C   UNL     1      -3.236  -2.866   1.108  0.00  0.00    -0.023 A 
ATOM     26  C   UNL     1      -2.647  -2.613   2.333  0.00  0.00    +0.005 A 
ATOM     27  C   UNL     1      -3.434  -2.429   3.454  0.00  0.00    +0.003 A 
ATOM     28  C   UNL     1      -4.811  -2.497   3.350  0.00  0.00    +0.033 A 
ATOM     29  C   UNL     1      -5.400  -2.749   2.126  0.00  0.00    +0.127 A 
ATOM     30  C   UNL     1      -4.613  -2.929   1.004  0.00  0.00    +0.038 A 
BRANCH  29  31
ATOM     31  N   UNL     1      -6.874  -2.822   2.014  0.00  0.00    +0.056 N 
ATOM     32  O   UNL     1      -7.563  -2.662   2.995  0.00  0.00    -0.126 OA
ATOM     33  O   UNL     1      -7.390  -3.043   0.943  0.00  0.00    -0.126 OA
ENDBRANCH  29  31
ENDBRANCH   2  25
BRANCH   1  34
ATOM     34  C   UNL     1      -1.287  -0.807  -0.097  0.00  0.00    +0.153 C 
ATOM     35  S   UNL     1      -2.808  -0.022  -0.120  0.00  0.00    -0.017 S 
BRANCH  34  37
ATOM     36  C   UNL     1      -0.222   1.385  -0.087  0.00  0.00    +0.127 C 
ATOM     37  N   UNL     1      -0.153  -0.079  -0.083  0.00  0.00    -0.328 N 
ATOM     38  H   UNL     1       0.709  -0.523  -0.070  0.00  0.00    +0.147 HD
ENDBRANCH  34  37
ENDBRANCH   1  34
TORSDOF 6
