REMARK  Name = ZINC38799180
REMARK  8 active torsions:
REMARK  status: ('A' for Active; 'I' for Inactive)
REMARK    1  A    between atoms: C_1  and  C_2
REMARK    2  A    between atoms: C_2  and  C_4
REMARK    3  A    between atoms: C_2  and  S_16
REMARK    4  A    between atoms: N_6  and  C_7
REMARK    5  A    between atoms: C_12  and  N_13
REMARK    6  A    between atoms: S_16  and  C_17
REMARK    7  A    between atoms: C_21  and  C_30
REMARK    8  A    between atoms: N_22  and  C_23
REMARK                            x       y       z     vdW  Elec       q    Type
REMARK                         _______ _______ _______ _____ _____    ______ ____
ROOT
ATOM      1  C   UNL     1      -2.136   0.160   1.643  0.00  0.00    +0.242 C 
ATOM      2  N   UNL     1      -1.121  -0.162   2.659  0.00  0.00    -0.237 N 
ATOM      3  N   UNL     1      -0.662   1.060   3.165  0.00  0.00    -0.169 NA
ATOM      4  C   UNL     1      -1.264   2.068   2.589  0.00  0.00    +0.151 C 
ATOM      5  N   UNL     1      -2.194   1.631   1.637  0.00  0.00    -0.254 N 
ATOM      6  H   UNL     1      -0.828  -1.047   2.927  0.00  0.00    +0.171 HD
ENDROOT
BRANCH   4   7
ATOM      7  C   UNL     1      -1.013   3.416   2.889  0.00  0.00    +0.022 C 
ATOM      8  C   UNL     1      -0.033   3.921   3.743  0.00  0.00    +0.006 A 
ATOM      9  C   UNL     1       0.957   3.298   4.532  0.00  0.00    +0.010 A 
ATOM     10  C   UNL     1       1.795   4.057   5.284  0.00  0.00    +0.001 A 
ATOM     11  C   UNL     1       1.704   5.451   5.300  0.00  0.00    +0.002 A 
ATOM     12  C   UNL     1       0.777   6.115   4.566  0.00  0.00    +0.026 A 
ATOM     13  C   UNL     1      -0.133   5.390   3.756  0.00  0.00    +0.043 A 
ATOM     14  N   UNL     1      -1.109   5.792   2.965  0.00  0.00    -0.380 N 
ATOM     15  C   UNL     1      -1.745   4.624   2.348  0.00  0.00    +0.152 C 
ATOM     16  H   UNL     1      -1.363   6.716   2.812  0.00  0.00    +0.160 HD
ENDBRANCH   4   7
BRANCH   5  17
ATOM     17  C   UNL     1      -3.014   2.432   0.837  0.00  0.00    +0.038 A 
ATOM     18  C   UNL     1      -4.391   2.417   1.018  0.00  0.00    +0.025 A 
ATOM     19  C   UNL     1      -5.199   3.209   0.227  0.00  0.00    +0.022 A 
ATOM     20  C   UNL     1      -4.637   4.017  -0.747  0.00  0.00    +0.041 A 
ATOM     21  C   UNL     1      -3.266   4.033  -0.930  0.00  0.00    +0.022 A 
ATOM     22  C   UNL     1      -2.453   3.248  -0.137  0.00  0.00    +0.025 A 
ATOM     23 CL   UNL     1      -5.656   5.011  -1.741  0.00  0.00    -0.084 Cl
ENDBRANCH   5  17
BRANCH   1  24
ATOM     24  S   UNL     1      -1.626  -0.462   0.017  0.00  0.00    -0.105 S 
BRANCH  24  26
ATOM     25  C   UNL     1       0.128   1.609  -0.325  0.00  0.00    +0.029 C 
ATOM     26  C   UNL     1       0.094   0.090  -0.144  0.00  0.00    +0.133 C 
BRANCH  26  27
ATOM     27  C   UNL     1       0.725  -0.572  -1.342  0.00  0.00    +0.230 C 
ATOM     28  O   UNL     1       0.029  -0.957  -2.258  0.00  0.00    -0.274 OA
ATOM     29  N   UNL     1       2.061  -0.737  -1.395  0.00  0.00    -0.283 N 
ATOM     30  H   UNL     1       2.611  -0.495  -0.633  0.00  0.00    +0.155 HD
BRANCH  29  31
ATOM     31  C   UNL     1       2.656  -1.257  -2.550  0.00  0.00    +0.064 A 
ATOM     32  C   UNL     1       2.035  -1.105  -3.782  0.00  0.00    +0.025 A 
ATOM     33  C   UNL     1       2.625  -1.619  -4.920  0.00  0.00    +0.002 A 
ATOM     34  C   UNL     1       3.834  -2.285  -4.833  0.00  0.00    +0.002 A 
ATOM     35  C   UNL     1       4.455  -2.439  -3.607  0.00  0.00    +0.034 A 
ATOM     36  C   UNL     1       3.873  -1.922  -2.466  0.00  0.00    +0.147 A 
BRANCH  36  37
ATOM     37  N   UNL     1       4.542  -2.081  -1.156  0.00  0.00    +0.058 N 
ATOM     38  O   UNL     1       5.649  -2.562  -1.097  0.00  0.00    -0.126 OA
ATOM     39  O   UNL     1       3.981  -1.729  -0.144  0.00  0.00    -0.126 OA
ENDBRANCH  36  37
ENDBRANCH  29  31
ENDBRANCH  26  27
ENDBRANCH  24  26
ENDBRANCH   1  24
TORSDOF 7
