REMARK  Name = ZINC06878694
REMARK  9 active torsions:
REMARK  status: ('A' for Active; 'I' for Inactive)
REMARK    1  A    between atoms: C_1  and  N_2
REMARK    2  A    between atoms: N_2  and  C_3
REMARK    3  A    between atoms: N_2  and  S_4
REMARK    4  A    between atoms: S_4  and  C_7
REMARK    5  A    between atoms: C_10  and  C_13
REMARK    6  A    between atoms: C_13  and  C_15
REMARK    7  A    between atoms: C_17  and  C_29
REMARK    8  A    between atoms: C_20  and  O_28
REMARK    9  A    between atoms: C_22  and  C_23
REMARK                            x       y       z     vdW  Elec       q    Type
REMARK                         _______ _______ _______ _____ _____    ______ ____
ROOT
ATOM      1  C   UNL     1      -2.429  -3.059  -6.378  0.00  0.00    +0.149 C 
ATOM      2  C   UNL     1      -3.280  -3.425  -7.604  0.00  0.00    +0.120 C 
ATOM      3  N   UNL     1      -2.627  -4.563  -8.268  0.00  0.00    -0.293 N 
ATOM      4  C   UNL     1      -1.260  -4.554  -8.400  0.00  0.00    +0.256 C 
ATOM      5  N   UNL     1      -0.510  -3.719  -7.764  0.00  0.00    -0.306 N 
ATOM      6  C   UNL     1      -1.021  -2.697  -6.857  0.00  0.00    +0.284 C 
ATOM      7  O   UNL     1      -1.063  -1.442  -7.538  0.00  0.00    -0.194 OA
ATOM      8  H   UNL     1      -3.151  -5.306  -8.607  0.00  0.00    +0.151 HD
ATOM      9  H   UNL     1       0.449  -3.773  -7.897  0.00  0.00    +0.167 HD
ENDROOT
BRANCH   2  10
ATOM     10  C   UNL     1      -3.352  -2.251  -8.547  0.00  0.00    -0.026 A 
ATOM     11  C   UNL     1      -2.303  -1.992  -9.409  0.00  0.00    +0.005 A 
ATOM     12  C   UNL     1      -2.369  -0.916 -10.274  0.00  0.00    +0.000 A 
ATOM     13  C   UNL     1      -3.484  -0.099 -10.277  0.00  0.00    +0.000 A 
ATOM     14  C   UNL     1      -4.533  -0.359  -9.415  0.00  0.00    +0.000 A 
ATOM     15  C   UNL     1      -4.469  -1.437  -8.553  0.00  0.00    +0.005 A 
ENDBRANCH   2  10
BRANCH   6  16
ATOM     16  C   UNL     1      -0.090  -2.584  -5.648  0.00  0.00    +0.441 C 
ATOM     17  F   UNL     1      -0.033  -3.815  -4.987  0.00  0.00    -0.166 F 
ATOM     18  F   UNL     1       1.191  -2.225  -6.078  0.00  0.00    -0.166 F 
ATOM     19  F   UNL     1      -0.579  -1.607  -4.774  0.00  0.00    -0.166 F 
ENDBRANCH   6  16
BRANCH   1  20
ATOM     20  C   UNL     1      -3.042  -1.879  -5.669  0.00  0.00    +0.173 C 
ATOM     21  O   UNL     1      -2.701  -0.753  -5.959  0.00  0.00    -0.292 OA
BRANCH  20  25
ATOM     22  C   UNL     1      -5.961  -2.501  -2.655  0.00  0.00    +0.105 A 
ATOM     23  C   UNL     1      -5.492  -1.223  -2.906  0.00  0.00    +0.029 A 
ATOM     24  C   UNL     1      -4.543  -1.013  -3.884  0.00  0.00    +0.013 A 
ATOM     25  C   UNL     1      -4.054  -2.095  -4.623  0.00  0.00    +0.018 A 
ATOM     26  C   UNL     1      -4.533  -3.383  -4.363  0.00  0.00    +0.013 A 
ATOM     27  C   UNL     1      -5.478  -3.578  -3.378  0.00  0.00    +0.029 A 
BRANCH  22  28
ATOM     28  S   UNL     1      -7.174  -2.759  -1.403  0.00  0.00    +0.060 S 
ATOM     29  O   UNL     1      -7.844  -3.969  -1.730  0.00  0.00    -0.153 OA
ATOM     30  O   UNL     1      -7.863  -1.526  -1.244  0.00  0.00    -0.153 OA
BRANCH  28  32
ATOM     31  C   UNL     1      -6.015  -1.912   0.889  0.00  0.00    +0.131 C 
ATOM     32  N   UNL     1      -6.364  -3.034   0.015  0.00  0.00    -0.183 NA
ATOM     33  C   UNL     1      -5.996  -4.401   0.395  0.00  0.00    +0.131 C 
ENDBRANCH  28  32
ENDBRANCH  22  28
ENDBRANCH  20  25
ENDBRANCH   1  20
BRANCH   4  34
ATOM     34  O   UNL     1      -0.679  -5.453  -9.224  0.00  0.00    -0.483 OA
ATOM     35  H   UNL     1       0.285  -5.385  -9.264  0.00  0.00    +0.295 HD
ENDBRANCH   4  34
TORSDOF 7
