REMARK  Name = ZINC58185070
REMARK  4 active torsions:
REMARK  status: ('A' for Active; 'I' for Inactive)
REMARK    1  A    between atoms: C_1  and  C_2
REMARK    2  A    between atoms: C_2  and  C_3
REMARK    3  A    between atoms: C_3  and  N_4
REMARK    4  A    between atoms: N_21  and  C_24
REMARK                            x       y       z     vdW  Elec       q    Type
REMARK                         _______ _______ _______ _____ _____    ______ ____
ROOT
ATOM      1  N   UNL     1       0.632  -1.958  -1.323  0.00  0.00    -0.265 N 
ATOM      2  C   UNL     1       1.575  -2.707  -0.714  0.00  0.00    +0.251 C 
ATOM      3  O   UNL     1       2.563  -2.181  -0.238  0.00  0.00    -0.270 OA
ATOM      4  C   UNL     1       1.397  -4.167  -0.631  0.00  0.00    +0.058 A 
ATOM      5  C   UNL     1       2.419  -5.000  -0.181  0.00  0.00    +0.015 A 
ATOM      6  C   UNL     1       2.213  -6.363  -0.128  0.00  0.00    +0.001 A 
ATOM      7  C   UNL     1       0.999  -6.907  -0.519  0.00  0.00    +0.002 A 
ATOM      8  C   UNL     1      -0.024  -6.092  -0.965  0.00  0.00    +0.024 A 
ATOM      9  C   UNL     1       0.165  -4.722  -1.020  0.00  0.00    +0.041 A 
ATOM     10  N   UNL     1      -0.844  -3.861  -1.439  0.00  0.00    -0.312 N 
ATOM     11  C   UNL     1      -0.476  -2.582  -2.041  0.00  0.00    +0.208 C 
ATOM     12  C   UNL     1      -0.142  -2.759  -3.490  0.00  0.00    +0.024 A 
ATOM     13  C   UNL     1       0.841  -3.494  -4.116  0.00  0.00    +0.010 A 
ATOM     14  C   UNL     1       0.880  -3.439  -5.505  0.00  0.00    +0.001 A 
ATOM     15  C   UNL     1      -0.026  -2.683  -6.221  0.00  0.00    +0.002 A 
ATOM     16  C   UNL     1      -1.018  -1.942  -5.598  0.00  0.00    +0.024 A 
ATOM     17  C   UNL     1      -1.068  -1.989  -4.204  0.00  0.00    +0.043 A 
ATOM     18  N   UNL     1      -1.943  -1.361  -3.335  0.00  0.00    -0.271 N 
ATOM     19  C   UNL     1      -1.673  -1.653  -2.045  0.00  0.00    +0.266 C 
ATOM     20  O   UNL     1      -2.275  -1.248  -1.073  0.00  0.00    -0.271 OA
ATOM     21  C   UNL     1      -3.033  -0.481  -3.764  0.00  0.00    +0.138 C 
ATOM     22  H   UNL     1      -1.777  -4.104  -1.331  0.00  0.00    +0.149 HD
ENDROOT
BRANCH   1  23
ATOM     23  C   UNL     1       0.718  -0.497  -1.257  0.00  0.00    +0.111 C 
BRANCH  23  25
ATOM     24  C   UNL     1       1.736   1.530  -2.304  0.00  0.00    +0.005 C 
ATOM     25  C   UNL     1       1.538   0.019  -2.441  0.00  0.00    +0.016 C 
ENDBRANCH  23  25
ENDBRANCH   1  23
TORSDOF 2
