REMARK  Name = ZINC35310547
REMARK  3 active torsions:
REMARK  status: ('A' for Active; 'I' for Inactive)
REMARK    1  A    between atoms: C_5  and  C_7
REMARK    2  A    between atoms: C_7  and  N_8
REMARK    3  A    between atoms: C_9  and  C_11
REMARK                            x       y       z     vdW  Elec       q    Type
REMARK                         _______ _______ _______ _____ _____    ______ ____
ROOT
ATOM      1  C   UNL     1       1.819  -4.511   2.961  0.00  0.00    +0.076 C 
ATOM      2  C   UNL     1       0.731  -4.008   3.948  0.00  0.00    -0.003 C 
ATOM      3  C   UNL     1       0.756  -5.109   5.035  0.00  0.00    -0.066 C 
ATOM      4  C   UNL     1      -0.631  -5.200   5.691  0.00  0.00    -0.017 C 
ATOM      5  C   UNL     1      -1.177  -6.590   5.294  0.00  0.00    -0.020 C 
ATOM      6  C   UNL     1      -0.377  -6.922   4.011  0.00  0.00    -0.077 C 
ATOM      7  N   UNL     1       0.994  -6.373   4.291  0.00  0.00    +0.394 N 
ATOM      8  C   UNL     1       1.663  -6.038   3.024  0.00  0.00    +0.052 C 
ATOM      9  C   UNL     1       0.880  -6.545   1.842  0.00  0.00    -0.027 A 
ATOM     10  C   UNL     1      -0.396  -6.306   1.383  0.00  0.00    +0.004 A 
ATOM     11  C   UNL     1      -0.847  -6.935   0.236  0.00  0.00    +0.000 A 
ATOM     12  C   UNL     1      -0.013  -7.803  -0.446  0.00  0.00    +0.002 A 
ATOM     13  C   UNL     1       1.266  -8.044   0.011  0.00  0.00    +0.023 A 
ATOM     14  C   UNL     1       1.728  -7.415   1.165  0.00  0.00    +0.036 A 
ATOM     15  N   UNL     1       2.960  -7.493   1.816  0.00  0.00    -0.286 N 
ATOM     16  C   UNL     1       3.004  -6.717   2.915  0.00  0.00    +0.212 C 
ATOM     17  O   UNL     1       3.944  -6.587   3.671  0.00  0.00    -0.277 OA
ATOM     18  H   UNL     1       3.699  -8.043   1.512  0.00  0.00    +0.155 HD
ATOM     19  H   UNL     1       1.542  -7.018   4.840  0.00  0.00    -0.079 HD
ENDROOT
BRANCH   1  21
ATOM     20  N   UNL     1       2.562  -3.904   0.681  0.00  0.00    -0.311 N 
ATOM     21  C   UNL     1       1.552  -4.005   1.567  0.00  0.00    +0.216 C 
ATOM     22  O   UNL     1       0.427  -3.687   1.243  0.00  0.00    -0.276 OA
ATOM     23  H   UNL     1       3.462  -4.158   0.941  0.00  0.00    +0.149 HD
BRANCH  20  24
ATOM     24  C   UNL     1       2.302  -3.411  -0.673  0.00  0.00    +0.141 C 
BRANCH  24  29
ATOM     25  C   UNL     1       5.463  -2.199  -2.343  0.00  0.00    +0.000 A 
ATOM     26  C   UNL     1       5.949  -3.368  -2.899  0.00  0.00    +0.001 A 
ATOM     27  C   UNL     1       5.255  -4.551  -2.735  0.00  0.00    +0.020 A 
ATOM     28  C   UNL     1       4.074  -4.566  -2.014  0.00  0.00    +0.046 A 
ATOM     29  C   UNL     1       3.589  -3.396  -1.458  0.00  0.00    -0.012 A 
ATOM     30  C   UNL     1       4.284  -2.213  -1.623  0.00  0.00    +0.006 A 
ATOM     31 CL   UNL     1       3.201  -6.053  -1.808  0.00  0.00    -0.083 Cl
ENDBRANCH  24  29
ENDBRANCH  20  24
ENDBRANCH   1  21
TORSDOF 3
