REMARK  Name = ZINC37379682
REMARK  8 active torsions:
REMARK  status: ('A' for Active; 'I' for Inactive)
REMARK    1  A    between atoms: C_1  and  C_2
REMARK    2  A    between atoms: C_5  and  C_8
REMARK    3  A    between atoms: C_8  and  C_9
REMARK    4  A    between atoms: C_13  and  C_23
REMARK    5  A    between atoms: N_15  and  C_16
REMARK    6  A    between atoms: C_24  and  N_26
REMARK    7  A    between atoms: N_29  and  C_32
REMARK    8  A    between atoms: C_32  and  C_33
REMARK                            x       y       z     vdW  Elec       q    Type
REMARK                         _______ _______ _______ _____ _____    ______ ____
ROOT
ATOM      1  C   UNL     1       1.490  -4.777  -0.035  0.00  0.00    +0.138 A 
ATOM      2  N   UNL     1       2.083  -4.961  -1.194  0.00  0.00    -0.212 NA
ATOM      3  C   UNL     1       3.345  -5.384  -1.253  0.00  0.00    +0.169 A 
ATOM      4  C   UNL     1       4.035  -5.631  -0.050  0.00  0.00    +0.082 A 
ATOM      5  C   UNL     1       5.333  -6.064  -0.399  0.00  0.00    +0.073 A 
ATOM      6  N   UNL     1       5.428  -6.080  -1.698  0.00  0.00    -0.169 NA
ATOM      7  N   UNL     1       4.216  -5.666  -2.266  0.00  0.00    -0.214 N 
ATOM      8  C   UNL     1       6.424  -6.443   0.569  0.00  0.00    +0.068 C 
ATOM      9  C   UNL     1       3.356  -5.417   1.165  0.00  0.00    +0.136 A 
ATOM     10  N   UNL     1       2.099  -4.990   1.119  0.00  0.00    -0.216 NA
ENDROOT
BRANCH   7  11
ATOM     11  C   UNL     1       3.946  -5.558  -3.636  0.00  0.00    +0.068 A 
ATOM     12  C   UNL     1       2.676  -5.848  -4.119  0.00  0.00    +0.030 A 
ATOM     13  C   UNL     1       2.411  -5.740  -5.470  0.00  0.00    +0.040 A 
ATOM     14  C   UNL     1       3.410  -5.345  -6.343  0.00  0.00    +0.124 A 
ATOM     15  C   UNL     1       4.677  -5.056  -5.864  0.00  0.00    +0.040 A 
ATOM     16  C   UNL     1       4.944  -5.156  -4.513  0.00  0.00    +0.030 A 
ATOM     17  F   UNL     1       3.149  -5.241  -7.665  0.00  0.00    -0.205 F 
ENDBRANCH   7  11
BRANCH   9  18
ATOM     18  N   UNL     1       3.982  -5.642   2.375  0.00  0.00    -0.318 N 
ATOM     19  C   UNL     1       4.022  -6.989   2.967  0.00  0.00    +0.088 C 
ATOM     20  C   UNL     1       3.550  -6.894   4.421  0.00  0.00    -0.059 C 
ATOM     21  N   UNL     1       4.356  -5.895   5.133  0.00  0.00    +0.385 N 
ATOM     22  C   UNL     1       4.127  -4.564   4.556  0.00  0.00    -0.059 C 
ATOM     23  C   UNL     1       4.633  -4.544   3.106  0.00  0.00    +0.088 C 
ATOM     24  H   UNL     1       5.333  -6.132   5.051  0.00  0.00    -0.081 HD
BRANCH  21  25
ATOM     25  C   UNL     1       3.977  -5.883   6.553  0.00  0.00    -0.035 C 
BRANCH  25  26
ATOM     26  C   UNL     1       4.885  -4.948   7.308  0.00  0.00    -0.027 A 
ATOM     27  C   UNL     1       4.732  -3.624   7.556  0.00  0.00    +0.009 A 
ATOM     28  C   UNL     1       5.705  -2.961   8.280  0.00  0.00    +0.008 A 
ATOM     29  C   UNL     1       6.784  -3.654   8.720  0.00  0.00    +0.045 A 
ATOM     30  S   UNL     1       6.439  -5.297   8.114  0.00  0.00    -0.103 S 
ENDBRANCH  25  26
ENDBRANCH  21  25
ENDBRANCH   9  18
BRANCH   1  31
ATOM     31  C   UNL     1       0.062  -4.296  -0.021  0.00  0.00    +0.111 C 
BRANCH  31  36
ATOM     32  C   UNL     1      -0.030   1.481   0.035  0.00  0.00    +0.044 C 
ATOM     33  C   UNL     1      -0.006  -0.025   0.020  0.00  0.00    -0.050 A 
ATOM     34  C   UNL     1      -0.001  -0.705  -1.184  0.00  0.00    +0.003 A 
ATOM     35  C   UNL     1       0.021  -2.087  -1.197  0.00  0.00    +0.004 A 
ATOM     36  C   UNL     1       0.039  -2.789  -0.007  0.00  0.00    -0.040 A 
ATOM     37  C   UNL     1       0.035  -2.110   1.197  0.00  0.00    +0.004 A 
ATOM     38  C   UNL     1       0.017  -0.728   1.210  0.00  0.00    +0.003 A 
ENDBRANCH  31  36
ENDBRANCH   1  31
TORSDOF 6
