REMARK  Name = ZINC45511779
REMARK  10 active torsions:
REMARK  status: ('A' for Active; 'I' for Inactive)
REMARK    1  A    between atoms: C_1  and  C_2
REMARK    2  A    between atoms: C_2  and  O_3
REMARK    3  A    between atoms: O_3  and  C_4
REMARK    4  A    between atoms: C_11  and  C_18
REMARK    5  A    between atoms: C_13  and  O_14
REMARK    6  A    between atoms: C_18  and  N_19
REMARK    7  A    between atoms: N_19  and  C_20
REMARK    8  A    between atoms: N_19  and  C_21
REMARK    9  A    between atoms: C_21  and  C_22
REMARK   10  A    between atoms: C_27  and  N_28
REMARK                            x       y       z     vdW  Elec       q    Type
REMARK                         _______ _______ _______ _____ _____    ______ ____
ROOT
ATOM      1  C   UNL     1      -0.218  -3.240  -0.190  0.00  0.00    +0.405 C 
ATOM      2  O   UNL     1      -0.102  -4.112   0.654  0.00  0.00    -0.226 OA
ATOM      3  N   UNL     1       0.206  -3.455  -1.428  0.00  0.00    -0.251 N 
ATOM      4  C   UNL     1       0.640  -4.690  -1.793  0.00  0.00    +0.040 A 
ATOM      5  C   UNL     1       1.405  -4.846  -2.964  0.00  0.00    +0.024 A 
ATOM      6  C   UNL     1       1.844  -6.075  -3.339  0.00  0.00    +0.013 A 
ATOM      7  C   UNL     1       1.535  -7.201  -2.554  0.00  0.00    +0.019 A 
ATOM      8  C   UNL     1       1.983  -8.485  -2.926  0.00  0.00    -0.047 A 
ATOM      9  C   UNL     1       1.652  -9.558  -2.122  0.00  0.00    +0.090 A 
ATOM     10  C   UNL     1       0.896  -9.357  -0.977  0.00  0.00    +0.285 A 
ATOM     11  O   UNL     1       0.473  -8.137  -0.627  0.00  0.00    -0.425 OA
ATOM     12  C   UNL     1       0.768  -7.054  -1.377  0.00  0.00    +0.141 A 
ATOM     13  C   UNL     1       0.330  -5.798  -1.000  0.00  0.00    +0.070 A 
ATOM     14  H   UNL     1       0.206  -2.731  -2.073  0.00  0.00    +0.158 HD
ENDROOT
BRANCH  10  15
ATOM     15  O   UNL     1       0.582 -10.411  -0.200  0.00  0.00    -0.480 OA
ATOM     16  H   UNL     1       0.053 -10.184   0.577  0.00  0.00    +0.295 HD
ENDBRANCH  10  15
BRANCH   1  17
ATOM     17  O   UNL     1      -0.779  -2.054   0.136  0.00  0.00    -0.450 OA
BRANCH  17  19
ATOM     18  C   UNL     1      -1.817  -0.497   1.665  0.00  0.00    +0.048 C 
ATOM     19  C   UNL     1      -1.214  -1.892   1.488  0.00  0.00    +0.230 C 
ENDBRANCH  17  19
ENDBRANCH   1  17
BRANCH   8  20
ATOM     20  C   UNL     1       2.803  -8.683  -4.175  0.00  0.00    -0.042 C 
BRANCH  20  21
ATOM     21  N   UNL     1       4.231  -8.674  -3.830  0.00  0.00    +0.383 N 
ATOM     22  C   UNL     1       4.535  -9.831  -2.977  0.00  0.00    -0.095 C 
ATOM     23  H   UNL     1       4.452  -7.824  -3.334  0.00  0.00    -0.081 HD
BRANCH  21  24
ATOM     24  C   UNL     1       5.032  -8.747  -5.058  0.00  0.00    -0.041 C 
BRANCH  24  25
ATOM     25  C   UNL     1       6.491  -8.586  -4.717  0.00  0.00    -0.043 A 
ATOM     26  C   UNL     1       7.314  -9.694  -4.661  0.00  0.00    +0.003 A 
ATOM     27  C   UNL     1       8.653  -9.548  -4.347  0.00  0.00    +0.000 A 
ATOM     28  C   UNL     1       9.172  -8.293  -4.088  0.00  0.00    +0.002 A 
ATOM     29  C   UNL     1       8.356  -7.181  -4.142  0.00  0.00    +0.023 A 
ATOM     30  C   UNL     1       7.011  -7.324  -4.462  0.00  0.00    +0.031 A 
BRANCH  30  31
ATOM     31  N   UNL     1       6.183  -6.201  -4.523  0.00  0.00    -0.330 N 
ATOM     32  C   UNL     1       5.574  -5.653  -3.303  0.00  0.00    +0.105 C 
ATOM     33  C   UNL     1       5.916  -4.163  -3.208  0.00  0.00    +0.019 C 
ATOM     34  C   UNL     1       5.482  -3.461  -4.497  0.00  0.00    +0.003 C 
ATOM     35  C   UNL     1       6.242  -4.055  -5.684  0.00  0.00    +0.019 C 
ATOM     36  C   UNL     1       5.909  -5.541  -5.807  0.00  0.00    +0.105 C 
ENDBRANCH  30  31
ENDBRANCH  24  25
ENDBRANCH  21  24
ENDBRANCH  20  21
ENDBRANCH   8  20
TORSDOF 8
