REMARK  Name = ZINC39688049
REMARK  7 active torsions:
REMARK  status: ('A' for Active; 'I' for Inactive)
REMARK    1  A    between atoms: C_1  and  C_2
REMARK    2  A    between atoms: C_2  and  N_3
REMARK    3  A    between atoms: C_4  and  C_10
REMARK    4  A    between atoms: C_6  and  C_8
REMARK    5  A    between atoms: C_14  and  C_23
REMARK    6  A    between atoms: N_25  and  C_26
REMARK    7  A    between atoms: C_32  and  C_34
REMARK                            x       y       z     vdW  Elec       q    Type
REMARK                         _______ _______ _______ _____ _____    ______ ____
ROOT
ATOM      1  C   UNL     1      -1.643  -0.704  -2.474  0.00  0.00    +0.266 C 
ATOM      2  O   UNL     1      -2.128  -1.077  -3.525  0.00  0.00    -0.268 OA
ATOM      3  N   UNL     1      -2.439  -0.222  -1.498  0.00  0.00    -0.295 N 
ATOM      4  C   UNL     1      -2.050   0.189  -0.129  0.00  0.00    +0.121 C 
ATOM      5  C   UNL     1      -2.893   1.453   0.153  0.00  0.00    +0.100 C 
ATOM      6  C   UNL     1      -4.108   1.332  -0.783  0.00  0.00    -0.004 C 
ATOM      7  C   UNL     1      -3.901   0.021  -1.555  0.00  0.00    +0.115 C 
ATOM      8  C   UNL     1      -4.146   2.508  -1.754  0.00  0.00    -0.010 C 
ATOM      9  C   UNL     1      -5.393   2.395  -2.635  0.00  0.00    -0.082 C 
ATOM     10  N   UNL     1      -6.593   2.392  -1.791  0.00  0.00    +0.379 N 
ATOM     11  C   UNL     1      -6.594   1.207  -0.925  0.00  0.00    -0.082 C 
ATOM     12  C   UNL     1      -5.397   1.270   0.029  0.00  0.00    -0.010 C 
ATOM     13  H   UNL     1      -6.604   3.224  -1.220  0.00  0.00    -0.086 HD
ATOM     14  H   UNL     1      -7.415   2.379  -2.376  0.00  0.00    -0.086 HD
ENDROOT
BRANCH   1  16
ATOM     15  N   UNL     1       0.513  -1.825  -1.740  0.00  0.00    -0.258 N 
ATOM     16  C   UNL     1      -0.189  -0.777  -2.267  0.00  0.00    +0.138 A 
ATOM     17  C   UNL     1       0.744   0.202  -2.567  0.00  0.00    +0.071 A 
ATOM     18  C   UNL     1       1.978  -0.337  -2.191  0.00  0.00    +0.075 A 
ATOM     19  N   UNL     1       1.763  -1.533  -1.707  0.00  0.00    -0.175 NA
ATOM     20  C   UNL     1       3.317   0.343  -2.316  0.00  0.00    +0.069 C 
ATOM     21 BR   UNL     1       0.418   1.903  -3.325  0.00  0.00    -0.046 Br
BRANCH  15  23
ATOM     22  C   UNL     1      -0.550  -2.927   0.168  0.00  0.00    +0.029 C 
ATOM     23  C   UNL     1      -0.072  -3.086  -1.277  0.00  0.00    +0.141 C 
ENDBRANCH  15  23
ENDBRANCH   1  16
BRANCH   5  24
ATOM     24  C   UNL     1      -2.102   2.695  -0.168  0.00  0.00    +0.218 C 
ATOM     25  O   UNL     1      -1.322   2.693  -1.097  0.00  0.00    -0.275 OA
ATOM     26  N   UNL     1      -2.261   3.807   0.576  0.00  0.00    -0.312 N 
ATOM     27  H   UNL     1      -2.829   3.787   1.362  0.00  0.00    +0.149 HD
BRANCH  26  28
ATOM     28  C   UNL     1      -1.575   5.045   0.198  0.00  0.00    +0.076 C 
ATOM     29  C   UNL     1      -0.120   4.986   0.669  0.00  0.00    +0.041 C 
ATOM     30  C   UNL     1       0.603   6.268   0.242  0.00  0.00    +0.109 C 
ATOM     31  N   UNL     1      -0.149   7.425   0.747  0.00  0.00    -0.302 N 
ATOM     32  C   UNL     1      -1.579   7.532   0.428  0.00  0.00    +0.109 C 
ATOM     33  C   UNL     1      -2.278   6.237   0.853  0.00  0.00    +0.041 C 
ATOM     34  C   UNL     1       0.462   8.370   1.489  0.00  0.00    +0.212 C 
ATOM     35  O   UNL     1      -0.188   9.264   1.988  0.00  0.00    -0.276 OA
ATOM     36  C   UNL     1       1.953   8.316   1.698  0.00  0.00    +0.109 C 
ENDBRANCH  26  28
ENDBRANCH   5  24
TORSDOF 4
