REMARK  Name = ZINC42007641
REMARK  7 active torsions:
REMARK  status: ('A' for Active; 'I' for Inactive)
REMARK    1  A    between atoms: C_1  and  C_2
REMARK    2  A    between atoms: C_2  and  C_3
REMARK    3  A    between atoms: C_6  and  C_9
REMARK    4  A    between atoms: C_6  and  S_12
REMARK    5  A    between atoms: S_12  and  C_13
REMARK    6  A    between atoms: C_16  and  C_20
REMARK    7  A    between atoms: C_18  and  N_19
REMARK                            x       y       z     vdW  Elec       q    Type
REMARK                         _______ _______ _______ _____ _____    ______ ____
ROOT
ATOM      1  C   UNL     1      -1.457  -0.551   0.120  0.00  0.00    -0.011 C 
ATOM      2  C   UNL     1      -2.188  -0.068  -1.134  0.00  0.00    +0.005 C 
ATOM      3  C   UNL     1      -3.613  -0.625  -1.141  0.00  0.00    +0.030 C 
ATOM      4  C   UNL     1      -3.563  -2.154  -1.137  0.00  0.00    +0.122 C 
ATOM      5  C   UNL     1      -2.832  -2.637   0.117  0.00  0.00    +0.030 C 
ATOM      6  C   UNL     1      -1.407  -2.080   0.124  0.00  0.00    +0.005 C 
ENDROOT
BRANCH   4   7
ATOM      7  C   UNL     1      -2.830  -2.635  -2.362  0.00  0.00    +0.372 C 
ATOM      8  O   UNL     1      -1.672  -2.303  -2.550  0.00  0.00    -0.245 OA
ATOM      9  O   UNL     1      -3.395  -3.357  -3.167  0.00  0.00    -0.245 OA
ENDBRANCH   4   7
BRANCH   1  11
ATOM     10  C   UNL     1      -0.081   1.530   0.249  0.00  0.00    +0.004 C 
ATOM     11  C   UNL     1      -0.032   0.006   0.127  0.00  0.00    -0.000 C 
ENDBRANCH   1  11
BRANCH   4  12
ATOM     12  S   UNL     1      -5.252  -2.814  -1.145  0.00  0.00    -0.105 S 
BRANCH  12  13
ATOM     13  C   UNL     1      -5.962  -2.152  -2.615  0.00  0.00    +0.030 A 
ATOM     14  C   UNL     1      -5.175  -1.441  -3.509  0.00  0.00    +0.017 A 
ATOM     15  C   UNL     1      -5.734  -0.923  -4.662  0.00  0.00    +0.004 A 
ATOM     16  C   UNL     1      -7.078  -1.110  -4.928  0.00  0.00    -0.049 A 
ATOM     17  C   UNL     1      -7.870  -1.816  -4.043  0.00  0.00    +0.027 A 
ATOM     18  C   UNL     1      -7.317  -2.345  -2.887  0.00  0.00    +0.038 A 
ATOM     19  C   UNL     1      -7.680  -0.541  -6.187  0.00  0.00    +0.044 C 
BRANCH  18  20
ATOM     20  N   UNL     1      -8.117  -3.066  -1.992  0.00  0.00    -0.357 N 
ATOM     21  H   UNL     1      -7.729  -3.432  -1.181  0.00  0.00    +0.142 HD
ATOM     22  H   UNL     1      -9.058  -3.200  -2.182  0.00  0.00    +0.142 HD
ENDBRANCH  18  20
ENDBRANCH  12  13
ENDBRANCH   4  12
TORSDOF 5
