REMARK  Name = ZINC65734681
REMARK  14 active torsions:
REMARK  status: ('A' for Active; 'I' for Inactive)
REMARK    1  A    between atoms: C_4  and  C_7
REMARK    2  A    between atoms: C_7  and  O_8
REMARK    3  A    between atoms: O_8  and  C_9
REMARK    4  A    between atoms: C_11  and  O_40
REMARK    5  A    between atoms: C_13  and  O_39
REMARK    6  A    between atoms: C_15  and  O_22
REMARK    7  A    between atoms: C_17  and  C_20
REMARK    8  A    between atoms: C_20  and  O_21
REMARK    9  A    between atoms: O_22  and  C_23
REMARK   10  A    between atoms: C_25  and  O_38
REMARK   11  A    between atoms: C_27  and  O_37
REMARK   12  A    between atoms: C_29  and  O_36
REMARK   13  A    between atoms: C_31  and  C_34
REMARK   14  A    between atoms: C_34  and  O_35
REMARK                            x       y       z     vdW  Elec       q    Type
REMARK                         _______ _______ _______ _____ _____    ______ ____
ROOT
ATOM      1  C   UNL     1       5.385  -1.642   1.400  0.00  0.00    +0.282 C 
ATOM      2  C   UNL     1       5.807  -1.733   2.869  0.00  0.00    +0.201 C 
ATOM      3  C   UNL     1       4.761  -2.542   3.643  0.00  0.00    +0.179 C 
ATOM      4  C   UNL     1       4.615  -3.921   2.994  0.00  0.00    +0.183 C 
ATOM      5  C   UNL     1       4.239  -3.746   1.520  0.00  0.00    +0.178 C 
ATOM      6  O   UNL     1       5.237  -2.959   0.866  0.00  0.00    -0.341 OA
ENDROOT
BRANCH   3   7
ATOM      7  O   UNL     1       3.506  -1.859   3.607  0.00  0.00    -0.386 OA
ATOM      8  H   UNL     1       3.529  -0.974   3.997  0.00  0.00    +0.210 HD
ENDBRANCH   3   7
BRANCH   2   9
ATOM      9  O   UNL     1       5.901  -0.419   3.422  0.00  0.00    -0.384 OA
ATOM     10  H   UNL     1       6.543   0.150   2.976  0.00  0.00    +0.210 HD
ENDBRANCH   2   9
BRANCH   1  11
ATOM     11  O   UNL     1       4.141  -0.946   1.304  0.00  0.00    -0.344 OA
BRANCH  11  12
ATOM     12  C   UNL     1       3.711  -0.707  -0.038  0.00  0.00    +0.198 C 
BRANCH  12  16
ATOM     13  C   UNL     1      -0.017   1.378   0.010  0.00  0.00    +0.000 A 
ATOM     14  C   UNL     1       1.171   2.086   0.002  0.00  0.00    +0.000 A 
ATOM     15  C   UNL     1       2.377   1.411  -0.013  0.00  0.00    +0.006 A 
ATOM     16  C   UNL     1       2.396   0.029  -0.020  0.00  0.00    -0.022 A 
ATOM     17  C   UNL     1       1.208  -0.679  -0.012  0.00  0.00    +0.006 A 
ATOM     18  C   UNL     1       0.002  -0.004   0.002  0.00  0.00    +0.000 A 
ENDBRANCH  12  16
ENDBRANCH  11  12
ENDBRANCH   1  11
BRANCH   5  19
ATOM     19  C   UNL     1       4.150  -5.118   0.850  0.00  0.00    +0.190 C 
BRANCH  19  20
ATOM     20  O   UNL     1       3.687  -4.962  -0.493  0.00  0.00    -0.392 OA
ATOM     21  H   UNL     1       3.606  -5.794  -0.980  0.00  0.00    +0.210 HD
ENDBRANCH  19  20
ENDBRANCH   5  19
BRANCH   4  22
ATOM     22  O   UNL     1       5.853  -4.629   3.092  0.00  0.00    -0.340 OA
BRANCH  22  23
ATOM     23  C   UNL     1       5.980  -5.416   4.277  0.00  0.00    +0.282 C 
ATOM     24  C   UNL     1       7.281  -6.221   4.218  0.00  0.00    +0.201 C 
ATOM     25  C   UNL     1       8.469  -5.255   4.171  0.00  0.00    +0.179 C 
ATOM     26  C   UNL     1       8.411  -4.333   5.393  0.00  0.00    +0.177 C 
ATOM     27  C   UNL     1       7.067  -3.601   5.407  0.00  0.00    +0.178 C 
ATOM     28  O   UNL     1       6.005  -4.557   5.419  0.00  0.00    -0.341 OA
BRANCH  26  29
ATOM     29  O   UNL     1       9.475  -3.381   5.323  0.00  0.00    -0.386 OA
ATOM     30  H   UNL     1      10.357  -3.777   5.307  0.00  0.00    +0.210 HD
ENDBRANCH  26  29
BRANCH  25  31
ATOM     31  O   UNL     1       8.403  -4.474   2.977  0.00  0.00    -0.386 OA
ATOM     32  H   UNL     1       8.428  -4.996   2.163  0.00  0.00    +0.210 HD
ENDBRANCH  25  31
BRANCH  24  33
ATOM     33  O   UNL     1       7.383  -7.050   5.378  0.00  0.00    -0.384 OA
ATOM     34  H   UNL     1       6.659  -7.684   5.473  0.00  0.00    +0.210 HD
ENDBRANCH  24  33
BRANCH  27  35
ATOM     35  C   UNL     1       6.977  -2.723   6.657  0.00  0.00    +0.190 C 
BRANCH  35  36
ATOM     36  O   UNL     1       5.775  -1.952   6.612  0.00  0.00    -0.392 OA
ATOM     37  H   UNL     1       5.652  -1.370   7.375  0.00  0.00    +0.210 HD
ENDBRANCH  35  36
ENDBRANCH  27  35
ENDBRANCH  22  23
ENDBRANCH   4  22
TORSDOF 14
