REMARK  Name = ZINC02202955
REMARK  4 active torsions:
REMARK  status: ('A' for Active; 'I' for Inactive)
REMARK    1  A    between atoms: C_9  and  C_23
REMARK    2  A    between atoms: C_10  and  N_22
REMARK    3  A    between atoms: N_11  and  C_14
REMARK    4  A    between atoms: C_14  and  C_15
REMARK                            x       y       z     vdW  Elec       q    Type
REMARK                         _______ _______ _______ _____ _____    ______ ____
ROOT
ATOM      1  C   UNL     1       5.234  -1.641   4.708  0.00  0.00    +0.002 A 
ATOM      2  C   UNL     1       5.641  -1.186   3.455  0.00  0.00    +0.002 A 
ATOM      3  C   UNL     1       4.731  -0.852   2.502  0.00  0.00    +0.030 A 
ATOM      4  C   UNL     1       3.355  -0.966   2.776  0.00  0.00    +0.092 A 
ATOM      5  C   UNL     1       2.941  -1.429   4.050  0.00  0.00    +0.090 A 
ATOM      6  C   UNL     1       3.914  -1.764   5.011  0.00  0.00    +0.030 A 
ATOM      7  N   UNL     1       1.639  -1.546   4.337  0.00  0.00    -0.241 NA
ATOM      8  C   UNL     1       0.741  -1.228   3.426  0.00  0.00    +0.128 A 
ATOM      9  C   UNL     1      -0.729  -1.228   3.384  0.00  0.00    +0.118 A 
ATOM     10  C   UNL     1      -1.088  -0.777   2.120  0.00  0.00    +0.118 A 
ATOM     11  N   UNL     1       0.022  -0.500   1.381  0.00  0.00    -0.307 N 
ATOM     12  C   UNL     1       1.167  -0.755   2.106  0.00  0.00    +0.163 A 
ATOM     13  N   UNL     1       2.452  -0.639   1.843  0.00  0.00    -0.226 NA
ENDROOT
BRANCH  10  14
ATOM     14  N   UNL     1      -2.379  -0.632   1.678  0.00  0.00    -0.343 N 
ATOM     15  H   UNL     1      -2.551  -0.310   0.779  0.00  0.00    +0.144 HD
ATOM     16  H   UNL     1      -3.120  -0.851   2.264  0.00  0.00    +0.144 HD
ENDBRANCH  10  14
BRANCH   9  17
ATOM     17  C   UNL     1      -1.617  -1.618   4.438  0.00  0.00    +0.105 C 
ATOM     18  N   UNL     1      -2.320  -1.927   5.275  0.00  0.00    -0.191 NA
ENDBRANCH   9  17
BRANCH  11  19
ATOM     19  C   UNL     1       0.002  -0.004   0.002  0.00  0.00    +0.160 C 
BRANCH  19  20
ATOM     20  C   UNL     1      -0.018   1.503   0.010  0.00  0.00    -0.028 A 
ATOM     21  C   UNL     1      -1.225   2.177   0.020  0.00  0.00    +0.007 A 
ATOM     22  C   UNL     1      -1.244   3.559   0.033  0.00  0.00    +0.020 A 
ATOM     23  C   UNL     1      -0.056   4.268   0.025  0.00  0.00    +0.041 A 
ATOM     24  C   UNL     1       1.151   3.592   0.010  0.00  0.00    +0.020 A 
ATOM     25  C   UNL     1       1.169   2.210   0.003  0.00  0.00    +0.007 A 
ATOM     26 CL   UNL     1      -0.079   6.003   0.036  0.00  0.00    -0.084 Cl
ENDBRANCH  19  20
ENDBRANCH  11  19
TORSDOF 4
