REMARK  Name = ZINC10536885
REMARK  3 active torsions:
REMARK  status: ('A' for Active; 'I' for Inactive)
REMARK    1  A    between atoms: C_3  and  C_10
REMARK    2  A    between atoms: C_6  and  C_7
REMARK    3  A    between atoms: C_10  and  N_11
REMARK                            x       y       z     vdW  Elec       q    Type
REMARK                         _______ _______ _______ _____ _____    ______ ____
ROOT
ATOM      1  N   UNL     1      -2.901  -1.058   3.294  0.00  0.00    -0.220 N 
ATOM      2  C   UNL     1      -1.905  -0.646   2.481  0.00  0.00    +0.247 C 
ATOM      3  O   UNL     1      -0.713  -0.718   2.685  0.00  0.00    -0.273 OA
ATOM      4  C   UNL     1      -2.593  -0.075   1.263  0.00  0.00    +0.113 C 
ATOM      5  C   UNL     1      -2.241   1.402   1.097  0.00  0.00    +0.035 C 
ATOM      6  C   UNL     1      -0.729   1.579   1.267  0.00  0.00    +0.003 C 
ATOM      7  C   UNL     1      -0.013   1.086   0.008  0.00  0.00    +0.000 C 
ATOM      8  C   UNL     1      -0.753   1.593  -1.232  0.00  0.00    +0.000 C 
ATOM      9  C   UNL     1      -1.371   0.407  -1.978  0.00  0.00    +0.000 C 
ATOM     10  C   UNL     1      -2.618  -0.070  -1.233  0.00  0.00    +0.003 C 
ATOM     11  C   UNL     1      -2.195  -0.854   0.011  0.00  0.00    +0.035 C 
ATOM     12  N   UNL     1      -4.022  -0.240   1.545  0.00  0.00    -0.285 N 
ATOM     13  C   UNL     1      -4.105  -0.825   2.756  0.00  0.00    +0.310 C 
ATOM     14  O   UNL     1      -5.154  -1.109   3.300  0.00  0.00    -0.252 OA
ATOM     15  H   UNL     1      -4.762   0.020   0.974  0.00  0.00    +0.151 HD
ENDROOT
BRANCH   1  16
ATOM     16  C   UNL     1      -2.691  -1.683   4.602  0.00  0.00    +0.156 C 
BRANCH  16  19
ATOM     17  C   UNL     1      -3.605  -5.343   4.558  0.00  0.00    +0.019 A 
ATOM     18  C   UNL     1      -3.687  -3.975   4.713  0.00  0.00    +0.009 A 
ATOM     19  C   UNL     1      -2.592  -3.177   4.435  0.00  0.00    +0.006 A 
ATOM     20  C   UNL     1      -1.402  -3.747   4.009  0.00  0.00    +0.129 A 
ATOM     21  C   UNL     1      -1.306  -5.116   3.854  0.00  0.00    +0.057 A 
ATOM     22  C   UNL     1      -2.411  -5.925   4.129  0.00  0.00    +0.055 A 
ATOM     23  F   UNL     1      -0.335  -2.962   3.744  0.00  0.00    -0.205 F 
BRANCH  22  24
ATOM     24  C   UNL     1      -2.319  -7.345   3.972  0.00  0.00    +0.099 C 
ATOM     25  N   UNL     1      -2.246  -8.472   3.847  0.00  0.00    -0.191 NA
ENDBRANCH  22  24
ENDBRANCH  16  19
ENDBRANCH   1  16
TORSDOF 3
