REMARK  Name = ZINC49421045
REMARK  3 active torsions:
REMARK  status: ('A' for Active; 'I' for Inactive)
REMARK    1  A    between atoms: C_1  and  N_2
REMARK    2  A    between atoms: C_3  and  C_5
REMARK    3  A    between atoms: C_19  and  C_22
REMARK                            x       y       z     vdW  Elec       q    Type
REMARK                         _______ _______ _______ _____ _____    ______ ____
ROOT
ATOM      1  C   UNL     1      -0.406  -3.785  -1.239  0.00  0.00    +0.078 C 
ATOM      2  C   UNL     1      -1.771  -4.469  -1.348  0.00  0.00    +0.032 C 
ATOM      3  C   UNL     1      -2.542  -4.271  -0.040  0.00  0.00    +0.108 C 
ATOM      4  N   UNL     1      -1.714  -4.753   1.075  0.00  0.00    -0.301 N 
ATOM      5  C   UNL     1      -0.350  -4.227   1.219  0.00  0.00    +0.108 C 
ATOM      6  C   UNL     1       0.397  -4.425  -0.103  0.00  0.00    +0.032 C 
ATOM      7  C   UNL     1      -2.207  -5.676   1.965  0.00  0.00    +0.199 A 
ATOM      8  N   UNL     1      -3.514  -6.053   1.860  0.00  0.00    -0.294 N 
ATOM      9  H   UNL     1      -4.078  -5.673   1.169  0.00  0.00    +0.172 HD
ATOM     10  C   UNL     1      -4.017  -6.962   2.729  0.00  0.00    +0.267 A 
ATOM     11  O   UNL     1      -5.182  -7.318   2.659  0.00  0.00    -0.267 OA
ATOM     12  C   UNL     1      -3.167  -7.480   3.705  0.00  0.00    +0.103 A 
ATOM     13  C   UNL     1      -1.827  -7.074   3.789  0.00  0.00    +0.095 A 
ATOM     14  N   UNL     1      -1.402  -6.160   2.874  0.00  0.00    -0.215 NA
ATOM     15  C   UNL     1      -1.105  -7.725   4.869  0.00  0.00    +0.018 A 
ATOM     16  C   UNL     1      -1.777  -8.614   5.644  0.00  0.00    +0.056 A 
ATOM     17  S   UNL     1      -3.336  -8.649   5.024  0.00  0.00    -0.089 S 
ENDROOT
BRANCH  15  18
ATOM     18  C   UNL     1       0.326  -7.426   5.119  0.00  0.00    +0.020 A 
ATOM     19  C   UNL     1       1.289  -8.418   4.943  0.00  0.00    +0.011 A 
ATOM     20  C   UNL     1       2.619  -8.134   5.176  0.00  0.00    +0.001 A 
ATOM     21  C   UNL     1       2.999  -6.868   5.584  0.00  0.00    +0.003 A 
ATOM     22  C   UNL     1       2.049  -5.878   5.761  0.00  0.00    +0.039 A 
ATOM     23  C   UNL     1       0.714  -6.149   5.525  0.00  0.00    +0.131 A 
ATOM     24  F   UNL     1      -0.213  -5.180   5.692  0.00  0.00    -0.205 F 
ENDBRANCH  15  18
BRANCH   1  27
ATOM     25  C   UNL     1       0.551  -3.618  -4.942  0.00  0.00    +0.128 C 
ATOM     26  N   UNL     1      -0.177  -3.459  -3.680  0.00  0.00    -0.318 N 
ATOM     27  C   UNL     1       0.343  -3.948  -2.537  0.00  0.00    +0.216 C 
ATOM     28  O   UNL     1       1.413  -4.519  -2.552  0.00  0.00    -0.276 OA
ATOM     29  H   UNL     1      -1.032  -3.003  -3.668  0.00  0.00    +0.148 HD
ENDBRANCH   1  27
TORSDOF 2
