REMARK  Name = ZINC05557198
REMARK  5 active torsions:
REMARK  status: ('A' for Active; 'I' for Inactive)
REMARK    1  A    between atoms: C_1  and  C_2
REMARK    2  A    between atoms: C_2  and  C_3
REMARK    3  A    between atoms: N_9  and  N_10
REMARK    4  A    between atoms: C_11  and  C_12
REMARK    5  A    between atoms: C_17  and  O_18
REMARK                            x       y       z     vdW  Elec       q    Type
REMARK                         _______ _______ _______ _____ _____    ______ ____
ROOT
ATOM      1  N   UNL     1      -1.146   1.710   0.017  0.00  0.00    -0.171 NA
ATOM      2  C   UNL     1      -0.013   1.076   0.008  0.00  0.00    +0.145 C 
ENDROOT
BRANCH   1   9
ATOM      3  C   UNL     1      -3.049   0.592  -1.095  0.00  0.00    +0.153 A 
ATOM      4  N   UNL     1      -4.108  -0.048  -0.714  0.00  0.00    -0.157 NA
ATOM      5  N   UNL     1      -4.125  -0.069   0.688  0.00  0.00    -0.253 N 
ATOM      6  H   UNL     1      -4.803  -0.478   1.248  0.00  0.00    +0.191 HD
ATOM      7  C   UNL     1      -3.023   0.583   1.113  0.00  0.00    +0.196 A 
ATOM      8  S   UNL     1      -2.564   0.844   2.741  0.00  0.00    -0.010 S 
ATOM      9  N   UNL     1      -2.349   0.993   0.019  0.00  0.00    -0.192 N 
BRANCH   3  11
ATOM     10  C   UNL     1      -1.773  -0.301  -3.024  0.00  0.00    +0.012 C 
ATOM     11  C   UNL     1      -2.647   0.851  -2.524  0.00  0.00    +0.075 C 
ENDBRANCH   3  11
ENDBRANCH   1   9
BRANCH   2  12
ATOM     12  C   UNL     1       1.253   1.830  -0.000  0.00  0.00    +0.037 A 
ATOM     13  C   UNL     1       2.475   1.152  -0.015  0.00  0.00    +0.028 A 
ATOM     14  C   UNL     1       3.656   1.864  -0.023  0.00  0.00    +0.019 A 
ATOM     15  C   UNL     1       3.636   3.249  -0.015  0.00  0.00    +0.019 A 
ATOM     16  C   UNL     1       2.434   3.931   0.000  0.00  0.00    +0.047 A 
ATOM     17  C   UNL     1       1.239   3.231   0.002  0.00  0.00    +0.126 A 
ATOM     18 BR   UNL     1       5.309   0.946  -0.043  0.00  0.00    -0.050 Br
BRANCH  17  19
ATOM     19  O   UNL     1       0.057   3.901   0.011  0.00  0.00    -0.506 OA
ATOM     20  H   UNL     1      -0.279   4.094   0.896  0.00  0.00    +0.292 HD
ENDBRANCH  17  19
ENDBRANCH   2  12
TORSDOF 4
