REMARK  Name = ZINC09421482
REMARK  1 active torsions:
REMARK  status: ('A' for Active; 'I' for Inactive)
REMARK    1  A    between atoms: C_19  and  C_22
REMARK                            x       y       z     vdW  Elec       q    Type
REMARK                         _______ _______ _______ _____ _____    ______ ____
ROOT
ATOM      1  C   UNL     1      -5.096  -3.007   0.038  0.00  0.00    +0.002 A 
ATOM      2  C   UNL     1      -4.242  -4.101   0.024  0.00  0.00    +0.002 A 
ATOM      3  C   UNL     1      -2.877  -3.922   0.010  0.00  0.00    +0.030 A 
ATOM      4  C   UNL     1      -2.347  -2.629   0.012  0.00  0.00    +0.091 A 
ATOM      5  C   UNL     1      -3.216  -1.525   0.027  0.00  0.00    +0.068 A 
ATOM      6  C   UNL     1      -4.589  -1.725   0.040  0.00  0.00    +0.028 A 
ATOM      7  N   UNL     1      -2.410  -0.401   0.025  0.00  0.00    -0.322 N 
ATOM      8  H   UNL     1      -2.718   0.550   0.034  0.00  0.00    +0.169 HD
ATOM      9  C   UNL     1      -1.115  -0.832   0.009  0.00  0.00    +0.230 A 
ATOM     10  N   UNL     1      -1.081  -2.139  -0.003  0.00  0.00    -0.211 NA
ATOM     11  N   UNL     1       0.002  -0.004   0.002  0.00  0.00    -0.203 N 
ATOM     12  C   UNL     1       1.275  -0.410  -0.014  0.00  0.00    +0.059 A 
ATOM     13  C   UNL     1       2.068   0.734  -0.013  0.00  0.00    +0.059 A 
ATOM     14  C   UNL     1       1.214   1.845   0.000  0.00  0.00    +0.146 A 
ATOM     15  N   UNL     1      -0.017   1.399   0.010  0.00  0.00    -0.171 NA
ATOM     16  C   UNL     1       3.538   0.651  -0.024  0.00  0.00    +0.167 C 
ATOM     17  O   UNL     1       4.242   1.617  -0.227  0.00  0.00    -0.292 OA
ATOM     18  C   UNL     1       4.108  -0.735   0.238  0.00  0.00    +0.088 C 
ATOM     19  C   UNL     1       3.283  -1.756  -0.551  0.00  0.00    +0.032 C 
ATOM     20  C   UNL     1       1.843  -1.804  -0.033  0.00  0.00    +0.065 C 
ENDROOT
BRANCH  19  21
ATOM     21  C   UNL     1       3.909  -3.119  -0.406  0.00  0.00    -0.043 A 
ATOM     22  C   UNL     1       4.025  -3.696   0.846  0.00  0.00    +0.007 A 
ATOM     23  C   UNL     1       4.593  -4.948   0.980  0.00  0.00    +0.038 A 
ATOM     24  C   UNL     1       5.058  -5.621  -0.138  0.00  0.00    +0.123 A 
ATOM     25  C   UNL     1       4.947  -5.040  -1.390  0.00  0.00    +0.038 A 
ATOM     26  C   UNL     1       4.372  -3.790  -1.522  0.00  0.00    +0.007 A 
ATOM     27  F   UNL     1       5.620  -6.842  -0.007  0.00  0.00    -0.205 F 
ENDBRANCH  19  21
TORSDOF 1
