REMARK  Name = ZINC02520351
REMARK  7 active torsions:
REMARK  status: ('A' for Active; 'I' for Inactive)
REMARK    1  A    between atoms: C_1  and  C_2
REMARK    2  A    between atoms: C_5  and  C_8
REMARK    3  A    between atoms: C_9  and  C_19
REMARK    4  A    between atoms: N_11  and  C_13
REMARK    5  A    between atoms: N_20  and  N_21
REMARK    6  A    between atoms: C_22  and  C_24
REMARK    7  A    between atoms: N_26  and  C_27
REMARK                            x       y       z     vdW  Elec       q    Type
REMARK                         _______ _______ _______ _____ _____    ______ ____
ROOT
ATOM      1  C   UNL     1       1.091   6.473   0.090  0.00  0.00    +0.102 A 
ATOM      2  C   UNL     1       2.236   5.614  -0.225  0.00  0.00    +0.040 A 
ATOM      3  C   UNL     1       3.344   6.434  -0.248  0.00  0.00    +0.124 A 
ATOM      4  N   UNL     1       2.934   7.691   0.017  0.00  0.00    -0.239 N 
ATOM      5  N   UNL     1       1.552   7.697   0.225  0.00  0.00    -0.166 NA
ENDROOT
BRANCH   1  10
ATOM      6  C   UNL     1      -4.393   4.803   0.628  0.00  0.00    +0.044 C 
ATOM      7  C   UNL     1      -2.958   5.240   0.487  0.00  0.00    -0.050 A 
ATOM      8  C   UNL     1      -1.950   4.492   1.067  0.00  0.00    +0.004 A 
ATOM      9  C   UNL     1      -0.633   4.887   0.942  0.00  0.00    +0.010 A 
ATOM     10  C   UNL     1      -0.321   6.043   0.228  0.00  0.00    +0.003 A 
ATOM     11  C   UNL     1      -1.342   6.796  -0.349  0.00  0.00    +0.010 A 
ATOM     12  C   UNL     1      -2.654   6.388  -0.222  0.00  0.00    +0.004 A 
ENDBRANCH   1  10
BRANCH   4  13
ATOM     13  C   UNL     1       3.766   8.816   0.081  0.00  0.00    +0.065 A 
ATOM     14  C   UNL     1       5.131   8.685  -0.139  0.00  0.00    +0.028 A 
ATOM     15  C   UNL     1       5.948   9.797  -0.082  0.00  0.00    +0.002 A 
ATOM     16  C   UNL     1       5.409  11.038   0.206  0.00  0.00    +0.000 A 
ATOM     17  C   UNL     1       4.051  11.171   0.431  0.00  0.00    +0.002 A 
ATOM     18  C   UNL     1       3.228  10.063   0.369  0.00  0.00    +0.028 A 
ENDBRANCH   4  13
BRANCH   2  19
ATOM     19  C   UNL     1       2.209   4.161  -0.463  0.00  0.00    +0.142 C 
ATOM     20  N   UNL     1       1.074   3.530  -0.501  0.00  0.00    -0.187 NA
BRANCH  20  21
ATOM     21  N   UNL     1       1.048   2.147  -0.727  0.00  0.00    -0.199 N 
ATOM     22  C   UNL     1      -0.129   1.493  -0.766  0.00  0.00    +0.318 C 
ATOM     23  O   UNL     1      -1.168   2.102  -0.610  0.00  0.00    -0.263 OA
ATOM     24  H   UNL     1       1.878   1.661  -0.856  0.00  0.00    +0.178 HD
BRANCH  22  25
ATOM     25  C   UNL     1      -0.156   0.022  -1.007  0.00  0.00    +0.305 C 
ATOM     26  O   UNL     1       0.882  -0.586  -1.168  0.00  0.00    -0.265 OA
ATOM     27  N   UNL     1      -1.334  -0.633  -1.046  0.00  0.00    -0.278 N 
ATOM     28  H   UNL     1      -2.158  -0.161  -0.851  0.00  0.00    +0.155 HD
BRANCH  27  29
ATOM     29  C   UNL     1      -1.367  -1.993  -1.369  0.00  0.00    +0.034 A 
ATOM     30  C   UNL     1      -2.430  -2.509  -2.099  0.00  0.00    +0.025 A 
ATOM     31  C   UNL     1      -2.458  -3.852  -2.420  0.00  0.00    +0.022 A 
ATOM     32  C   UNL     1      -1.433  -4.685  -2.006  0.00  0.00    +0.041 A 
ATOM     33  C   UNL     1      -0.376  -4.174  -1.274  0.00  0.00    +0.022 A 
ATOM     34  C   UNL     1      -0.340  -2.831  -0.954  0.00  0.00    +0.025 A 
ATOM     35 CL   UNL     1      -1.474  -6.373  -2.407  0.00  0.00    -0.084 Cl
ENDBRANCH  27  29
ENDBRANCH  22  25
ENDBRANCH  20  21
ENDBRANCH   2  19
TORSDOF 6
