REMARK  Name = ZINC39616122
REMARK  9 active torsions:
REMARK  status: ('A' for Active; 'I' for Inactive)
REMARK    1  A    between atoms: C_7  and  C_11
REMARK    2  A    between atoms: C_11  and  C_12
REMARK    3  A    between atoms: C_12  and  C_14
REMARK    4  A    between atoms: C_12  and  N_29
REMARK    5  A    between atoms: C_14  and  O_16
REMARK    6  A    between atoms: O_16  and  C_17
REMARK    7  A    between atoms: C_17  and  C_18
REMARK    8  A    between atoms: N_20  and  C_21
REMARK    9  A    between atoms: C_30  and  C_32
REMARK                            x       y       z     vdW  Elec       q    Type
REMARK                         _______ _______ _______ _____ _____    ______ ____
ROOT
ATOM      1  C   UNL     1       0.217  -3.570  -1.490  0.00  0.00    +0.186 C 
ENDROOT
BRANCH   1   2
ATOM      2  N   UNL     1       1.377  -3.998  -2.276  0.00  0.00    -0.298 N 
ATOM      3  C   UNL     1       2.172  -3.078  -2.858  0.00  0.00    +0.245 C 
ATOM      4  O   UNL     1       1.927  -1.895  -2.732  0.00  0.00    -0.270 OA
ATOM      5  H   UNL     1       1.573  -4.942  -2.377  0.00  0.00    +0.150 HD
BRANCH   3   6
ATOM      6  C   UNL     1       3.342  -3.509  -3.651  0.00  0.00    +0.037 A 
ATOM      7  C   UNL     1       3.624  -4.869  -3.803  0.00  0.00    +0.016 A 
ATOM      8  C   UNL     1       4.717  -5.265  -4.543  0.00  0.00    +0.039 A 
ATOM      9  C   UNL     1       5.537  -4.317  -5.136  0.00  0.00    +0.123 A 
ATOM     10  C   UNL     1       5.262  -2.966  -4.988  0.00  0.00    +0.039 A 
ATOM     11  C   UNL     1       4.168  -2.559  -4.255  0.00  0.00    +0.016 A 
ATOM     12  F   UNL     1       6.607  -4.712  -5.859  0.00  0.00    -0.205 F 
ENDBRANCH   3   6
ENDBRANCH   1   2
BRANCH   1  13
ATOM     13  C   UNL     1      -0.810  -4.673  -1.471  0.00  0.00    +0.328 C 
ATOM     14  O   UNL     1      -0.595  -5.709  -2.054  0.00  0.00    -0.249 OA
BRANCH  13  15
ATOM     15  O   UNL     1      -1.964  -4.503  -0.807  0.00  0.00    -0.454 OA
BRANCH  15  16
ATOM     16  C   UNL     1      -2.892  -5.590  -0.831  0.00  0.00    +0.328 C 
BRANCH  16  17
ATOM     17  C   UNL     1      -4.119  -5.220  -0.038  0.00  0.00    +0.255 C 
ATOM     18  O   UNL     1      -4.192  -4.133   0.496  0.00  0.00    -0.272 OA
ATOM     19  N   UNL     1      -5.136  -6.097   0.079  0.00  0.00    -0.280 N 
ATOM     20  H   UNL     1      -5.106  -6.940  -0.400  0.00  0.00    +0.155 HD
BRANCH  19  21
ATOM     21  C   UNL     1      -6.235  -5.791   0.892  0.00  0.00    +0.069 A 
ATOM     22  C   UNL     1      -6.680  -4.481   0.996  0.00  0.00    +0.029 A 
ATOM     23  C   UNL     1      -7.764  -4.181   1.798  0.00  0.00    +0.040 A 
ATOM     24  C   UNL     1      -8.408  -5.186   2.499  0.00  0.00    +0.126 A 
ATOM     25  C   UNL     1      -7.967  -6.495   2.399  0.00  0.00    +0.078 A 
ATOM     26  C   UNL     1      -6.886  -6.801   1.592  0.00  0.00    +0.147 A 
ATOM     27  F   UNL     1      -6.459  -8.079   1.490  0.00  0.00    -0.203 F 
ATOM     28  F   UNL     1      -9.467  -4.890   3.283  0.00  0.00    -0.205 F 
ENDBRANCH  19  21
ENDBRANCH  16  17
ENDBRANCH  15  16
ENDBRANCH  13  15
ENDBRANCH   1  13
BRANCH   1  29
ATOM     29  C   UNL     1       0.657  -3.259  -0.059  0.00  0.00    +0.071 C 
BRANCH  29  36
ATOM     30  C   UNL     1      -0.039   1.377  -0.013  0.00  0.00    +0.001 A 
ATOM     31  C   UNL     1       1.145   2.102  -0.028  0.00  0.00    +0.002 A 
ATOM     32  C   UNL     1       2.363   1.458  -0.054  0.00  0.00    +0.026 A 
ATOM     33  C   UNL     1       2.409   0.068  -0.065  0.00  0.00    +0.047 A 
ATOM     34  C   UNL     1       1.207  -0.662  -0.049  0.00  0.00    +0.003 A 
ATOM     35  C   UNL     1      -0.016   0.011  -0.023  0.00  0.00    +0.010 A 
ATOM     36  C   UNL     1       1.591  -2.076  -0.067  0.00  0.00    -0.020 A 
ATOM     37  C   UNL     1       2.933  -2.117  -0.090  0.00  0.00    +0.087 A 
ATOM     38  N   UNL     1       3.439  -0.846  -0.090  0.00  0.00    -0.360 N 
ATOM     39  H   UNL     1       4.383  -0.622  -0.104  0.00  0.00    +0.165 HD
ENDBRANCH  29  36
ENDBRANCH   1  29
TORSDOF 9
