REMARK  Name = ZINC07519573
REMARK  5 active torsions:
REMARK  status: ('A' for Active; 'I' for Inactive)
REMARK    1  A    between atoms: C_1  and  C_2
REMARK    2  A    between atoms: C_5  and  C_8
REMARK    3  A    between atoms: N_10  and  N_11
REMARK    4  A    between atoms: N_11  and  S_12
REMARK    5  A    between atoms: S_12  and  C_15
REMARK                            x       y       z     vdW  Elec       q    Type
REMARK                         _______ _______ _______ _____ _____    ______ ____
ROOT
ATOM      1  N   UNL     1       2.455  -4.213  -0.043  0.00  0.00    -0.108 NA
ATOM      2  H   UNL     1       1.989  -4.710   0.647  0.00  0.00    +0.172 HD
ENDROOT
BRANCH   1   5
ATOM      3  C   UNL     1       1.250  -2.160  -0.021  0.00  0.00    +0.259 C 
ATOM      4  O   UNL     1       0.208  -2.788  -0.014  0.00  0.00    -0.269 OA
ATOM      5  N   UNL     1       2.429  -2.812  -0.036  0.00  0.00    -0.228 N 
ATOM      6  H   UNL     1       3.260  -2.312  -0.041  0.00  0.00    +0.171 HD
BRANCH   3  11
ATOM      7  C   UNL     1       1.142   3.593   0.010  0.00  0.00    +0.044 C 
ATOM      8  C   UNL     1       1.170   2.086   0.002  0.00  0.00    -0.050 A 
ATOM      9  C   UNL     1      -0.017   1.375   0.010  0.00  0.00    +0.004 A 
ATOM     10  C   UNL     1       0.002  -0.004   0.002  0.00  0.00    +0.013 A 
ATOM     11  C   UNL     1       1.222  -0.682  -0.013  0.00  0.00    +0.038 A 
ATOM     12  C   UNL     1       2.416   0.041  -0.021  0.00  0.00    +0.013 A 
ATOM     13  C   UNL     1       2.383   1.420  -0.013  0.00  0.00    +0.004 A 
ENDBRANCH   3  11
ENDBRANCH   1   5
BRANCH   1  14
ATOM     14  S   UNL     1       3.281  -5.020  -1.230  0.00  0.00    +0.074 S 
ATOM     15  O   UNL     1       3.243  -6.398  -0.886  0.00  0.00    -0.152 OA
ATOM     16  O   UNL     1       2.792  -4.530  -2.471  0.00  0.00    -0.152 OA
BRANCH  14  17
ATOM     17  C   UNL     1       4.968  -4.520  -1.122  0.00  0.00    +0.110 A 
ATOM     18  C   UNL     1       5.413  -3.430  -1.845  0.00  0.00    +0.048 A 
ATOM     19  C   UNL     1       6.736  -3.034  -1.757  0.00  0.00    +0.044 A 
ATOM     20  C   UNL     1       7.615  -3.736  -0.952  0.00  0.00    +0.040 A 
ATOM     21  C   UNL     1       7.170  -4.831  -0.233  0.00  0.00    +0.044 A 
ATOM     22  C   UNL     1       5.846  -5.223  -0.318  0.00  0.00    +0.048 A 
ATOM     23 CL   UNL     1       8.273  -5.712   0.778  0.00  0.00    -0.083 Cl
ATOM     24 CL   UNL     1       7.293  -1.660  -2.660  0.00  0.00    -0.083 Cl
ENDBRANCH  14  17
ENDBRANCH   1  14
TORSDOF 4
