REMARK  Name = ZINC04199751
REMARK  8 active torsions:
REMARK  status: ('A' for Active; 'I' for Inactive)
REMARK    1  A    between atoms: C_1  and  O_2
REMARK    2  A    between atoms: O_2  and  C_3
REMARK    3  A    between atoms: C_5  and  C_13
REMARK    4  A    between atoms: C_7  and  O_11
REMARK    5  A    between atoms: C_8  and  O_9
REMARK    6  A    between atoms: O_9  and  C_10
REMARK    7  A    between atoms: O_11  and  C_12
REMARK    8  A    between atoms: C_18  and  C_28
REMARK                            x       y       z     vdW  Elec       q    Type
REMARK                         _______ _______ _______ _____ _____    ______ ____
ROOT
ATOM      1  C   UNL     1       4.534  -0.114   4.187  0.00  0.00    +0.032 C 
ATOM      2  C   UNL     1       5.682   0.390   3.315  0.00  0.00    +0.059 C 
ATOM      3  C   UNL     1       5.234   0.482   1.866  0.00  0.00    +0.017 C 
ATOM      4  C   UNL     1       4.317  -0.372   1.379  0.00  0.00    +0.037 C 
ATOM      5  C   UNL     1       3.791  -0.395  -0.036  0.00  0.00    +0.143 C 
ATOM      6  N   UNL     1       4.535   0.429  -0.965  0.00  0.00    -0.331 N 
ATOM      7  C   UNL     1       4.573   1.814  -0.829  0.00  0.00    +0.049 A 
ATOM      8  C   UNL     1       3.961   2.650  -1.749  0.00  0.00    +0.025 A 
ATOM      9  C   UNL     1       3.926   4.013  -1.510  0.00  0.00    +0.002 A 
ATOM     10  C   UNL     1       4.498   4.538  -0.366  0.00  0.00    +0.002 A 
ATOM     11  C   UNL     1       5.130   3.707   0.544  0.00  0.00    +0.025 A 
ATOM     12  C   UNL     1       5.180   2.346   0.299  0.00  0.00    +0.052 A 
ATOM     13  N   UNL     1       5.837   1.461   1.145  0.00  0.00    -0.316 N 
ATOM     14  C   UNL     1       3.753  -1.364   2.216  0.00  0.00    +0.163 C 
ATOM     15  O   UNL     1       2.942  -2.137   1.745  0.00  0.00    -0.292 OA
ATOM     16  C   UNL     1       4.121  -1.495   3.663  0.00  0.00    +0.088 C 
ATOM     17  H   UNL     1       5.082  -0.037  -1.797  0.00  0.00    +0.147 HD
ATOM     18  H   UNL     1       6.927   1.597   1.207  0.00  0.00    +0.152 HD
ENDROOT
BRANCH   1  21
ATOM     19  C   UNL     1       4.751   0.381   7.927  0.00  0.00    +0.165 A 
ATOM     20  C   UNL     1       4.333   0.481   6.609  0.00  0.00    +0.053 A 
ATOM     21  C   UNL     1       4.990  -0.225   5.619  0.00  0.00    -0.036 A 
ATOM     22  C   UNL     1       6.061  -1.038   5.939  0.00  0.00    +0.053 A 
ATOM     23  C   UNL     1       6.488  -1.140   7.254  0.00  0.00    +0.165 A 
ATOM     24  C   UNL     1       5.831  -0.431   8.253  0.00  0.00    +0.204 A 
BRANCH  19  26
ATOM     25  C   UNL     1       3.004   1.892   8.494  0.00  0.00    +0.277 C 
ATOM     26  O   UNL     1       4.105   1.077   8.901  0.00  0.00    -0.491 OA
ENDBRANCH  19  26
BRANCH  24  27
ATOM     27  O   UNL     1       6.244  -0.531   9.546  0.00  0.00    -0.488 OA
ATOM     28  C   UNL     1       5.650  -1.561  10.338  0.00  0.00    +0.277 C 
ENDBRANCH  24  27
BRANCH  23  29
ATOM     29  O   UNL     1       7.546  -1.935   7.567  0.00  0.00    -0.491 OA
ATOM     30  C   UNL     1       8.174  -2.634   6.490  0.00  0.00    +0.277 C 
ENDBRANCH  23  29
ENDBRANCH   1  21
BRANCH   5  31
ATOM     31  C   UNL     1       2.360   0.076  -0.020  0.00  0.00    +0.014 A 
ATOM     32  C   UNL     1       1.220  -0.658  -0.013  0.00  0.00    +0.013 A 
ATOM     33  C   UNL     1       0.002  -0.004   0.002  0.00  0.00    +0.008 A 
ATOM     34  C   UNL     1      -0.016   1.351   0.009  0.00  0.00    +0.045 A 
ATOM     35  S   UNL     1       1.725   1.744  -0.005  0.00  0.00    -0.099 S 
ENDBRANCH   5  31
TORSDOF 5
