REMARK  Name = ZINC64502581
REMARK  11 active torsions:
REMARK  status: ('A' for Active; 'I' for Inactive)
REMARK    1  A    between atoms: C_1  and  C_2
REMARK    2  A    between atoms: C_4  and  C_35
REMARK    3  A    between atoms: C_6  and  C_34
REMARK    4  A    between atoms: C_9  and  C_10
REMARK    5  A    between atoms: C_15  and  C_18
REMARK    6  A    between atoms: C_18  and  C_19
REMARK    7  A    between atoms: N_21  and  C_22
REMARK    8  A    between atoms: C_22  and  C_23
REMARK    9  A    between atoms: C_23  and  C_24
REMARK   10  A    between atoms: C_35  and  O_37
REMARK   11  A    between atoms: O_37  and  C_38
REMARK                            x       y       z     vdW  Elec       q    Type
REMARK                         _______ _______ _______ _____ _____    ______ ____
ROOT
ATOM      1  C   UNL     1       2.119  -0.559   1.497  0.00  0.00    +0.261 C 
ATOM      2  O   UNL     1       0.920  -0.416   1.363  0.00  0.00    -0.269 OA
ATOM      3  N   UNL     1       2.607  -1.143   2.609  0.00  0.00    -0.297 N 
ATOM      4  C   UNL     1       1.703  -1.763   3.588  0.00  0.00    +0.108 C 
ATOM      5  C   UNL     1       1.996  -1.174   4.971  0.00  0.00    +0.023 C 
ATOM      6  C   UNL     1       3.483  -1.347   5.290  0.00  0.00    +0.001 C 
ATOM      7  C   UNL     1       4.320  -0.591   4.256  0.00  0.00    +0.023 C 
ATOM      8  C   UNL     1       4.054  -1.178   2.862  0.00  0.00    +0.108 C 
ENDROOT
BRANCH   1  14
ATOM      9  C   UNL     1       1.959  -0.184  -1.813  0.00  0.00    +0.015 C 
ATOM     10  C   UNL     1       2.622   0.717  -0.770  0.00  0.00    +0.055 C 
ATOM     11  C   UNL     1       3.951   1.294  -1.316  0.00  0.00    +0.130 C 
ATOM     12  C   UNL     1       4.966   0.274  -0.747  0.00  0.00    +0.117 C 
ATOM     13  N   UNL     1       4.302  -0.311   0.424  0.00  0.00    -0.279 NA
ATOM     14  C   UNL     1       3.045  -0.089   0.438  0.00  0.00    +0.101 C 
ATOM     15  C   UNL     1       5.269  -0.809  -1.784  0.00  0.00    +0.033 C 
BRANCH  11  16
ATOM     16  C   UNL     1       4.207   2.677  -0.775  0.00  0.00    +0.313 C 
ATOM     17  O   UNL     1       3.416   3.185  -0.017  0.00  0.00    -0.250 OA
BRANCH  16  18
ATOM     18  O   UNL     1       5.315   3.344  -1.135  0.00  0.00    -0.468 OA
ATOM     19  C   UNL     1       5.494   4.650  -0.584  0.00  0.00    +0.280 C 
ENDBRANCH  16  18
ENDBRANCH  11  16
ENDBRANCH   1  14
BRANCH   6  20
ATOM     20  C   UNL     1       3.773  -0.791   6.686  0.00  0.00    +0.099 C 
BRANCH  20  21
ATOM     21  C   UNL     1       5.208  -1.072   7.051  0.00  0.00    +0.213 C 
ATOM     22  O   UNL     1       5.928  -1.658   6.271  0.00  0.00    -0.276 OA
ATOM     23  N   UNL     1       5.691  -0.670   8.243  0.00  0.00    -0.315 N 
ATOM     24  H   UNL     1       5.115  -0.201   8.867  0.00  0.00    +0.149 HD
BRANCH  23  25
ATOM     25  C   UNL     1       7.086  -0.943   8.597  0.00  0.00    +0.108 C 
BRANCH  25  26
ATOM     26  C   UNL     1       7.376  -0.387   9.993  0.00  0.00    +0.052 C 
BRANCH  26  27
ATOM     27  C   UNL     1       8.811  -0.667  10.357  0.00  0.00    -0.040 C 
ATOM     28  C   UNL     1       9.866   0.166  10.207  0.00  0.00    +0.000 A 
ATOM     29  C   UNL     1       9.988   1.529   9.678  0.00  0.00    +0.030 A 
ATOM     30  C   UNL     1      11.207   2.117   9.654  0.00  0.00    +0.042 A 
ATOM     31  C   UNL     1      12.353   1.457  10.120  0.00  0.00    +0.022 A 
ATOM     32  C   UNL     1      12.320   0.203  10.620  0.00  0.00    +0.027 A 
ATOM     33  C   UNL     1      11.091  -0.509  10.693  0.00  0.00    +0.043 A 
ATOM     34  N   UNL     1      10.804  -1.712  11.128  0.00  0.00    -0.380 N 
ATOM     35  C   UNL     1       9.362  -1.935  10.972  0.00  0.00    +0.144 C 
ATOM     36 CL   UNL     1      11.356   3.730   9.029  0.00  0.00    -0.084 Cl
ATOM     37  H   UNL     1      11.439  -2.348  11.495  0.00  0.00    +0.160 HD
ENDBRANCH  26  27
ENDBRANCH  25  26
ENDBRANCH  23  25
ENDBRANCH  20  21
ENDBRANCH   6  20
TORSDOF 8
