REMARK  Name = ZINC03318738
REMARK  9 active torsions:
REMARK  status: ('A' for Active; 'I' for Inactive)
REMARK    1  A    between atoms: C_1  and  C_2
REMARK    2  A    between atoms: C_2  and  C_3
REMARK    3  A    between atoms: C_2  and  C_4
REMARK    4  A    between atoms: C_2  and  N_5
REMARK    5  A    between atoms: C_9  and  C_11
REMARK    6  A    between atoms: C_11  and  S_12
REMARK    7  A    between atoms: S_12  and  C_13
REMARK    8  A    between atoms: N_26  and  C_27
REMARK    9  A    between atoms: C_27  and  C_28
REMARK                            x       y       z     vdW  Elec       q    Type
REMARK                         _______ _______ _______ _____ _____    ______ ____
ROOT
ATOM      1  C   UNL     1      -2.987   0.299   0.983  0.00  0.00    +0.173 A 
ATOM      2  N   UNL     1      -3.724  -0.142   1.982  0.00  0.00    -0.216 NA
ATOM      3  C   UNL     1      -3.663   0.434   3.177  0.00  0.00    +0.117 A 
ATOM      4  C   UNL     1      -2.819   1.526   3.438  0.00  0.00    +0.076 A 
ATOM      5  C   UNL     1      -2.861   2.055   4.803  0.00  0.00    -0.023 A 
ATOM      6  C   UNL     1      -3.698   1.448   5.669  0.00  0.00    -0.004 A 
ATOM      7  S   UNL     1      -4.470   0.155   4.734  0.00  0.00    -0.073 S 
ATOM      8  C   UNL     1      -3.922   1.795   7.109  0.00  0.00    +0.043 C 
ATOM      9  C   UNL     1      -2.783   2.717   7.569  0.00  0.00    +0.005 C 
ATOM     10  C   UNL     1      -2.597   3.824   6.527  0.00  0.00    +0.005 C 
ATOM     11  C   UNL     1      -2.005   3.238   5.246  0.00  0.00    +0.037 C 
ATOM     12  C   UNL     1      -2.027   1.980   2.336  0.00  0.00    +0.263 A 
ATOM     13  O   UNL     1      -1.265   2.922   2.469  0.00  0.00    -0.267 OA
ATOM     14  N   UNL     1      -2.135   1.352   1.151  0.00  0.00    -0.283 N 
ENDROOT
BRANCH   1  15
ATOM     15  S   UNL     1      -3.099  -0.485  -0.591  0.00  0.00    -0.078 S 
BRANCH  15  16
ATOM     16  C   UNL     1      -4.334  -1.756  -0.222  0.00  0.00    +0.173 C 
BRANCH  16  21
ATOM     17  N   UNL     1      -6.613  -5.330  -2.490  0.00  0.00    -0.294 N 
ATOM     18  C   UNL     1      -5.723  -4.319  -2.527  0.00  0.00    +0.306 C 
ATOM     19  O   UNL     1      -5.132  -4.068  -3.559  0.00  0.00    -0.252 OA
ATOM     20  N   UNL     1      -5.487  -3.586  -1.421  0.00  0.00    -0.239 N 
ATOM     21  C   UNL     1      -4.597  -2.575  -1.459  0.00  0.00    +0.231 C 
ATOM     22  O   UNL     1      -4.008  -2.325  -2.489  0.00  0.00    -0.274 OA
ATOM     23  H   UNL     1      -7.084  -5.530  -1.666  0.00  0.00    +0.151 HD
ATOM     24  H   UNL     1      -5.959  -3.787  -0.597  0.00  0.00    +0.159 HD
BRANCH  17  26
ATOM     25  C   UNL     1      -5.570  -6.795  -4.147  0.00  0.00    +0.031 C 
ATOM     26  C   UNL     1      -6.869  -6.127  -3.692  0.00  0.00    +0.028 C 
ATOM     27  C   UNL     1      -7.913  -7.201  -3.380  0.00  0.00    +0.031 C 
ATOM     28  C   UNL     1      -7.391  -5.216  -4.805  0.00  0.00    +0.031 C 
ENDBRANCH  17  26
ENDBRANCH  16  21
ENDBRANCH  15  16
ENDBRANCH   1  15
BRANCH  14  29
ATOM     29  C   UNL     1      -1.328   1.812   0.018  0.00  0.00    +0.154 C 
BRANCH  29  30
ATOM     30  C   UNL     1      -0.013   1.076   0.008  0.00  0.00    -0.013 C 
ATOM     31  C   UNL     1       1.113   1.746   0.001  0.00  0.00    +0.005 C 
ENDBRANCH  29  30
ENDBRANCH  14  29
TORSDOF 6
