REMARK  Name = ZINC36599003
REMARK  15 active torsions:
REMARK  status: ('A' for Active; 'I' for Inactive)
REMARK    1  A    between atoms: C_1  and  C_2
REMARK    2  A    between atoms: C_2  and  C_3
REMARK    3  A    between atoms: C_3  and  C_4
REMARK    4  A    between atoms: C_4  and  N_5
REMARK    5  A    between atoms: C_6  and  C_8
REMARK    6  A    between atoms: C_8  and  C_10
REMARK    7  A    between atoms: C_8  and  N_17
REMARK    8  A    between atoms: C_13  and  O_16
REMARK    9  A    between atoms: N_17  and  C_18
REMARK   10  A    between atoms: C_18  and  C_19
REMARK   11  A    between atoms: C_22  and  C_24
REMARK   12  A    between atoms: C_25  and  C_27
REMARK   13  A    between atoms: C_27  and  C_28
REMARK   14  A    between atoms: C_27  and  C_34
REMARK   15  A    between atoms: C_27  and  O_40
REMARK                            x       y       z     vdW  Elec       q    Type
REMARK                         _______ _______ _______ _____ _____    ______ ____
ROOT
ATOM      1  N   UNL     1       0.902  -6.789  -4.259  0.00  0.00    -0.276 N 
ATOM      2  C   UNL     1       2.163  -6.731  -4.733  0.00  0.00    +0.258 C 
ATOM      3  O   UNL     1       2.603  -5.684  -5.159  0.00  0.00    -0.272 OA
ENDROOT
BRANCH   1   4
ATOM      4  C   UNL     1       0.043  -5.603  -4.315  0.00  0.00    +0.193 C 
BRANCH   4   5
ATOM      5  C   UNL     1      -0.348  -5.334  -5.745  0.00  0.00    -0.018 A 
ATOM      6  C   UNL     1      -0.779  -6.372  -6.550  0.00  0.00    +0.009 A 
ATOM      7  C   UNL     1      -1.138  -6.128  -7.861  0.00  0.00    +0.046 A 
ATOM      8  C   UNL     1      -1.066  -4.839  -8.371  0.00  0.00    +0.117 A 
ATOM      9  C   UNL     1      -0.633  -3.799  -7.561  0.00  0.00    +0.046 A 
ATOM     10  C   UNL     1      -0.281  -4.048  -6.248  0.00  0.00    +0.009 A 
BRANCH   8  11
ATOM     11  O   UNL     1      -1.418  -4.597  -9.661  0.00  0.00    -0.507 OA
ATOM     12  H   UNL     1      -2.353  -4.379  -9.779  0.00  0.00    +0.292 HD
ENDBRANCH   8  11
ENDBRANCH   4   5
BRANCH   4  14
ATOM     13  N   UNL     1      -1.745  -4.830  -2.791  0.00  0.00    -0.313 N 
ATOM     14  C   UNL     1      -1.196  -5.842  -3.491  0.00  0.00    +0.238 C 
ATOM     15  O   UNL     1      -1.700  -6.945  -3.459  0.00  0.00    -0.273 OA
ATOM     16  H   UNL     1      -1.342  -3.948  -2.816  0.00  0.00    +0.149 HD
BRANCH  13  17
ATOM     17  C   UNL     1      -2.950  -5.061  -1.990  0.00  0.00    +0.104 C 
BRANCH  17  18
ATOM     18  C   UNL     1      -3.362  -3.760  -1.300  0.00  0.00    +0.018 C 
BRANCH  18  20
ATOM     19  C   UNL     1      -5.033  -2.700   0.225  0.00  0.00    +0.004 C 
ATOM     20  C   UNL     1      -4.620  -4.002  -0.464  0.00  0.00    -0.002 C 
ENDBRANCH  18  20
ENDBRANCH  17  18
ENDBRANCH  13  17
ENDBRANCH   4  14
ENDBRANCH   1   4
BRANCH   1  21
ATOM     21  C   UNL     1       0.392  -8.037  -3.687  0.00  0.00    +0.183 C 
BRANCH  21  22
ATOM     22  C   UNL     1       0.391  -7.937  -2.183  0.00  0.00    +0.122 A 
ATOM     23  C   UNL     1      -0.696  -7.787  -1.405  0.00  0.00    +0.046 A 
ATOM     24  C   UNL     1      -0.240  -7.739  -0.068  0.00  0.00    +0.045 A 
ATOM     25  C   UNL     1       1.099  -7.862  -0.108  0.00  0.00    +0.102 A 
ATOM     26  O   UNL     1       1.475  -7.988  -1.392  0.00  0.00    -0.463 OA
ATOM     27  C   UNL     1       2.020  -7.865   1.084  0.00  0.00    +0.086 C 
ENDBRANCH  21  22
ENDBRANCH   1  21
BRANCH   2  28
ATOM     28  C   UNL     1       3.024  -7.967  -4.736  0.00  0.00    +0.192 C 
BRANCH  28  29
ATOM     29  C   UNL     1       4.280  -7.702  -5.527  0.00  0.00    -0.003 A 
ATOM     30  C   UNL     1       5.227  -6.818  -5.045  0.00  0.00    +0.007 A 
ATOM     31  C   UNL     1       6.378  -6.575  -5.770  0.00  0.00    +0.000 A 
ATOM     32  C   UNL     1       6.583  -7.217  -6.977  0.00  0.00    +0.000 A 
ATOM     33  C   UNL     1       5.636  -8.102  -7.458  0.00  0.00    +0.000 A 
ATOM     34  C   UNL     1       4.487  -8.348  -6.731  0.00  0.00    +0.007 A 
ENDBRANCH  28  29
BRANCH  28  35
ATOM     35  C   UNL     1       3.390  -8.327  -3.319  0.00  0.00    -0.003 A 
ATOM     36  C   UNL     1       3.961  -7.380  -2.490  0.00  0.00    +0.007 A 
ATOM     37  C   UNL     1       4.296  -7.710  -1.190  0.00  0.00    +0.000 A 
ATOM     38  C   UNL     1       4.060  -8.988  -0.720  0.00  0.00    +0.000 A 
ATOM     39  C   UNL     1       3.488  -9.936  -1.548  0.00  0.00    +0.000 A 
ATOM     40  C   UNL     1       3.149  -9.604  -2.847  0.00  0.00    +0.007 A 
ENDBRANCH  28  35
BRANCH  28  41
ATOM     41  O   UNL     1       2.305  -9.048  -5.332  0.00  0.00    -0.371 OA
ATOM     42  H   UNL     1       2.099  -8.915  -6.268  0.00  0.00    +0.212 HD
ENDBRANCH  28  41
ENDBRANCH   2  28
TORSDOF 13
