REMARK  Name = ZINC30955647
REMARK  7 active torsions:
REMARK  status: ('A' for Active; 'I' for Inactive)
REMARK    1  A    between atoms: C_1  and  C_2
REMARK    2  A    between atoms: C_2  and  C_34
REMARK    3  A    between atoms: C_4  and  N_13
REMARK    4  A    between atoms: C_14  and  C_16
REMARK    5  A    between atoms: N_19  and  C_22
REMARK    6  A    between atoms: C_22  and  C_23
REMARK    7  A    between atoms: C_25  and  C_28
REMARK                            x       y       z     vdW  Elec       q    Type
REMARK                         _______ _______ _______ _____ _____    ______ ____
ROOT
ATOM      1  C   UNL     1       4.388  -2.458  -2.942  0.00  0.00    +0.071 C 
ATOM      2  C   UNL     1       3.268  -2.976  -3.849  0.00  0.00    -0.006 C 
ATOM      3  C   UNL     1       3.884  -3.731  -5.030  0.00  0.00    -0.077 C 
ATOM      4  N   UNL     1       4.690  -4.851  -4.529  0.00  0.00    +0.386 N 
ATOM      5  C   UNL     1       5.800  -4.375  -3.693  0.00  0.00    -0.077 C 
ATOM      6  C   UNL     1       5.242  -3.639  -2.473  0.00  0.00    -0.006 C 
ATOM      7  H   UNL     1       4.040  -5.477  -3.899  0.00  0.00    -0.081 HD
ENDROOT
BRANCH   1   9
ATOM      8  N   UNL     1       2.992  -0.690  -1.919  0.00  0.00    -0.308 N 
ATOM      9  C   UNL     1       3.786  -1.765  -1.746  0.00  0.00    +0.216 C 
ATOM     10  O   UNL     1       4.017  -2.175  -0.628  0.00  0.00    -0.276 OA
ATOM     11  H   UNL     1       2.783  -0.319  -2.933  0.00  0.00    +0.149 HD
BRANCH   8  15
ATOM     12  C   UNL     1       1.009   3.528  -0.266  0.00  0.00    +0.055 C 
ATOM     13  C   UNL     1       1.237   2.039   0.001  0.00  0.00    +0.107 C 
ATOM     14  C   UNL     1       2.107   1.442  -1.112  0.00  0.00    +0.074 C 
ATOM     15  C   UNL     1       2.408  -0.017  -0.757  0.00  0.00    +0.110 C 
ATOM     16  C   UNL     1       1.132  -0.716  -0.361  0.00  0.00    +0.015 A 
ATOM     17  C   UNL     1       1.103  -2.101  -0.359  0.00  0.00    +0.009 A 
ATOM     18  C   UNL     1      -0.046  -2.774   0.006  0.00  0.00    +0.001 A 
ATOM     19  C   UNL     1      -1.175  -2.065   0.372  0.00  0.00    +0.004 A 
ATOM     20  C   UNL     1      -1.154  -0.686   0.370  0.00  0.00    +0.046 A 
ATOM     21  C   UNL     1       0.002  -0.004   0.002  0.00  0.00    +0.126 A 
ATOM     22  O   UNL     1      -0.016   1.354   0.009  0.00  0.00    -0.486 OA
ATOM     23  C   UNL     1       1.932   1.858   1.352  0.00  0.00    +0.055 C 
ENDBRANCH   8  15
ENDBRANCH   1   9
BRANCH   4  24
ATOM     24  C   UNL     1       5.184  -5.681  -5.636  0.00  0.00    +0.022 C 
BRANCH  24  25
ATOM     25  C   UNL     1       4.019  -6.349  -6.322  0.00  0.00    +0.211 A 
ATOM     26  N   UNL     1       3.329  -5.869  -7.326  0.00  0.00    -0.193 NA
ATOM     27  C   UNL     1       2.395  -6.807  -7.605  0.00  0.00    +0.202 A 
ATOM     28  N   UNL     1       2.566  -7.787  -6.757  0.00  0.00    -0.056 NA
ATOM     29  O   UNL     1       3.493  -7.539  -6.015  0.00  0.00    -0.340 OA
BRANCH  27  30
ATOM     30  C   UNL     1       1.365  -6.734  -8.671  0.00  0.00    +0.022 A 
ATOM     31  C   UNL     1       1.297  -5.618  -9.502  0.00  0.00    +0.012 A 
ATOM     32  C   UNL     1       0.340  -5.558 -10.496  0.00  0.00    +0.001 A 
ATOM     33  C   UNL     1      -0.557  -6.598 -10.659  0.00  0.00    +0.000 A 
ATOM     34  C   UNL     1      -0.498  -7.706  -9.832  0.00  0.00    +0.001 A 
ATOM     35  C   UNL     1       0.459  -7.779  -8.840  0.00  0.00    +0.012 A 
ENDBRANCH  27  30
ENDBRANCH  24  25
ENDBRANCH   4  24
TORSDOF 5
