REMARK  Name = ZINC35729118
REMARK  8 active torsions:
REMARK  status: ('A' for Active; 'I' for Inactive)
REMARK    1  A    between atoms: C_1  and  C_2
REMARK    2  A    between atoms: C_2  and  C_3
REMARK    3  A    between atoms: C_2  and  C_4
REMARK    4  A    between atoms: C_2  and  C_5
REMARK    5  A    between atoms: C_8  and  S_11
REMARK    6  A    between atoms: S_11  and  N_14
REMARK    7  A    between atoms: C_18  and  C_20
REMARK    8  A    between atoms: C_26  and  C_28
REMARK                            x       y       z     vdW  Elec       q    Type
REMARK                         _______ _______ _______ _____ _____    ______ ____
ROOT
ATOM      1  N   UNL     1       3.339  -1.065  -5.979  0.00  0.00    -0.165 NA
ATOM      2  C   UNL     1       2.035  -1.405  -6.577  0.00  0.00    +0.110 C 
ATOM      3  C   UNL     1       1.317  -0.045  -6.762  0.00  0.00    +0.019 C 
ATOM      4  C   UNL     1       2.497   0.878  -7.165  0.00  0.00    +0.031 C 
ATOM      5  C   UNL     1       3.667   0.325  -6.324  0.00  0.00    +0.166 C 
ENDROOT
BRANCH   5   6
ATOM      6  C   UNL     1       3.828   1.141  -5.067  0.00  0.00    +0.238 C 
ATOM      7  O   UNL     1       3.265   0.802  -4.048  0.00  0.00    -0.274 OA
ATOM      8  N   UNL     1       4.598   2.247  -5.075  0.00  0.00    -0.262 N 
ATOM      9  C   UNL     1       4.747   2.999  -3.916  0.00  0.00    +0.188 A 
ATOM     10  N   UNL     1       4.235   2.812  -2.707  0.00  0.00    -0.125 NA
ATOM     11  N   UNL     1       4.473   3.600  -1.752  0.00  0.00    -0.140 NA
ATOM     12  C   UNL     1       5.251   4.666  -1.900  0.00  0.00    +0.134 A 
ATOM     13  S   UNL     1       5.691   4.493  -3.628  0.00  0.00    -0.030 S 
ATOM     14  H   UNL     1       5.049   2.518  -5.891  0.00  0.00    +0.157 HD
BRANCH  12  15
ATOM     15  C   UNL     1       5.647   5.697  -0.918  0.00  0.00    +0.009 A 
ATOM     16  C   UNL     1       6.482   6.747  -1.303  0.00  0.00    +0.013 A 
ATOM     17  C   UNL     1       6.848   7.707  -0.383  0.00  0.00    +0.039 A 
ATOM     18  C   UNL     1       6.388   7.630   0.923  0.00  0.00    +0.123 A 
ATOM     19  C   UNL     1       5.559   6.589   1.310  0.00  0.00    +0.039 A 
ATOM     20  C   UNL     1       5.182   5.627   0.396  0.00  0.00    +0.013 A 
ATOM     21  F   UNL     1       6.750   8.572   1.821  0.00  0.00    -0.205 F 
ENDBRANCH  12  15
ENDBRANCH   5   6
BRANCH   1  22
ATOM     22  S   UNL     1       4.275  -2.080  -5.064  0.00  0.00    +0.062 S 
ATOM     23  O   UNL     1       3.386  -2.980  -4.417  0.00  0.00    -0.153 OA
ATOM     24  O   UNL     1       5.182  -1.256  -4.343  0.00  0.00    -0.153 OA
BRANCH  22  28
ATOM     25  C   UNL     1       6.765  -4.551  -7.924  0.00  0.00    -0.042 A 
ATOM     26  C   UNL     1       7.197  -3.296  -7.539  0.00  0.00    +0.006 A 
ATOM     27  C   UNL     1       6.436  -2.541  -6.666  0.00  0.00    +0.029 A 
ATOM     28  C   UNL     1       5.244  -3.041  -6.178  0.00  0.00    +0.106 A 
ATOM     29  C   UNL     1       4.811  -4.296  -6.564  0.00  0.00    +0.029 A 
ATOM     30  C   UNL     1       5.570  -5.049  -7.440  0.00  0.00    +0.006 A 
BRANCH  25  32
ATOM     31  C   UNL     1       6.779  -5.670 -10.137  0.00  0.00    +0.015 C 
ATOM     32  C   UNL     1       7.594  -5.374  -8.876  0.00  0.00    -0.013 C 
ATOM     33  C   UNL     1       7.988  -6.690  -8.203  0.00  0.00    +0.015 C 
ATOM     34  C   UNL     1       8.857  -4.597  -9.255  0.00  0.00    +0.015 C 
ENDBRANCH  25  32
ENDBRANCH  22  28
ENDBRANCH   1  22
TORSDOF 5
