REMARK  Name = ZINC22047985
REMARK  15 active torsions:
REMARK  status: ('A' for Active; 'I' for Inactive)
REMARK    1  A    between atoms: C_2  and  C_3
REMARK    2  A    between atoms: C_3  and  O_4
REMARK    3  A    between atoms: O_4  and  C_5
REMARK    4  A    between atoms: N_7  and  C_8
REMARK    5  A    between atoms: C_10  and  O_39
REMARK    6  A    between atoms: C_12  and  O_22
REMARK    7  A    between atoms: C_14  and  C_20
REMARK    8  A    between atoms: C_17  and  O_19
REMARK    9  A    between atoms: C_20  and  O_21
REMARK   10  A    between atoms: O_22  and  C_23
REMARK   11  A    between atoms: C_25  and  O_38
REMARK   12  A    between atoms: C_27  and  O_37
REMARK   13  A    between atoms: C_29  and  O_36
REMARK   14  A    between atoms: C_31  and  C_34
REMARK   15  A    between atoms: C_34  and  O_35
REMARK                            x       y       z     vdW  Elec       q    Type
REMARK                         _______ _______ _______ _____ _____    ______ ____
ROOT
ATOM      1  C   UNL     1       2.422   1.185  -0.015  0.00  0.00    +0.163 C 
ATOM      2  C   UNL     1       3.515   2.077   0.583  0.00  0.00    +0.171 C 
ATOM      3  C   UNL     1       4.860   1.350   0.489  0.00  0.00    +0.183 C 
ATOM      4  C   UNL     1       5.137   0.992  -0.973  0.00  0.00    +0.178 C 
ATOM      5  O   UNL     1       4.068   0.188  -1.476  0.00  0.00    -0.341 OA
ATOM      6  C   UNL     1       2.793   0.834  -1.458  0.00  0.00    +0.271 C 
ENDROOT
BRANCH   1   9
ATOM      7  C   UNL     1      -0.014   1.211   0.009  0.00  0.00    +0.401 C 
ATOM      8  O   UNL     1       0.002  -0.004   0.002  0.00  0.00    -0.226 OA
ATOM      9  N   UNL     1       1.143   1.901   0.001  0.00  0.00    -0.271 N 
ATOM     10  H   UNL     1       1.129   3.001   0.007  0.00  0.00    +0.153 HD
BRANCH   7  11
ATOM     11  O   UNL     1      -1.189   1.868   0.018  0.00  0.00    -0.446 OA
BRANCH  11  12
ATOM     12  C   UNL     1      -2.396   1.061   0.019  0.00  0.00    +0.261 C 
BRANCH  12  14
ATOM     13  C   UNL     1      -4.612   1.716  -0.769  0.00  0.00    +0.007 C 
ATOM     14  C   UNL     1      -3.604   1.963   0.030  0.00  0.00    +0.006 C 
ENDBRANCH  12  14
ENDBRANCH  11  12
ENDBRANCH   7  11
ENDBRANCH   1   9
BRANCH   6  15
ATOM     15  O   UNL     1       2.853   2.029  -2.239  0.00  0.00    -0.365 OA
ATOM     16  H   UNL     1       3.107   1.974  -3.308  0.00  0.00    +0.213 HD
ENDBRANCH   6  15
BRANCH   2  17
ATOM     17  O   UNL     1       3.583   3.304  -0.147  0.00  0.00    -0.387 OA
ATOM     18  H   UNL     1       4.314   4.074   0.139  0.00  0.00    +0.210 HD
ENDBRANCH   2  17
BRANCH   4  19
ATOM     19  C   UNL     1       6.450   0.212  -1.067  0.00  0.00    +0.190 C 
BRANCH  19  20
ATOM     20  O   UNL     1       6.767  -0.022  -2.441  0.00  0.00    -0.392 OA
ATOM     21  H   UNL     1       7.681  -0.572  -2.708  0.00  0.00    +0.210 HD
ENDBRANCH  19  20
ENDBRANCH   4  19
BRANCH   3  22
ATOM     22  O   UNL     1       4.814   0.156   1.273  0.00  0.00    -0.340 OA
BRANCH  22  23
ATOM     23  C   UNL     1       6.078  -0.235   1.812  0.00  0.00    +0.282 C 
ATOM     24  C   UNL     1       5.965  -1.638   2.414  0.00  0.00    +0.201 C 
ATOM     25  C   UNL     1       7.307  -2.026   3.042  0.00  0.00    +0.179 C 
ATOM     26  C   UNL     1       7.691  -0.974   4.087  0.00  0.00    +0.177 C 
ATOM     27  C   UNL     1       7.738   0.404   3.420  0.00  0.00    +0.178 C 
ATOM     28  O   UNL     1       6.469   0.689   2.829  0.00  0.00    -0.341 OA
BRANCH  26  29
ATOM     29  O   UNL     1       6.720  -0.964   5.135  0.00  0.00    -0.386 OA
ATOM     30  H   UNL     1       6.829  -0.269   5.980  0.00  0.00    +0.210 HD
ENDBRANCH  26  29
BRANCH  25  31
ATOM     31  O   UNL     1       8.311  -2.081   2.027  0.00  0.00    -0.386 OA
ATOM     32  H   UNL     1       9.346  -2.345   2.292  0.00  0.00    +0.210 HD
ENDBRANCH  25  31
BRANCH  24  33
ATOM     33  O   UNL     1       5.631  -2.573   1.386  0.00  0.00    -0.384 OA
ATOM     34  H   UNL     1       5.506  -3.639   1.631  0.00  0.00    +0.210 HD
ENDBRANCH  24  33
BRANCH  27  35
ATOM     35  C   UNL     1       8.063   1.468   4.470  0.00  0.00    +0.190 C 
BRANCH  35  36
ATOM     36  O   UNL     1       8.221   2.736   3.830  0.00  0.00    -0.392 OA
ATOM     37  H   UNL     1       8.459   3.628   4.428  0.00  0.00    +0.210 HD
ENDBRANCH  35  36
ENDBRANCH  27  35
ENDBRANCH  22  23
ENDBRANCH   3  22
TORSDOF 15
