REMARK  Name = ZINC05046922
REMARK  6 active torsions:
REMARK  status: ('A' for Active; 'I' for Inactive)
REMARK    1  A    between atoms: C_1  and  C_2
REMARK    2  A    between atoms: C_5  and  N_9
REMARK    3  A    between atoms: C_6  and  C_8
REMARK    4  A    between atoms: C_14  and  C_28
REMARK    5  A    between atoms: N_16  and  C_22
REMARK    6  A    between atoms: C_33  and  O_34
REMARK                            x       y       z     vdW  Elec       q    Type
REMARK                         _______ _______ _______ _____ _____    ______ ____
ROOT
ATOM      1  N   UNL     1      -0.460  -3.796   0.856  0.00  0.00    -0.208 N 
ATOM      2  C   UNL     1      -1.495  -4.640   0.778  0.00  0.00    +0.235 C 
ATOM      3  O   UNL     1      -2.621  -4.405   1.161  0.00  0.00    -0.274 OA
ATOM      4  C   UNL     1      -1.042  -5.931   0.137  0.00  0.00    +0.146 C 
ATOM      5  C   UNL     1      -1.080  -7.065   1.186  0.00  0.00    +0.160 C 
ATOM      6  N   UNL     1       0.246  -7.709   1.019  0.00  0.00    -0.244 N 
ATOM      7  O   UNL     1       1.145  -6.623   0.786  0.00  0.00    -0.257 OA
ATOM      8  C   UNL     1       0.472  -5.696  -0.115  0.00  0.00    +0.249 C 
ATOM      9  C   UNL     1       0.689  -4.280   0.372  0.00  0.00    +0.259 C 
ATOM     10  O   UNL     1       1.741  -3.679   0.331  0.00  0.00    -0.272 OA
ENDROOT
BRANCH   1  15
ATOM     11  C   UNL     1      -0.914   1.423   3.042  0.00  0.00    +0.044 C 
ATOM     12  C   UNL     1      -0.794   0.037   2.462  0.00  0.00    -0.050 A 
ATOM     13  C   UNL     1      -1.013  -0.167   1.111  0.00  0.00    +0.005 A 
ATOM     14  C   UNL     1      -0.903  -1.436   0.577  0.00  0.00    +0.024 A 
ATOM     15  C   UNL     1      -0.572  -2.507   1.396  0.00  0.00    +0.047 A 
ATOM     16  C   UNL     1      -0.352  -2.299   2.751  0.00  0.00    -0.028 A 
ATOM     17  C   UNL     1      -0.459  -1.027   3.279  0.00  0.00    +0.008 A 
ATOM     18  C   UNL     1       0.007  -3.458   3.643  0.00  0.00    +0.046 C 
ENDBRANCH   1  15
BRANCH   6  19
ATOM     19  C   UNL     1       0.548  -9.071   1.077  0.00  0.00    +0.065 A 
ATOM     20  C   UNL     1       1.208  -9.683   0.019  0.00  0.00    +0.028 A 
ATOM     21  C   UNL     1       1.506 -11.031   0.080  0.00  0.00    +0.002 A 
ATOM     22  C   UNL     1       1.146 -11.770   1.192  0.00  0.00    +0.000 A 
ATOM     23  C   UNL     1       0.488 -11.164   2.246  0.00  0.00    +0.002 A 
ATOM     24  C   UNL     1       0.193  -9.816   2.195  0.00  0.00    +0.028 A 
ENDBRANCH   6  19
BRANCH   5  25
ATOM     25  C   UNL     1      -2.192  -8.036   0.884  0.00  0.00    +0.020 A 
ATOM     26  C   UNL     1      -2.004  -9.031  -0.056  0.00  0.00    +0.009 A 
ATOM     27  C   UNL     1      -3.023  -9.922  -0.334  0.00  0.00    +0.001 A 
ATOM     28  C   UNL     1      -4.234  -9.820   0.327  0.00  0.00    +0.004 A 
ATOM     29  C   UNL     1      -4.426  -8.828   1.268  0.00  0.00    +0.046 A 
ATOM     30  C   UNL     1      -3.403  -7.935   1.553  0.00  0.00    +0.122 A 
BRANCH  30  31
ATOM     31  O   UNL     1      -3.588  -6.961   2.482  0.00  0.00    -0.506 OA
ATOM     32  H   UNL     1      -3.944  -6.137   2.122  0.00  0.00    +0.292 HD
ENDBRANCH  30  31
ENDBRANCH   5  25
TORSDOF 4
