REMARK  Name = ZINC15105659
REMARK  9 active torsions:
REMARK  status: ('A' for Active; 'I' for Inactive)
REMARK    1  A    between atoms: C_1  and  C_2
REMARK    2  A    between atoms: C_2  and  C_3
REMARK    3  A    between atoms: C_2  and  C_4
REMARK    4  A    between atoms: C_4  and  N_5
REMARK    5  A    between atoms: C_9  and  C_11
REMARK    6  A    between atoms: C_11  and  N_57
REMARK    7  A    between atoms: C_17  and  C_19
REMARK    8  A    between atoms: C_22  and  O_25
REMARK    9  A    between atoms: O_25  and  C_26
REMARK                            x       y       z     vdW  Elec       q    Type
REMARK                         _______ _______ _______ _____ _____    ______ ____
ROOT
ATOM      1  C   UNL     1      -2.357  -0.286   0.444  0.00  0.00    -0.077 C 
ATOM      2  C   UNL     1      -3.043   0.802  -0.337  0.00  0.00    -0.019 C 
ATOM      3  C   UNL     1      -2.155   1.172  -1.543  0.00  0.00    -0.002 C 
ATOM      4  C   UNL     1      -1.042   2.035  -1.164  0.00  0.00    -0.001 C 
ATOM      5  C   UNL     1      -0.102   1.359  -0.144  0.00  0.00    -0.011 C 
ATOM      6  C   UNL     1      -0.732   1.441   1.220  0.00  0.00    -0.037 C 
ATOM      7  N   UNL     1      -1.557   0.243   1.603  0.00  0.00    +0.390 N 
ATOM      8  H   UNL     1      -2.208   0.522   2.346  0.00  0.00    -0.080 HD
ENDROOT
BRANCH   6   9
ATOM      9  C   UNL     1       0.355   1.615   2.248  0.00  0.00    -0.061 A 
ATOM     10  C   UNL     1       1.516   0.869   2.158  0.00  0.00    +0.005 A 
ATOM     11  C   UNL     1       2.516   1.030   3.097  0.00  0.00    +0.046 A 
ATOM     12  C   UNL     1       2.351   1.933   4.137  0.00  0.00    +0.120 A 
ATOM     13  C   UNL     1       1.183   2.676   4.229  0.00  0.00    +0.046 A 
ATOM     14  C   UNL     1       0.188   2.515   3.284  0.00  0.00    +0.005 A 
BRANCH  12  15
ATOM     15  O   UNL     1       3.332   2.090   5.065  0.00  0.00    -0.495 OA
ATOM     16  C   UNL     1       4.507   1.292   4.908  0.00  0.00    +0.277 C 
ENDBRANCH  12  15
ENDBRANCH   6   9
BRANCH   7  17
ATOM     17  C   UNL     1      -0.675  -0.816   2.116  0.00  0.00    +0.020 C 
BRANCH  17  22
ATOM     18  N   UNL     1      -1.155  -4.880   4.640  0.00  0.00    -0.299 N 
ATOM     19  C   UNL     1      -1.727  -3.815   4.044  0.00  0.00    +0.306 C 
ATOM     20  O   UNL     1      -2.934  -3.677   4.074  0.00  0.00    -0.252 OA
ATOM     21  N   UNL     1      -0.961  -2.902   3.415  0.00  0.00    -0.242 N 
ATOM     22  C   UNL     1      -1.532  -1.837   2.819  0.00  0.00    +0.204 C 
ATOM     23  O   UNL     1      -2.737  -1.700   2.849  0.00  0.00    -0.277 OA
ATOM     24  H   UNL     1      -0.192  -4.989   4.616  0.00  0.00    +0.150 HD
ATOM     25  H   UNL     1       0.003  -3.011   3.391  0.00  0.00    +0.159 HD
BRANCH  18  26
ATOM     26  C   UNL     1      -1.989  -5.872   5.323  0.00  0.00    +0.108 C 
BRANCH  26  28
ATOM     27  C   UNL     1      -1.954  -7.938   6.727  0.00  0.00    +0.009 C 
ATOM     28  C   UNL     1      -1.098  -6.970   5.909  0.00  0.00    -0.000 C 
ATOM     29  C   UNL     1      -0.413  -7.731   4.772  0.00  0.00    +0.009 C 
ENDBRANCH  26  28
ENDBRANCH  18  26
ENDBRANCH  17  22
ENDBRANCH   7  17
TORSDOF 6
