REMARK  Name = ZINC34830425
REMARK  6 active torsions:
REMARK  status: ('A' for Active; 'I' for Inactive)
REMARK    1  A    between atoms: C_1  and  C_2
REMARK    2  A    between atoms: C_7  and  C_8
REMARK    3  A    between atoms: N_17  and  C_18
REMARK    4  A    between atoms: C_18  and  C_20
REMARK    5  A    between atoms: C_18  and  C_21
REMARK    6  A    between atoms: C_30  and  C_32
REMARK                            x       y       z     vdW  Elec       q    Type
REMARK                         _______ _______ _______ _____ _____    ______ ____
ROOT
ATOM      1  C   UNL     1       2.059  -2.011   2.245  0.00  0.00    +0.202 C 
ATOM      2  O   UNL     1       1.060  -2.593   1.881  0.00  0.00    -0.277 OA
ATOM      3  N   UNL     1       3.030  -1.717   1.357  0.00  0.00    -0.301 N 
ATOM      4  C   UNL     1       2.866  -1.970  -0.032  0.00  0.00    +0.109 C 
ATOM      5  C   UNL     1       3.201  -3.433  -0.471  0.00  0.00    +0.038 C 
ATOM      6  C   UNL     1       4.438  -3.897   0.365  0.00  0.00    +0.109 C 
ATOM      7  N   UNL     1       5.414  -2.888   0.588  0.00  0.00    -0.296 N 
ATOM      8  C   UNL     1       5.340  -2.149   1.874  0.00  0.00    +0.127 C 
ATOM      9  C   UNL     1       4.315  -1.107   1.785  0.00  0.00    +0.126 C 
ATOM     10  C   UNL     1       6.365  -2.614  -0.327  0.00  0.00    +0.247 C 
ATOM     11  O   UNL     1       6.333  -3.153  -1.417  0.00  0.00    -0.270 OA
ENDROOT
BRANCH  10  12
ATOM     12  C   UNL     1       7.446  -1.661  -0.006  0.00  0.00    +0.041 A 
ATOM     13  C   UNL     1       8.730  -1.861  -0.517  0.00  0.00    +0.017 A 
ATOM     14  C   UNL     1       9.737  -0.970  -0.217  0.00  0.00    +0.050 A 
ATOM     15  C   UNL     1       9.480   0.129   0.593  0.00  0.00    +0.166 A 
ATOM     16  C   UNL     1       8.199   0.334   1.106  0.00  0.00    +0.167 A 
ATOM     17  C   UNL     1       7.184  -0.553   0.804  0.00  0.00    +0.062 A 
ATOM     18  O   UNL     1       8.210   1.471   1.862  0.00  0.00    -0.453 OA
ATOM     19  C   UNL     1       9.598   1.733   2.140  0.00  0.00    +0.466 C 
ATOM     20  O   UNL     1      10.289   1.137   1.027  0.00  0.00    -0.453 OA
ENDBRANCH  10  12
BRANCH   1  21
ATOM     21  C   UNL     1       2.217  -1.617   3.691  0.00  0.00    +0.018 C 
ATOM     22  C   UNL     1       3.030  -2.686   4.425  0.00  0.00    -0.004 C 
BRANCH  21  31
ATOM     23  C   UNL     1       1.037  -0.905   5.648  0.00  0.00    -0.005 C 
ATOM     24  C   UNL     1      -0.329  -0.878   6.327  0.00  0.00    -0.047 A 
ATOM     25  C   UNL     1      -0.646  -0.059   7.407  0.00  0.00    +0.010 A 
ATOM     26  C   UNL     1      -1.887  -0.100   7.946  0.00  0.00    +0.045 A 
ATOM     27  S   UNL     1      -2.691  -1.330   6.929  0.00  0.00    -0.101 S 
ATOM     28  C   UNL     1      -1.320  -1.695   5.871  0.00  0.00    -0.010 A 
ATOM     29  C   UNL     1      -1.221  -2.661   4.736  0.00  0.00    +0.024 C 
ATOM     30  C   UNL     1       0.271  -2.826   4.396  0.00  0.00    -0.071 C 
ATOM     31  N   UNL     1       0.892  -1.496   4.313  0.00  0.00    +0.395 N 
ATOM     32  H   UNL     1       0.313  -0.896   3.745  0.00  0.00    -0.079 HD
BRANCH  23  39
ATOM     33  C   UNL     1       2.577   0.256   7.800  0.00  0.00    +0.044 C 
ATOM     34  C   UNL     1       2.304   1.056   6.552  0.00  0.00    -0.049 A 
ATOM     35  C   UNL     1       2.794   2.343   6.435  0.00  0.00    +0.003 A 
ATOM     36  C   UNL     1       2.543   3.077   5.291  0.00  0.00    +0.000 A 
ATOM     37  C   UNL     1       1.802   2.523   4.264  0.00  0.00    +0.000 A 
ATOM     38  C   UNL     1       1.312   1.236   4.380  0.00  0.00    +0.002 A 
ATOM     39  C   UNL     1       1.567   0.501   5.523  0.00  0.00    -0.054 A 
ENDBRANCH  23  39
ENDBRANCH  21  31
ENDBRANCH   1  21
TORSDOF 4
