REMARK  Name = ZINC39482677
REMARK  8 active torsions:
REMARK  status: ('A' for Active; 'I' for Inactive)
REMARK    1  A    between atoms: C_1  and  C_2
REMARK    2  A    between atoms: C_5  and  C_8
REMARK    3  A    between atoms: C_8  and  N_9
REMARK    4  A    between atoms: C_19  and  S_20
REMARK    5  A    between atoms: S_20  and  C_21
REMARK    6  A    between atoms: C_21  and  C_22
REMARK    7  A    between atoms: C_24  and  O_25
REMARK    8  A    between atoms: C_34  and  C_36
REMARK                            x       y       z     vdW  Elec       q    Type
REMARK                         _______ _______ _______ _____ _____    ______ ____
ROOT
ATOM      1  N   UNL     1       2.212  -4.853   0.061  0.00  0.00    -0.283 N 
ATOM      2  C   UNL     1       2.999  -5.040  -1.024  0.00  0.00    +0.263 A 
ATOM      3  O   UNL     1       2.563  -4.901  -2.152  0.00  0.00    -0.267 OA
ATOM      4  C   UNL     1       4.400  -5.416  -0.789  0.00  0.00    +0.065 A 
ATOM      5  C   UNL     1       5.291  -5.630  -1.840  0.00  0.00    +0.015 A 
ATOM      6  C   UNL     1       6.585  -5.978  -1.566  0.00  0.00    +0.001 A 
ATOM      7  C   UNL     1       7.019  -6.120  -0.254  0.00  0.00    +0.002 A 
ATOM      8  C   UNL     1       6.167  -5.916   0.794  0.00  0.00    +0.028 A 
ATOM      9  C   UNL     1       4.838  -5.559   0.547  0.00  0.00    +0.079 A 
ATOM     10  N   UNL     1       3.964  -5.348   1.551  0.00  0.00    -0.223 NA
ATOM     11  C   UNL     1       2.720  -5.008   1.320  0.00  0.00    +0.173 A 
ENDROOT
BRANCH   1  12
ATOM     12  C   UNL     1       0.807  -4.477  -0.115  0.00  0.00    +0.162 C 
BRANCH  12  17
ATOM     13  C   UNL     1       0.357   1.282  -0.264  0.00  0.00    +0.044 C 
ATOM     14  C   UNL     1       0.475  -0.220  -0.225  0.00  0.00    -0.050 A 
ATOM     15  C   UNL     1       0.673  -0.928  -1.396  0.00  0.00    +0.004 A 
ATOM     16  C   UNL     1       0.781  -2.306  -1.360  0.00  0.00    +0.005 A 
ATOM     17  C   UNL     1       0.691  -2.975  -0.154  0.00  0.00    -0.028 A 
ATOM     18  C   UNL     1       0.493  -2.267   1.017  0.00  0.00    +0.005 A 
ATOM     19  C   UNL     1       0.390  -0.888   0.982  0.00  0.00    +0.004 A 
ENDBRANCH  12  17
ENDBRANCH   1  12
BRANCH  11  20
ATOM     20  S   UNL     1       1.651  -4.746   2.695  0.00  0.00    -0.083 S 
BRANCH  20  21
ATOM     21  C   UNL     1       2.708  -5.050   4.137  0.00  0.00    +0.113 C 
BRANCH  21  22
ATOM     22  C   UNL     1       1.906  -4.856   5.398  0.00  0.00    -0.020 A 
ATOM     23  C   UNL     1       1.572  -3.590   5.835  0.00  0.00    +0.092 A 
ATOM     24  C   UNL     1       0.833  -3.432   6.998  0.00  0.00    +0.285 A 
ATOM     25  O   UNL     1       0.430  -4.486   7.716  0.00  0.00    -0.425 OA
ATOM     26  C   UNL     1       0.729  -5.745   7.335  0.00  0.00    +0.141 A 
ATOM     27  C   UNL     1       1.475  -5.966   6.155  0.00  0.00    +0.022 A 
ATOM     28  C   UNL     1       1.783  -7.277   5.752  0.00  0.00    +0.013 A 
ATOM     29  C   UNL     1       1.359  -8.333   6.495  0.00  0.00    +0.024 A 
ATOM     30  C   UNL     1       0.612  -8.123   7.667  0.00  0.00    +0.037 A 
ATOM     31  C   UNL     1       0.307  -6.827   8.087  0.00  0.00    +0.070 A 
ATOM     32  N   UNL     1       0.192  -9.189   8.403  0.00  0.00    -0.286 N 
ATOM     33  C   UNL     1      -0.756  -9.035   9.306  0.00  0.00    +0.214 C 
ATOM     34  O   UNL     1      -1.342  -7.971   9.398  0.00  0.00    -0.276 OA
ATOM     35  C   UNL     1      -1.116 -10.175  10.223  0.00  0.00    +0.109 C 
ATOM     36  H   UNL     1       0.591 -10.062   8.262  0.00  0.00    +0.155 HD
BRANCH  24  37
ATOM     37  O   UNL     1       0.514  -2.191   7.413  0.00  0.00    -0.480 OA
ATOM     38  H   UNL     1      -0.002  -2.170   8.231  0.00  0.00    +0.295 HD
ENDBRANCH  24  37
ENDBRANCH  21  22
ENDBRANCH  20  21
ENDBRANCH  11  20
TORSDOF 6
