REMARK  Name = ZINC18664862
REMARK  11 active torsions:
REMARK  status: ('A' for Active; 'I' for Inactive)
REMARK    1  A    between atoms: C_1  and  C_2
REMARK    2  A    between atoms: C_2  and  C_4
REMARK    3  A    between atoms: C_2  and  N_14
REMARK    4  A    between atoms: C_15  and  C_17
REMARK    5  A    between atoms: C_17  and  N_18
REMARK    6  A    between atoms: C_20  and  C_23
REMARK    7  A    between atoms: C_27  and  C_29
REMARK    8  A    between atoms: C_29  and  O_31
REMARK    9  A    between atoms: O_31  and  C_32
REMARK   10  A    between atoms: C_32  and  C_33
REMARK   11  A    between atoms: C_32  and  C_34
REMARK                            x       y       z     vdW  Elec       q    Type
REMARK                         _______ _______ _______ _____ _____    ______ ____
ROOT
ATOM      1  C   UNL     1       0.712  -1.094  -3.598  0.00  0.00    +0.263 C 
ENDROOT
BRANCH   1   2
ATOM      2  N   UNL     1      -0.240  -1.150  -4.711  0.00  0.00    -0.154 N 
ATOM      3  N   UNL     1      -0.966  -2.169  -5.021  0.00  0.00    -0.130 NA
ATOM      4  C   UNL     1      -1.691  -1.843  -6.072  0.00  0.00    +0.205 A 
ATOM      5  N   UNL     1      -1.369  -0.580  -6.383  0.00  0.00    -0.108 NA
ATOM      6  N   UNL     1      -0.486  -0.188  -5.530  0.00  0.00    -0.045 NA
BRANCH   4   7
ATOM      7  C   UNL     1      -2.672  -2.708  -6.775  0.00  0.00    +0.023 A 
ATOM      8  C   UNL     1      -2.904  -4.008  -6.327  0.00  0.00    +0.012 A 
ATOM      9  C   UNL     1      -3.817  -4.814  -6.979  0.00  0.00    +0.001 A 
ATOM     10  C   UNL     1      -4.505  -4.340  -8.077  0.00  0.00    +0.015 A 
ATOM     11  C   UNL     1      -4.282  -3.040  -8.535  0.00  0.00    +0.060 A 
ATOM     12  C   UNL     1      -3.365  -2.220  -7.877  0.00  0.00    +0.026 A 
BRANCH  11  13
ATOM     13  C   UNL     1      -5.019  -2.532  -9.711  0.00  0.00    +0.339 C 
ATOM     14  O   UNL     1      -4.823  -1.401 -10.108  0.00  0.00    -0.245 OA
BRANCH  13  15
ATOM     15  O   UNL     1      -5.907  -3.324 -10.343  0.00  0.00    -0.458 OA
BRANCH  15  16
ATOM     16  C   UNL     1      -6.583  -2.768 -11.472  0.00  0.00    +0.171 C 
ATOM     17  C   UNL     1      -5.777  -3.054 -12.741  0.00  0.00    +0.052 C 
ATOM     18  C   UNL     1      -7.971  -3.398 -11.597  0.00  0.00    +0.052 C 
ENDBRANCH  15  16
ENDBRANCH  13  15
ENDBRANCH  11  13
ENDBRANCH   4   7
ENDBRANCH   1   2
BRANCH   1  20
ATOM     19  N   UNL     1       0.688  -0.476  -1.203  0.00  0.00    -0.307 N 
ATOM     20  C   UNL     1       0.006  -0.608  -2.358  0.00  0.00    +0.237 C 
ATOM     21  O   UNL     1      -1.175  -0.336  -2.400  0.00  0.00    -0.274 OA
ATOM     22  H   UNL     1       1.632  -0.695  -1.170  0.00  0.00    +0.149 HD
BRANCH  19  24
ATOM     23  C   UNL     1      -0.019   1.526   0.010  0.00  0.00    +0.033 C 
ATOM     24  C   UNL     1       0.002  -0.004   0.002  0.00  0.00    +0.100 C 
BRANCH  24  25
ATOM     25  C   UNL     1       0.731  -0.503   1.223  0.00  0.00    -0.027 A 
ATOM     26  C   UNL     1       2.125  -0.509   1.236  0.00  0.00    +0.006 A 
ATOM     27  C   UNL     1       2.813  -0.954   2.322  0.00  0.00    +0.009 A 
ATOM     28  C   UNL     1       2.112  -1.414   3.450  0.00  0.00    -0.018 A 
ATOM     29  C   UNL     1       2.789  -1.880   4.590  0.00  0.00    +0.008 A 
ATOM     30  C   UNL     1       2.076  -2.318   5.663  0.00  0.00    +0.001 A 
ATOM     31  C   UNL     1       0.682  -2.312   5.651  0.00  0.00    +0.001 A 
ATOM     32  C   UNL     1      -0.006  -1.867   4.564  0.00  0.00    +0.008 A 
ATOM     33  C   UNL     1       0.695  -1.408   3.437  0.00  0.00    -0.018 A 
ATOM     34  C   UNL     1       0.018  -0.936   2.299  0.00  0.00    +0.014 A 
ENDBRANCH  24  25
ENDBRANCH  19  24
ENDBRANCH   1  20
TORSDOF 8
