REMARK  Name = ZINC04200870
REMARK  10 active torsions:
REMARK  status: ('A' for Active; 'I' for Inactive)
REMARK    1  A    between atoms: C_1  and  S_2
REMARK    2  A    between atoms: S_2  and  C_3
REMARK    3  A    between atoms: C_3  and  C_4
REMARK    4  A    between atoms: C_8  and  N_32
REMARK    5  A    between atoms: C_11  and  C_13
REMARK    6  A    between atoms: N_15  and  C_16
REMARK    7  A    between atoms: C_16  and  C_18
REMARK    8  A    between atoms: C_16  and  C_29
REMARK    9  A    between atoms: C_18  and  C_19
REMARK   10  A    between atoms: N_35  and  C_36
REMARK                            x       y       z     vdW  Elec       q    Type
REMARK                         _______ _______ _______ _____ _____    ______ ____
ROOT
ATOM      1  C   UNL     1       3.043  -0.217   6.243  0.00  0.00    +0.226 C 
ATOM      2  O   UNL     1       3.972   0.002   5.495  0.00  0.00    -0.275 OA
ATOM      3  N   UNL     1       1.829  -0.516   5.739  0.00  0.00    -0.287 N 
ATOM      4  C   UNL     1       0.621  -0.802   6.527  0.00  0.00    +0.131 C 
ATOM      5  C   UNL     1      -0.526  -1.062   5.529  0.00  0.00    +0.094 C 
ATOM      6  C   UNL     1      -0.033  -0.353   4.240  0.00  0.00    +0.055 C 
ATOM      7  C   UNL     1       1.492  -0.611   4.307  0.00  0.00    +0.164 C 
ENDROOT
BRANCH   5   8
ATOM      8  N   UNL     1      -1.775  -0.462   6.006  0.00  0.00    -0.295 N 
ATOM      9  C   UNL     1      -2.625  -1.185   6.760  0.00  0.00    +0.300 C 
ATOM     10  O   UNL     1      -2.357  -2.337   7.045  0.00  0.00    -0.253 OA
ATOM     11  N   UNL     1      -3.774  -0.633   7.199  0.00  0.00    -0.297 N 
ATOM     12  H   UNL     1      -1.989   0.457   5.779  0.00  0.00    +0.151 HD
ATOM     13  H   UNL     1      -3.988   0.285   6.972  0.00  0.00    +0.151 HD
BRANCH  11  14
ATOM     14  C   UNL     1      -4.699  -1.420   8.019  0.00  0.00    +0.074 C 
ATOM     15  C   UNL     1      -5.613  -2.242   7.109  0.00  0.00    +0.022 C 
ATOM     16  C   UNL     1      -6.579  -3.064   7.966  0.00  0.00    +0.002 C 
ATOM     17  C   UNL     1      -7.426  -2.123   8.824  0.00  0.00    +0.000 C 
ATOM     18  C   UNL     1      -6.511  -1.300   9.734  0.00  0.00    +0.002 C 
ATOM     19  C   UNL     1      -5.546  -0.478   8.878  0.00  0.00    +0.022 C 
ENDBRANCH  11  14
ENDBRANCH   5   8
BRANCH   7  20
ATOM     20  C   UNL     1       2.237   0.438   3.522  0.00  0.00    +0.234 C 
ATOM     21  O   UNL     1       2.758   1.370   4.098  0.00  0.00    -0.274 OA
ATOM     22  N   UNL     1       2.325   0.341   2.181  0.00  0.00    -0.302 N 
ATOM     23  H   UNL     1       1.909  -0.405   1.721  0.00  0.00    +0.150 HD
BRANCH  22  24
ATOM     24  C   UNL     1       3.049   1.361   1.418  0.00  0.00    +0.163 C 
BRANCH  24  25
ATOM     25  C   UNL     1       4.517   1.022   1.394  0.00  0.00    +0.231 C 
ATOM     26  O   UNL     1       4.919   0.027   1.959  0.00  0.00    -0.274 OA
ATOM     27  N   UNL     1       5.383   1.825   0.746  0.00  0.00    -0.328 N 
ATOM     28  H   UNL     1       5.062   2.621   0.294  0.00  0.00    +0.145 HD
ATOM     29  H   UNL     1       6.328   1.607   0.730  0.00  0.00    +0.145 HD
ENDBRANCH  24  25
BRANCH  24  30
ATOM     30  C   UNL     1       2.512   1.403  -0.014  0.00  0.00    +0.069 C 
BRANCH  30  31
ATOM     31  C   UNL     1       1.076   1.861   0.002  0.00  0.00    -0.020 A 
ATOM     32  C   UNL     1      -0.013   1.076   0.008  0.00  0.00    +0.087 A 
ATOM     33  N   UNL     1      -1.144   1.846   0.017  0.00  0.00    -0.360 N 
ATOM     34  H   UNL     1      -2.051   1.503   0.019  0.00  0.00    +0.165 HD
ATOM     35  C   UNL     1      -0.802   3.180   0.027  0.00  0.00    +0.047 A 
ATOM     36  C   UNL     1       0.604   3.248   0.014  0.00  0.00    +0.003 A 
ATOM     37  C   UNL     1       1.241   4.490   0.014  0.00  0.00    +0.010 A 
ATOM     38  C   UNL     1       0.495   5.635   0.028  0.00  0.00    +0.001 A 
ATOM     39  C   UNL     1      -0.891   5.573   0.041  0.00  0.00    +0.002 A 
ATOM     40  C   UNL     1      -1.541   4.358   0.040  0.00  0.00    +0.026 A 
ENDBRANCH  30  31
ENDBRANCH  24  30
ENDBRANCH  22  24
ENDBRANCH   7  20
BRANCH   1  41
ATOM     41  C   UNL     1       3.245  -0.153   7.735  0.00  0.00    +0.164 C 
BRANCH  41  43
ATOM     42  C   UNL     1       5.048   0.305   9.906  0.00  0.00    +0.085 C 
ATOM     43  S   UNL     1       4.972   0.269   8.094  0.00  0.00    -0.155 S 
ENDBRANCH  41  43
ENDBRANCH   1  41
TORSDOF 9
