REMARK  Name = ZINC39544802
REMARK  10 active torsions:
REMARK  status: ('A' for Active; 'I' for Inactive)
REMARK    1  A    between atoms: C_1  and  C_2
REMARK    2  A    between atoms: C_2  and  C_3
REMARK    3  A    between atoms: C_2  and  C_4
REMARK    4  A    between atoms: C_4  and  N_5
REMARK    5  A    between atoms: N_5  and  C_6
REMARK    6  A    between atoms: C_11  and  O_12
REMARK    7  A    between atoms: C_13  and  C_15
REMARK    8  A    between atoms: C_18  and  S_29
REMARK    9  A    between atoms: S_29  and  O_32
REMARK   10  A    between atoms: O_32  and  C_33
REMARK                            x       y       z     vdW  Elec       q    Type
REMARK                         _______ _______ _______ _____ _____    ______ ____
ROOT
ATOM      1  C   UNL     1       1.089   1.724  -2.186  0.00  0.00    +0.150 C 
ATOM      2  C   UNL     1       0.363   1.315  -3.482  0.00  0.00    +0.092 C 
ATOM      3  C   UNL     1       0.950   2.226  -4.536  0.00  0.00    +0.142 C 
ATOM      4  C   UNL     1       1.845   3.007  -3.987  0.00  0.00    +0.100 C 
ATOM      5  N   UNL     1       2.579   4.012  -4.643  0.00  0.00    -0.302 N 
ATOM      6  C   UNL     1       2.818   5.165  -3.876  0.00  0.00    +0.037 A 
ATOM      7  C   UNL     1       3.432   6.266  -4.456  0.00  0.00    +0.023 A 
ATOM      8  C   UNL     1       3.676   7.395  -3.699  0.00  0.00    +0.002 A 
ATOM      9  C   UNL     1       3.308   7.423  -2.366  0.00  0.00    +0.000 A 
ATOM     10  C   UNL     1       2.694   6.328  -1.789  0.00  0.00    +0.007 A 
ATOM     11  C   UNL     1       2.440   5.192  -2.541  0.00  0.00    -0.010 A 
ATOM     12  C   UNL     1       1.747   4.025  -1.890  0.00  0.00    +0.124 C 
ATOM     13  N   UNL     1       2.021   2.781  -2.612  0.00  0.00    -0.368 NA
ATOM     14  H   UNL     1       2.895   3.918  -5.555  0.00  0.00    +0.153 HD
ATOM     15  H   UNL     1       2.970   2.490  -2.433  0.00  0.00    +0.129 HD
ENDROOT
BRANCH   1  17
ATOM     16  N   UNL     1       1.231  -0.293  -0.762  0.00  0.00    -0.267 N 
ATOM     17  C   UNL     1       1.845   0.554  -1.612  0.00  0.00    +0.239 C 
ATOM     18  O   UNL     1       3.006   0.374  -1.915  0.00  0.00    -0.273 OA
BRANCH  16  19
ATOM     19  C   UNL     1       1.896  -1.444  -0.319  0.00  0.00    +0.078 A 
ATOM     20  C   UNL     1       1.788  -2.629  -1.033  0.00  0.00    +0.027 A 
ATOM     21  C   UNL     1       2.445  -3.763  -0.594  0.00  0.00    +0.002 A 
ATOM     22  C   UNL     1       3.210  -3.721   0.557  0.00  0.00    +0.004 A 
ATOM     23  C   UNL     1       3.322  -2.544   1.275  0.00  0.00    +0.047 A 
ATOM     24  C   UNL     1       2.672  -1.401   0.838  0.00  0.00    +0.138 A 
BRANCH  24  25
ATOM     25  O   UNL     1       2.786  -0.242   1.539  0.00  0.00    -0.505 OA
ATOM     26  H   UNL     1       2.113  -0.129   2.224  0.00  0.00    +0.292 HD
ENDBRANCH  24  25
ENDBRANCH  16  19
BRANCH  16  27
ATOM     27  C   UNL     1      -0.130  -0.011  -0.302  0.00  0.00    +0.116 C 
BRANCH  27  29
ATOM     28  C   UNL     1       0.667   2.002   0.946  0.00  0.00    +0.009 C 
ATOM     29  C   UNL     1      -0.075   0.669   1.068  0.00  0.00    +0.001 C 
ATOM     30  C   UNL     1      -1.498   0.921   1.570  0.00  0.00    +0.009 C 
ENDBRANCH  27  29
ENDBRANCH  16  27
ENDBRANCH   1  17
BRANCH   3  31
ATOM     31  S   UNL     1       0.500   2.234  -6.240  0.00  0.00    +0.150 S 
ATOM     32  O   UNL     1      -0.914   2.097  -6.287  0.00  0.00    -0.132 OA
ATOM     33  O   UNL     1       1.179   3.332  -6.834  0.00  0.00    -0.132 OA
BRANCH  31  34
ATOM     34  O   UNL     1       1.080   0.974  -6.865  0.00  0.00    -0.342 OA
BRANCH  34  35
ATOM     35  C   UNL     1       2.421   1.031  -7.081  0.00  0.00    +0.157 A 
ATOM     36  C   UNL     1       2.912   1.573  -8.259  0.00  0.00    +0.048 A 
ATOM     37  C   UNL     1       4.275   1.630  -8.477  0.00  0.00    +0.004 A 
ATOM     38  C   UNL     1       5.149   1.147  -7.521  0.00  0.00    +0.000 A 
ATOM     39  C   UNL     1       4.662   0.606  -6.345  0.00  0.00    +0.004 A 
ATOM     40  C   UNL     1       3.300   0.552  -6.121  0.00  0.00    +0.048 A 
ENDBRANCH  34  35
ENDBRANCH  31  34
ENDBRANCH   3  31
TORSDOF 8
