REMARK  Name = ZINC06177969
REMARK  11 active torsions:
REMARK  status: ('A' for Active; 'I' for Inactive)
REMARK    1  A    between atoms: C_1  and  C_2
REMARK    2  A    between atoms: C_4  and  C_42
REMARK    3  A    between atoms: C_9  and  C_14
REMARK    4  A    between atoms: C_14  and  C_16
REMARK    5  A    between atoms: C_14  and  N_28
REMARK    6  A    between atoms: N_20  and  C_21
REMARK    7  A    between atoms: C_21  and  C_22
REMARK    8  A    between atoms: N_28  and  C_29
REMARK    9  A    between atoms: N_28  and  C_36
REMARK   10  A    between atoms: C_29  and  C_30
REMARK   11  A    between atoms: C_36  and  C_37
REMARK                            x       y       z     vdW  Elec       q    Type
REMARK                         _______ _______ _______ _____ _____    ______ ____
ROOT
ATOM      1  C   UNL     1       0.681  -5.221   3.582  0.00  0.00    +0.040 C 
ENDROOT
BRANCH   1  10
ATOM      2  C   UNL     1       2.176   1.815   1.615  0.00  0.00    +0.044 C 
ATOM      3  C   UNL     1       1.806   0.400   1.253  0.00  0.00    -0.050 A 
ATOM      4  C   UNL     1       1.605   0.060  -0.078  0.00  0.00    +0.008 A 
ATOM      5  C   UNL     1       1.267  -1.228  -0.432  0.00  0.00    -0.026 A 
ATOM      6  C   UNL     1       1.125  -2.200   0.554  0.00  0.00    +0.052 A 
ATOM      7  C   UNL     1       1.330  -1.852   1.902  0.00  0.00    -0.001 A 
ATOM      8  C   UNL     1       1.678  -0.539   2.237  0.00  0.00    +0.013 A 
ATOM      9  C   UNL     1       1.179  -2.881   2.932  0.00  0.00    +0.017 A 
ATOM     10  C   UNL     1       0.845  -4.138   2.547  0.00  0.00    +0.011 A 
ATOM     11  C   UNL     1       0.651  -4.435   1.181  0.00  0.00    +0.251 A 
ATOM     12  O   UNL     1       0.352  -5.572   0.857  0.00  0.00    -0.268 OA
ATOM     13  N   UNL     1       0.788  -3.497   0.229  0.00  0.00    -0.322 N 
ATOM     14  H   UNL     1       0.647  -3.735  -0.701  0.00  0.00    +0.169 HD
ATOM     15  C   UNL     1       1.051  -1.583  -1.880  0.00  0.00    +0.046 C 
ENDBRANCH   1  10
BRANCH   1  16
ATOM     16  C   UNL     1      -0.754  -5.680   3.607  0.00  0.00    +0.143 A 
ATOM     17  N   UNL     1      -1.316  -6.537   2.789  0.00  0.00    -0.115 NA
ATOM     18  N   UNL     1      -2.550  -6.665   3.135  0.00  0.00    -0.023 NA
ATOM     19  N   UNL     1      -2.791  -5.913   4.152  0.00  0.00    -0.044 NA
ATOM     20  N   UNL     1      -1.706  -5.293   4.476  0.00  0.00    -0.228 N 
BRANCH  20  21
ATOM     21  C   UNL     1      -1.543  -4.344   5.580  0.00  0.00    +0.178 C 
BRANCH  21  22
ATOM     22  C   UNL     1      -2.027  -2.961   5.139  0.00  0.00    +0.140 C 
ATOM     23  C   UNL     1      -1.948  -1.962   6.320  0.00  0.00    +0.035 C 
ATOM     24  C   UNL     1      -1.833  -0.613   5.559  0.00  0.00    +0.031 C 
ATOM     25  C   UNL     1      -1.012  -1.009   4.313  0.00  0.00    +0.160 C 
ATOM     26  O   UNL     1      -1.153  -2.425   4.132  0.00  0.00    -0.375 OA
ENDBRANCH  21  22
ENDBRANCH  20  21
ENDBRANCH   1  16
BRANCH   1  27
ATOM     27  N   UNL     1       1.552  -6.356   3.245  0.00  0.00    +0.397 N 
ATOM     28  H   UNL     1       1.273  -6.741   2.355  0.00  0.00    -0.079 HD
BRANCH  27  29
ATOM     29  C   UNL     1       1.435  -7.388   4.284  0.00  0.00    -0.039 C 
BRANCH  29  30
ATOM     30  C   UNL     1       1.767  -6.790   5.626  0.00  0.00    -0.046 A 
ATOM     31  C   UNL     1       3.085  -6.702   6.050  0.00  0.00    +0.005 A 
ATOM     32  C   UNL     1       3.344  -6.145   7.292  0.00  0.00    +0.020 A 
ATOM     33  C   UNL     1       2.287  -5.697   8.062  0.00  0.00    +0.111 A 
ATOM     34  N   UNL     1       1.046  -5.796   7.628  0.00  0.00    -0.263 NA
ATOM     35  C   UNL     1       0.763  -6.315   6.449  0.00  0.00    +0.112 A 
ENDBRANCH  29  30
ENDBRANCH  27  29
BRANCH  27  36
ATOM     36  C   UNL     1       2.945  -5.897   3.165  0.00  0.00    -0.001 C 
BRANCH  36  37
ATOM     37  C   UNL     1       3.816  -7.021   2.666  0.00  0.00    +0.089 A 
ATOM     38  C   UNL     1       4.173  -7.230   1.386  0.00  0.00    +0.042 A 
ATOM     39  C   UNL     1       4.987  -8.386   1.371  0.00  0.00    +0.041 A 
ATOM     40  C   UNL     1       5.079  -8.814   2.643  0.00  0.00    +0.195 A 
ATOM     41  O   UNL     1       4.372  -7.980   3.423  0.00  0.00    -0.470 OA
ENDBRANCH  36  37
ENDBRANCH  27  36
ENDBRANCH   1  27
TORSDOF 9
