REMARK  Name = ZINC00952135
REMARK  11 active torsions:
REMARK  status: ('A' for Active; 'I' for Inactive)
REMARK    1  A    between atoms: C_1  and  C_2
REMARK    2  A    between atoms: C_9  and  N_24
REMARK    3  A    between atoms: C_10  and  C_13
REMARK    4  A    between atoms: N_14  and  C_15
REMARK    5  A    between atoms: C_15  and  C_16
REMARK    6  A    between atoms: C_19  and  O_22
REMARK    7  A    between atoms: O_22  and  C_23
REMARK    8  A    between atoms: N_24  and  C_25
REMARK    9  A    between atoms: C_25  and  C_26
REMARK   10  A    between atoms: C_29  and  O_32
REMARK   11  A    between atoms: O_32  and  C_33
REMARK                            x       y       z     vdW  Elec       q    Type
REMARK                         _______ _______ _______ _____ _____    ______ ____
ROOT
ATOM      1  C   UNL     1      -0.041   1.503   0.011  0.00  0.00    +0.047 C 
ATOM      2  C   UNL     1      -0.006  -0.004   0.002  0.00  0.00    -0.007 A 
ATOM      3  C   UNL     1       0.009  -0.683  -1.179  0.00  0.00    +0.008 A 
ATOM      4  C   UNL     1       0.041  -2.084  -1.170  0.00  0.00    +0.019 A 
ATOM      5  C   UNL     1       0.057  -2.755   0.003  0.00  0.00    +0.096 A 
ATOM      6  N   UNL     1       0.043  -2.085   1.190  0.00  0.00    -0.267 N 
ATOM      7  C   UNL     1       0.017  -0.719   1.214  0.00  0.00    +0.145 A 
ATOM      8  N   UNL     1       0.008  -0.046   2.365  0.00  0.00    -0.214 NA
ATOM      9  C   UNL     1       0.029  -0.671   3.534  0.00  0.00    +0.135 A 
ATOM     10  C   UNL     1       0.062  -2.082   3.570  0.00  0.00    +0.095 A 
ATOM     11  C   UNL     1       0.060  -2.785   2.345  0.00  0.00    +0.269 A 
ATOM     12  O   UNL     1       0.088  -4.004   2.330  0.00  0.00    -0.266 OA
ENDROOT
BRANCH  10  13
ATOM     13  C   UNL     1       0.086  -2.800   4.846  0.00  0.00    +0.095 C 
ATOM     14  N   UNL     1       0.006  -4.097   4.863  0.00  0.00    -0.386 N 
ATOM     15  H   UNL     1       0.005  -4.594   4.030  0.00  0.00    +0.159 HD
BRANCH  14  16
ATOM     16  C   UNL     1      -0.082  -4.808   6.141  0.00  0.00    +0.147 C 
BRANCH  16  17
ATOM     17  C   UNL     1      -1.419  -5.496   6.242  0.00  0.00    -0.028 A 
ATOM     18  C   UNL     1      -2.498  -4.832   6.795  0.00  0.00    +0.009 A 
ATOM     19  C   UNL     1      -3.724  -5.461   6.888  0.00  0.00    +0.046 A 
ATOM     20  C   UNL     1      -3.872  -6.761   6.426  0.00  0.00    +0.120 A 
ATOM     21  C   UNL     1      -2.788  -7.425   5.872  0.00  0.00    +0.046 A 
ATOM     22  C   UNL     1      -1.565  -6.790   5.775  0.00  0.00    +0.009 A 
BRANCH  20  23
ATOM     23  O   UNL     1      -5.077  -7.382   6.518  0.00  0.00    -0.495 OA
ATOM     24  C   UNL     1      -5.157  -8.720   6.022  0.00  0.00    +0.277 C 
ENDBRANCH  20  23
ENDBRANCH  16  17
ENDBRANCH  14  16
ENDBRANCH  10  13
BRANCH   9  25
ATOM     25  N   UNL     1       0.020   0.051   4.707  0.00  0.00    -0.324 N 
ATOM     26  H   UNL     1       0.035  -0.409   5.561  0.00  0.00    +0.148 HD
BRANCH  25  27
ATOM     27  C   UNL     1      -0.014   1.516   4.665  0.00  0.00    +0.138 C 
BRANCH  27  28
ATOM     28  C   UNL     1      -0.018   2.059   6.071  0.00  0.00    -0.030 A 
ATOM     29  C   UNL     1      -1.217   2.275   6.723  0.00  0.00    +0.009 A 
ATOM     30  C   UNL     1      -1.224   2.773   8.012  0.00  0.00    +0.046 A 
ATOM     31  C   UNL     1      -0.025   3.056   8.651  0.00  0.00    +0.120 A 
ATOM     32  C   UNL     1       1.177   2.838   7.994  0.00  0.00    +0.046 A 
ATOM     33  C   UNL     1       1.178   2.335   6.707  0.00  0.00    +0.009 A 
BRANCH  31  34
ATOM     34  O   UNL     1      -0.029   3.547   9.918  0.00  0.00    -0.495 OA
ATOM     35  C   UNL     1       1.242   3.815  10.514  0.00  0.00    +0.277 C 
ENDBRANCH  31  34
ENDBRANCH  27  28
ENDBRANCH  25  27
ENDBRANCH   9  25
TORSDOF 8
