REMARK  Name = ZINC38704901
REMARK  12 active torsions:
REMARK  status: ('A' for Active; 'I' for Inactive)
REMARK    1  A    between atoms: C_1  and  C_2
REMARK    2  A    between atoms: C_2  and  O_3
REMARK    3  A    between atoms: O_3  and  C_4
REMARK    4  A    between atoms: C_7  and  C_12
REMARK    5  A    between atoms: C_9  and  O_10
REMARK    6  A    between atoms: O_10  and  C_11
REMARK    7  A    between atoms: C_15  and  C_31
REMARK    8  A    between atoms: N_22  and  C_23
REMARK    9  A    between atoms: C_23  and  C_24
REMARK   10  A    between atoms: C_32  and  C_39
REMARK   11  A    between atoms: C_34  and  C_38
REMARK   12  A    between atoms: C_36  and  O_37
REMARK                            x       y       z     vdW  Elec       q    Type
REMARK                         _______ _______ _______ _____ _____    ______ ____
ROOT
ATOM      1  C   UNL     1       1.079  -5.737  -1.601  0.00  0.00    +0.142 C 
ATOM      2  C   UNL     1       2.268  -6.412  -0.974  0.00  0.00    +0.035 A 
ATOM      3  C   UNL     1       3.661  -6.512  -0.894  0.00  0.00    +0.102 A 
ATOM      4  N   UNL     1       3.939  -7.449  -0.009  0.00  0.00    -0.173 NA
ATOM      5  N   UNL     1       2.860  -7.950   0.478  0.00  0.00    -0.272 N 
ATOM      6  H   UNL     1       2.824  -8.653   1.145  0.00  0.00    +0.189 HD
ATOM      7  C   UNL     1       1.772  -7.345  -0.084  0.00  0.00    +0.126 A 
ATOM      8  C   UNL     1       0.306  -7.290  -0.119  0.00  0.00    +0.266 C 
ATOM      9  O   UNL     1      -0.431  -7.988   0.550  0.00  0.00    -0.268 OA
ATOM     10  N   UNL     1      -0.108  -6.359  -0.999  0.00  0.00    -0.281 N 
ENDROOT
BRANCH   3  11
ATOM     11  C   UNL     1       4.645  -5.712  -1.664  0.00  0.00    +0.047 A 
ATOM     12  C   UNL     1       5.720  -5.111  -1.014  0.00  0.00    -0.037 A 
ATOM     13  C   UNL     1       6.633  -4.367  -1.735  0.00  0.00    +0.007 A 
ATOM     14  C   UNL     1       6.484  -4.216  -3.102  0.00  0.00    -0.047 A 
ATOM     15  C   UNL     1       5.420  -4.808  -3.757  0.00  0.00    +0.049 A 
ATOM     16  C   UNL     1       4.500  -5.562  -3.046  0.00  0.00    +0.127 A 
ATOM     17  C   UNL     1       7.485  -3.402  -3.881  0.00  0.00    +0.044 C 
ATOM     18  C   UNL     1       5.887  -5.272   0.475  0.00  0.00    +0.044 C 
BRANCH  16  19
ATOM     19  O   UNL     1       3.458  -6.149  -3.690  0.00  0.00    -0.506 OA
ATOM     20  H   UNL     1       2.690  -5.573  -3.802  0.00  0.00    +0.292 HD
ENDBRANCH  16  19
ENDBRANCH   3  11
BRANCH   1  24
ATOM     21  C   UNL     1       1.141  -1.549  -0.734  0.00  0.00    +0.162 A 
ATOM     22  C   UNL     1       0.860  -2.463   0.269  0.00  0.00    +0.050 A 
ATOM     23  C   UNL     1       0.840  -3.816  -0.015  0.00  0.00    +0.009 A 
ATOM     24  C   UNL     1       1.101  -4.261  -1.297  0.00  0.00    -0.019 A 
ATOM     25  C   UNL     1       1.383  -3.354  -2.302  0.00  0.00    +0.055 A 
ATOM     26  C   UNL     1       1.398  -1.996  -2.026  0.00  0.00    +0.162 A 
BRANCH  26  27
ATOM     27  O   UNL     1       1.669  -1.103  -3.015  0.00  0.00    -0.491 OA
ATOM     28  C   UNL     1       1.923  -1.634  -4.317  0.00  0.00    +0.277 C 
ENDBRANCH  26  27
BRANCH  21  29
ATOM     29  O   UNL     1       1.160  -0.218  -0.457  0.00  0.00    -0.489 OA
BRANCH  29  31
ATOM     30  C   UNL     1       0.953   1.692   1.009  0.00  0.00    +0.048 C 
ATOM     31  C   UNL     1       0.887   0.168   0.891  0.00  0.00    +0.226 C 
ENDBRANCH  29  31
ENDBRANCH  21  29
ENDBRANCH   1  24
BRANCH  10  32
ATOM     32  C   UNL     1      -1.500  -6.022  -1.304  0.00  0.00    +0.144 C 
BRANCH  32  33
ATOM     33  C   UNL     1      -1.989  -6.884  -2.440  0.00  0.00    -0.030 A 
ATOM     34  C   UNL     1      -1.836  -6.457  -3.746  0.00  0.00    +0.008 A 
ATOM     35  C   UNL     1      -2.283  -7.246  -4.788  0.00  0.00    +0.038 A 
ATOM     36  C   UNL     1      -2.884  -8.465  -4.524  0.00  0.00    +0.123 A 
ATOM     37  C   UNL     1      -3.036  -8.892  -3.216  0.00  0.00    +0.038 A 
ATOM     38  C   UNL     1      -2.583  -8.103  -2.175  0.00  0.00    +0.008 A 
ATOM     39  F   UNL     1      -3.322  -9.238  -5.542  0.00  0.00    -0.205 F 
ENDBRANCH  32  33
ENDBRANCH  10  32
TORSDOF 8
