REMARK  Name = ZINC42028423
REMARK  5 active torsions:
REMARK  status: ('A' for Active; 'I' for Inactive)
REMARK    1  A    between atoms: C_1  and  C_2
REMARK    2  A    between atoms: C_2  and  C_4
REMARK    3  A    between atoms: C_2  and  N_7
REMARK    4  A    between atoms: C_8  and  C_12
REMARK    5  A    between atoms: C_14  and  N_20
REMARK                            x       y       z     vdW  Elec       q    Type
REMARK                         _______ _______ _______ _____ _____    ______ ____
ROOT
ATOM      1  C   UNL     1      -1.123  -1.976  -2.147  0.00  0.00    +0.024 A 
ATOM      2  C   UNL     1      -2.164  -1.435  -1.394  0.00  0.00    +0.036 A 
ATOM      3  C   UNL     1      -3.410  -2.043  -1.404  0.00  0.00    +0.045 A 
ATOM      4  C   UNL     1      -3.618  -3.189  -2.163  0.00  0.00    +0.080 A 
ATOM      5  C   UNL     1      -2.584  -3.726  -2.910  0.00  0.00    +0.062 A 
ATOM      6  C   UNL     1      -1.341  -3.122  -2.910  0.00  0.00    +0.033 A 
ATOM      7 CL   UNL     1      -2.851  -5.157  -3.855  0.00  0.00    -0.082 Cl
ATOM      8 CL   UNL     1      -5.179  -3.949  -2.174  0.00  0.00    -0.080 Cl
ENDROOT
BRANCH   1  10
ATOM      9  N   UNL     1       0.766  -0.639  -1.117  0.00  0.00    -0.222 N 
ATOM     10  C   UNL     1       0.209  -1.331  -2.142  0.00  0.00    +0.182 A 
ATOM     11  N   UNL     1       1.078  -1.321  -3.131  0.00  0.00    -0.108 NA
ATOM     12  N   UNL     1       2.135  -0.673  -2.794  0.00  0.00    -0.023 NA
ATOM     13  N   UNL     1       2.022  -0.223  -1.592  0.00  0.00    -0.043 NA
BRANCH   9  15
ATOM     14  C   UNL     1      -0.138   1.114   0.330  0.00  0.00    +0.033 C 
ATOM     15  C   UNL     1       0.182  -0.377   0.201  0.00  0.00    +0.111 C 
BRANCH  15  16
ATOM     16  C   UNL     1       1.177  -0.781   1.290  0.00  0.00    +0.013 C 
ATOM     17  C   UNL     1       0.824  -1.993   2.155  0.00  0.00    +0.006 C 
ATOM     18  C   UNL     1       0.750  -0.583   2.746  0.00  0.00    +0.006 C 
ENDBRANCH  15  16
ENDBRANCH   9  15
ENDBRANCH   1  10
BRANCH   3  19
ATOM     19  N   UNL     1      -4.456  -1.504  -0.650  0.00  0.00    -0.357 N 
ATOM     20  H   UNL     1      -4.311  -0.705  -0.120  0.00  0.00    +0.142 HD
ATOM     21  H   UNL     1      -5.328  -1.929  -0.657  0.00  0.00    +0.142 HD
ENDBRANCH   3  19
TORSDOF 4
