REMARK  Name = ZINC22194423
REMARK  6 active torsions:
REMARK  status: ('A' for Active; 'I' for Inactive)
REMARK    1  A    between atoms: C_1  and  C_2
REMARK    2  A    between atoms: C_5  and  C_21
REMARK    3  A    between atoms: C_6  and  O_8
REMARK    4  A    between atoms: O_8  and  C_9
REMARK    5  A    between atoms: C_9  and  C_10
REMARK    6  A    between atoms: C_13  and  C_15
REMARK                            x       y       z     vdW  Elec       q    Type
REMARK                         _______ _______ _______ _____ _____    ______ ____
ROOT
ATOM      1  O   UNL     1       0.002  -0.004   0.002  0.00  0.00    -0.485 OA
ENDROOT
BRANCH   1   7
ATOM      2  C   UNL     1       2.450   4.214   0.001  0.00  0.00    +0.044 C 
ATOM      3  C   UNL     1       1.153   3.446   0.009  0.00  0.00    -0.047 A 
ATOM      4  C   UNL     1      -0.052   4.129   0.023  0.00  0.00    +0.004 A 
ATOM      5  C   UNL     1      -1.243   3.437   0.031  0.00  0.00    +0.017 A 
ATOM      6  C   UNL     1      -1.238   2.040   0.019  0.00  0.00    +0.078 A 
ATOM      7  C   UNL     1      -0.016   1.352   0.009  0.00  0.00    +0.133 A 
ATOM      8  C   UNL     1       1.173   2.065   0.002  0.00  0.00    +0.049 A 
BRANCH   6   9
ATOM      9  C   UNL     1      -2.510   1.292   0.021  0.00  0.00    +0.245 C 
ATOM     10  O   UNL     1      -2.500   0.076   0.015  0.00  0.00    -0.270 OA
ATOM     11  N   UNL     1      -3.682   1.957   0.030  0.00  0.00    -0.325 N 
ATOM     12  H   UNL     1      -4.630   1.400   0.032  0.00  0.00    +0.145 HD
ATOM     13  H   UNL     1      -3.690   3.057   0.036  0.00  0.00    +0.145 HD
ENDBRANCH   6   9
ENDBRANCH   1   7
BRANCH   1  14
ATOM     14  C   UNL     1       1.284  -0.635  -0.014  0.00  0.00    +0.287 C 
BRANCH  14  15
ATOM     15  C   UNL     1       1.107  -2.132  -0.020  0.00  0.00    +0.117 A 
ATOM     16  C   UNL     1      -0.066  -2.791  -0.007  0.00  0.00    +0.224 A 
ATOM     17  O   UNL     1       0.215  -4.109  -0.021  0.00  0.00    -0.443 OA
ATOM     18  C   UNL     1       1.553  -4.241  -0.035  0.00  0.00    +0.227 A 
ATOM     19  N   UNL     1       2.091  -3.044  -0.034  0.00  0.00    -0.211 NA
BRANCH  18  20
ATOM     20  C   UNL     1       2.294  -5.520  -0.049  0.00  0.00    +0.037 A 
ATOM     21  C   UNL     1       3.690  -5.521  -0.069  0.00  0.00    +0.013 A 
ATOM     22  C   UNL     1       4.375  -6.718  -0.076  0.00  0.00    +0.001 A 
ATOM     23  C   UNL     1       3.682  -7.916  -0.076  0.00  0.00    +0.000 A 
ATOM     24  C   UNL     1       2.299  -7.922  -0.061  0.00  0.00    +0.001 A 
ATOM     25  C   UNL     1       1.601  -6.732  -0.048  0.00  0.00    +0.013 A 
ENDBRANCH  18  20
ENDBRANCH  14  15
ENDBRANCH   1  14
TORSDOF 5
