REMARK  Name = ZINC42893852
REMARK  16 active torsions:
REMARK  status: ('A' for Active; 'I' for Inactive)
REMARK    1  A    between atoms: C_1  and  C_2
REMARK    2  A    between atoms: C_2  and  C_3
REMARK    3  A    between atoms: C_2  and  N_4
REMARK    4  A    between atoms: N_4  and  C_5
REMARK    5  A    between atoms: N_4  and  C_27
REMARK    6  A    between atoms: C_5  and  C_6
REMARK    7  A    between atoms: C_6  and  N_7
REMARK    8  A    between atoms: N_10  and  C_11
REMARK    9  A    between atoms: C_11  and  C_13
REMARK   10  A    between atoms: C_11  and  C_15
REMARK   11  A    between atoms: C_13  and  O_14
REMARK   12  A    between atoms: C_15  and  C_17
REMARK   13  A    between atoms: C_15  and  O_26
REMARK   14  A    between atoms: C_20  and  N_23
REMARK   15  A    between atoms: C_27  and  C_28
REMARK   16  A    between atoms: C_27  and  C_29
REMARK                            x       y       z     vdW  Elec       q    Type
REMARK                         _______ _______ _______ _____ _____    ______ ____
ROOT
ATOM      1  N   UNK A   0      -4.301   0.670  -2.126  0.00  0.00    -0.301 N 
ATOM      2  C   UNK A   0      -5.332   1.462  -1.768  0.00  0.00    +0.300 C 
ATOM      3  O   UNK A   0      -5.663   1.538  -0.601  0.00  0.00    -0.253 OA
ATOM      4  N   UNK A   1      -5.995   2.169  -2.705  0.00  0.00    -0.292 N 
ATOM      5  H   UNK A   0      -4.037   0.609  -3.057  0.00  0.00    +0.150 HD
ATOM      6  H   UNK A   1      -5.730   2.108  -3.636  0.00  0.00    +0.151 HD
ENDROOT
BRANCH   1   7
ATOM      7  C   UNK A   0      -3.581  -0.098  -1.107  0.00  0.00    +0.087 C 
BRANCH   7   8
ATOM      8  C   UNK A   0      -2.466  -0.908  -1.773  0.00  0.00    -0.059 C 
BRANCH   8   9
ATOM      9  N   UNK A   0      -1.770  -1.710  -0.758  0.00  0.00    +0.384 N 
ATOM     10  H   UNK A   0      -1.445  -1.106  -0.018  0.00  0.00    -0.081 HD
BRANCH   9  12
ATOM     11  C   UNK A   0       0.321  -1.352  -1.982  0.00  0.00    -0.014 C 
ATOM     12  C   UNK A   0      -0.624  -2.391  -1.374  0.00  0.00    -0.074 C 
ATOM     13  C   UNK A   0       0.122  -3.198  -0.309  0.00  0.00    -0.014 C 
ENDBRANCH   9  12
BRANCH   9  14
ATOM     14  C   UNK A   0      -2.694  -2.709  -0.205  0.00  0.00    -0.074 C 
ATOM     15  C   UNK A   0      -2.723  -3.937  -1.117  0.00  0.00    -0.014 C 
ATOM     16  C   UNK A   0      -2.224  -3.121   1.191  0.00  0.00    -0.014 C 
ENDBRANCH   9  14
ENDBRANCH   8   9
ENDBRANCH   7   8
ENDBRANCH   1   7
BRANCH   4  17
ATOM     17  C   UNK A   1      -7.115   3.030  -2.317  0.00  0.00    +0.133 C 
BRANCH  17  18
ATOM     18  C   UNK A   1      -6.581   4.394  -1.875  0.00  0.00    +0.181 C 
BRANCH  18  19
ATOM     19  O   UNK A   1      -5.977   5.053  -2.991  0.00  0.00    -0.393 OA
ATOM     20  H   UNK A   1      -5.616   5.925  -2.784  0.00  0.00    +0.209 HD
ENDBRANCH  18  19
ENDBRANCH  17  18
BRANCH  17  21
ATOM     21  C   UNK A   1      -8.055   3.212  -3.510  0.00  0.00    +0.167 C 
BRANCH  21  22
ATOM     22  C   UNK A   1      -8.640   1.878  -3.897  0.00  0.00    -0.017 A 
ATOM     23  C   UNK A   1      -9.769   1.405  -3.255  0.00  0.00    +0.008 A 
ATOM     24  C   UNK A   1     -10.305   0.182  -3.610  0.00  0.00    +0.033 A 
ATOM     25  C   UNK A   1      -9.712  -0.569  -4.608  0.00  0.00    +0.126 A 
ATOM     26  C   UNK A   1      -8.583  -0.096  -5.251  0.00  0.00    +0.033 A 
ATOM     27  C   UNK A   1      -8.050   1.129  -4.898  0.00  0.00    +0.008 A 
BRANCH  25  28
ATOM     28  N   UNK A   1     -10.285  -1.880  -4.988  0.00  0.00    +0.056 N 
ATOM     29  O   UNK A   1     -11.272  -2.294  -4.425  0.00  0.00    -0.126 OA
ATOM     30  O   UNK A   1      -9.767  -2.537  -5.860  0.00  0.00    -0.126 OA
ENDBRANCH  25  28
ENDBRANCH  21  22
BRANCH  21  31
ATOM     31  O   UNK A   1      -9.110   4.108  -3.152  0.00  0.00    -0.385 OA
ATOM     32  H   UNK A   1      -9.590   3.852  -2.353  0.00  0.00    +0.210 HD
ENDBRANCH  21  31
ENDBRANCH  17  21
ENDBRANCH   4  17
TORSDOF 12
