REMARK  Name = ZINC63384368
REMARK  6 active torsions:
REMARK  status: ('A' for Active; 'I' for Inactive)
REMARK    1  A    between atoms: C_1  and  C_2
REMARK    2  A    between atoms: C_2  and  N_3
REMARK    3  A    between atoms: C_16  and  C_18
REMARK    4  A    between atoms: N_24  and  C_27
REMARK    5  A    between atoms: C_30  and  C_34
REMARK    6  A    between atoms: C_31  and  C_33
REMARK                            x       y       z     vdW  Elec       q    Type
REMARK                         _______ _______ _______ _____ _____    ______ ____
ROOT
ATOM      1  C   UNL     1       1.615  -2.959   0.336  0.00  0.00    +0.071 A 
ATOM      2  H   UNL     1       4.130  -1.982  -1.456  0.00  0.00    +0.173 HD
ATOM      3  C   UNL     1       2.770  -2.305   0.025  0.00  0.00    +0.259 A 
ATOM      4  N   UNL     1       3.308  -2.445  -1.229  0.00  0.00    -0.274 N 
ATOM      5  C   UNL     1       2.704  -3.222  -2.147  0.00  0.00    +0.337 A 
ATOM      6  O   UNL     1       3.196  -3.335  -3.254  0.00  0.00    -0.246 OA
ATOM      7  N   UNL     1       1.564  -3.876  -1.859  0.00  0.00    -0.229 N 
ATOM      8  C   UNL     1       1.005  -3.770  -0.637  0.00  0.00    +0.266 A 
ATOM      9  O   UNL     1      -0.025  -4.369  -0.379  0.00  0.00    -0.267 OA
ATOM     10  O   UNL     1       3.378  -1.524   0.943  0.00  0.00    -0.267 OA
ENDROOT
BRANCH   1  23
ATOM     11  N   UNL     1       0.606  -1.423   1.934  0.00  0.00    +0.386 N 
ATOM     12  C   UNL     1       1.702  -0.489   1.663  0.00  0.00    -0.073 C 
ATOM     13  C   UNL     1       2.840  -0.690   2.680  0.00  0.00    +0.015 C 
ATOM     14  C   UNL     1       3.148  -2.167   2.676  0.00  0.00    -0.041 C 
ATOM     15  C   UNL     1       4.281  -2.845   2.578  0.00  0.00    -0.001 A 
ATOM     16  C   UNL     1       5.688  -2.413   2.578  0.00  0.00    +0.010 A 
ATOM     17  C   UNL     1       6.617  -3.394   2.428  0.00  0.00    +0.001 A 
ATOM     18  C   UNL     1       6.291  -4.747   2.281  0.00  0.00    +0.002 A 
ATOM     19  C   UNL     1       5.025  -5.234   2.281  0.00  0.00    +0.026 A 
ATOM     20  C   UNL     1       3.962  -4.300   2.442  0.00  0.00    +0.043 A 
ATOM     21  N   UNL     1       2.676  -4.492   2.509  0.00  0.00    -0.379 N 
ATOM     22  C   UNL     1       2.034  -3.206   2.771  0.00  0.00    +0.097 C 
ATOM     23  C   UNL     1       1.005  -2.821   1.707  0.00  0.00    -0.000 C 
ATOM     24  H   UNL     1       2.222  -5.342   2.402  0.00  0.00    +0.160 HD
ATOM     25  H   UNL     1       0.315  -1.316   2.894  0.00  0.00    -0.081 HD
BRANCH  11  27
ATOM     26  C   UNL     1      -1.029   0.309   1.367  0.00  0.00    -0.017 C 
ATOM     27  C   UNL     1      -0.525  -1.101   1.054  0.00  0.00    -0.081 C 
ENDBRANCH  11  27
ENDBRANCH   1  23
BRANCH   7  28
ATOM     28  C   UNL     1       0.957  -4.678  -2.834  0.00  0.00    +0.055 A 
ATOM     29  C   UNL     1       0.017  -4.131  -3.698  0.00  0.00    +0.027 A 
ATOM     30  C   UNL     1      -0.580  -4.925  -4.658  0.00  0.00    +0.005 A 
ATOM     31  C   UNL     1      -0.243  -6.262  -4.759  0.00  0.00    -0.047 A 
ATOM     32  C   UNL     1       0.692  -6.809  -3.901  0.00  0.00    -0.046 A 
ATOM     33  C   UNL     1       1.297  -6.020  -2.942  0.00  0.00    +0.030 A 
ATOM     34  C   UNL     1       1.056  -8.267  -4.014  0.00  0.00    +0.044 C 
ATOM     35  C   UNL     1      -0.897  -7.125  -5.808  0.00  0.00    +0.044 C 
ENDBRANCH   7  28
TORSDOF 3
