REMARK  Name = ZINC15316064
REMARK  9 active torsions:
REMARK  status: ('A' for Active; 'I' for Inactive)
REMARK    1  A    between atoms: C_1  and  C_2
REMARK    2  A    between atoms: C_2  and  C_4
REMARK    3  A    between atoms: C_2  and  N_14
REMARK    4  A    between atoms: C_15  and  C_17
REMARK    5  A    between atoms: C_17  and  N_18
REMARK    6  A    between atoms: C_21  and  C_25
REMARK    7  A    between atoms: C_21  and  C_26
REMARK    8  A    between atoms: C_29  and  O_32
REMARK    9  A    between atoms: O_32  and  C_33
REMARK                            x       y       z     vdW  Elec       q    Type
REMARK                         _______ _______ _______ _____ _____    ______ ____
ROOT
ATOM      1  C   UNL     1       0.266   3.428   3.174  0.00  0.00    +0.213 C 
ENDROOT
BRANCH   1   2
ATOM      2  N   UNL     1       0.391   2.740   1.887  0.00  0.00    -0.215 N 
ATOM      3  C   UNL     1      -0.594   2.021   1.313  0.00  0.00    +0.251 C 
ATOM      4  O   UNL     1      -1.710   1.830   1.748  0.00  0.00    -0.272 OA
ATOM      5  C   UNL     1      -0.018   1.503   0.010  0.00  0.00    +0.135 C 
ATOM      6  N   UNL     1       1.353   2.040   0.000  0.00  0.00    -0.281 N 
ATOM      7  C   UNL     1       1.498   2.747   1.135  0.00  0.00    +0.310 C 
ATOM      8  O   UNL     1       2.520   3.328   1.443  0.00  0.00    -0.252 OA
ATOM      9  C   UNL     1      -0.814   2.035  -1.183  0.00  0.00    +0.047 C 
ATOM     10  H   UNL     1       2.022   1.909  -0.691  0.00  0.00    +0.152 HD
BRANCH   5  11
ATOM     11  C   UNL     1       0.002  -0.004   0.002  0.00  0.00    -0.015 A 
ATOM     12  C   UNL     1      -1.002  -0.711   0.638  0.00  0.00    +0.010 A 
ATOM     13  C   UNL     1      -0.988  -2.093   0.627  0.00  0.00    +0.046 A 
ATOM     14  C   UNL     1       0.039  -2.770  -0.014  0.00  0.00    +0.120 A 
ATOM     15  C   UNL     1       1.048  -2.058  -0.646  0.00  0.00    +0.046 A 
ATOM     16  C   UNL     1       1.027  -0.677  -0.637  0.00  0.00    +0.010 A 
BRANCH  14  17
ATOM     17  O   UNL     1       0.058  -4.129  -0.021  0.00  0.00    -0.495 OA
ATOM     18  C   UNL     1      -1.013  -4.796   0.650  0.00  0.00    +0.277 C 
ENDBRANCH  14  17
ENDBRANCH   5  11
ENDBRANCH   1   2
BRANCH   1  20
ATOM     19  N   UNL     1      -0.432   5.655   3.995  0.00  0.00    -0.311 N 
ATOM     20  C   UNL     1      -0.239   4.830   2.946  0.00  0.00    +0.231 C 
ATOM     21  O   UNL     1      -0.470   5.216   1.820  0.00  0.00    -0.274 OA
ATOM     22  H   UNL     1      -0.247   5.346   4.895  0.00  0.00    +0.149 HD
BRANCH  19  24
ATOM     23  C   UNL     1      -2.450   7.003   3.691  0.00  0.00    +0.028 C 
ATOM     24  C   UNL     1      -0.922   7.017   3.774  0.00  0.00    +0.076 C 
BRANCH  24  25
ATOM     25  C   UNL     1      -0.483   7.912   4.935  0.00  0.00    -0.010 C 
ATOM     26  C   UNL     1      -1.059   7.369   6.244  0.00  0.00    +0.012 C 
ATOM     27  C   UNL     1      -0.620   8.263   7.405  0.00  0.00    -0.010 C 
ATOM     28  C   UNL     1      -1.132   9.686   7.174  0.00  0.00    +0.007 C 
ATOM     29  C   UNL     1      -0.556  10.230   5.865  0.00  0.00    -0.010 C 
ATOM     30  C   UNL     1      -0.995   9.335   4.704  0.00  0.00    +0.012 C 
ATOM     31  C   UNL     1       0.972  10.245   5.947  0.00  0.00    +0.007 C 
ATOM     32  C   UNL     1       1.484   8.821   6.178  0.00  0.00    -0.010 C 
ATOM     33  C   UNL     1       0.908   8.278   7.487  0.00  0.00    +0.007 C 
ATOM     34  C   UNL     1       1.045   7.927   5.017  0.00  0.00    +0.012 C 
ENDBRANCH  24  25
ENDBRANCH  19  24
ENDBRANCH   1  20
TORSDOF 6
