REMARK  Name = ZINC02250817
REMARK  4 active torsions:
REMARK  status: ('A' for Active; 'I' for Inactive)
REMARK    1  A    between atoms: C_1  and  O_2
REMARK    2  A    between atoms: O_2  and  C_3
REMARK    3  A    between atoms: C_6  and  C_9
REMARK    4  A    between atoms: C_26  and  C_28
REMARK                            x       y       z     vdW  Elec       q    Type
REMARK                         _______ _______ _______ _____ _____    ______ ____
ROOT
ATOM      1  C   UNL     1      -4.981  -2.629   0.035  0.00  0.00    +0.234 C 
ATOM      2  C   UNL     1      -5.320  -3.068  -1.359  0.00  0.00    +0.028 C 
ATOM      3  C   UNL     1      -4.939  -4.282  -1.810  0.00  0.00    +0.083 C 
ATOM      4  C   UNL     1      -4.189  -5.156  -0.873  0.00  0.00    +0.042 A 
ATOM      5  C   UNL     1      -3.481  -6.262  -1.321  0.00  0.00    +0.013 A 
ATOM      6  C   UNL     1      -2.796  -7.047  -0.413  0.00  0.00    +0.001 A 
ATOM      7  C   UNL     1      -2.815  -6.733   0.934  0.00  0.00    +0.004 A 
ATOM      8  C   UNL     1      -3.518  -5.632   1.389  0.00  0.00    +0.046 A 
ATOM      9  C   UNL     1      -4.211  -4.838   0.491  0.00  0.00    +0.131 A 
ATOM     10  O   UNL     1      -4.914  -3.759   0.907  0.00  0.00    -0.479 OA
ATOM     11  N   UNL     1      -5.232  -4.689  -3.069  0.00  0.00    -0.216 NA
ATOM     12  C   UNL     1      -5.900  -3.968  -3.942  0.00  0.00    +0.209 C 
ATOM     13  N   UNL     1      -6.283  -4.217  -5.234  0.00  0.00    -0.275 N 
ATOM     14  C   UNL     1      -6.972  -3.122  -5.695  0.00  0.00    +0.208 C 
ATOM     15  N   UNL     1      -7.026  -2.226  -4.762  0.00  0.00    -0.169 NA
ATOM     16  N   UNL     1      -6.361  -2.720  -3.639  0.00  0.00    -0.182 N 
ATOM     17  C   UNL     1      -6.095  -2.173  -2.300  0.00  0.00    +0.163 C 
ATOM     18  H   UNL     1      -6.101  -5.027  -5.735  0.00  0.00    +0.156 HD
ENDROOT
BRANCH  17  19
ATOM     19  C   UNL     1      -5.327  -0.886  -2.463  0.00  0.00    -0.021 A 
ATOM     20  C   UNL     1      -4.252  -0.828  -3.330  0.00  0.00    +0.008 A 
ATOM     21  C   UNL     1      -3.548   0.352  -3.480  0.00  0.00    +0.038 A 
ATOM     22  C   UNL     1      -3.920   1.476  -2.762  0.00  0.00    +0.123 A 
ATOM     23  C   UNL     1      -4.997   1.416  -1.894  0.00  0.00    +0.038 A 
ATOM     24  C   UNL     1      -5.703   0.237  -1.749  0.00  0.00    +0.008 A 
ATOM     25  F   UNL     1      -3.232   2.629  -2.907  0.00  0.00    -0.205 F 
ENDBRANCH  17  19
BRANCH   1  29
ATOM     26  C   UNL     1      -1.200  -0.637   0.010  0.00  0.00    +0.120 A 
ATOM     27  C   UNL     1      -2.375   0.101   0.019  0.00  0.00    +0.046 A 
ATOM     28  C   UNL     1      -3.596  -0.545   0.027  0.00  0.00    +0.011 A 
ATOM     29  C   UNL     1      -3.648  -1.927   0.026  0.00  0.00    -0.003 A 
ATOM     30  C   UNL     1      -2.479  -2.665   0.017  0.00  0.00    +0.011 A 
ATOM     31  C   UNL     1      -1.255  -2.024   0.003  0.00  0.00    +0.046 A 
BRANCH  26  33
ATOM     32  C   UNL     1      -0.017   1.425   0.010  0.00  0.00    +0.277 C 
ATOM     33  O   UNL     1       0.002  -0.004   0.002  0.00  0.00    -0.495 OA
ENDBRANCH  26  33
ENDBRANCH   1  29
TORSDOF 3
