REMARK  Name = ZINC23234587
REMARK  5 active torsions:
REMARK  status: ('A' for Active; 'I' for Inactive)
REMARK    1  A    between atoms: C_10  and  S_15
REMARK    2  A    between atoms: S_15  and  N_18
REMARK    3  A    between atoms: N_18  and  C_19
REMARK    4  A    between atoms: C_22  and  S_25
REMARK    5  A    between atoms: S_25  and  N_28
REMARK                            x       y       z     vdW  Elec       q    Type
REMARK                         _______ _______ _______ _____ _____    ______ ____
ROOT
ATOM      1  N   UNL     1       0.005   1.451   0.031  0.00  0.00    -0.216 N 
ATOM      2  H   UNL     1       0.824   2.160  -0.158  0.00  0.00    +0.174 HD
ENDROOT
BRANCH   1   3
ATOM      3  C   UNL     1       0.281   0.092   0.195  0.00  0.00    +0.048 A 
ATOM      4  C   UNL     1       0.856  -0.364   1.374  0.00  0.00    +0.026 A 
ATOM      5  C   UNL     1       1.123  -1.709   1.535  0.00  0.00    +0.031 A 
ATOM      6  C   UNL     1       0.829  -2.600   0.520  0.00  0.00    +0.113 A 
ATOM      7  C   UNL     1       0.261  -2.149  -0.657  0.00  0.00    +0.031 A 
ATOM      8  C   UNL     1      -0.014  -0.806  -0.823  0.00  0.00    +0.026 A 
BRANCH   6   9
ATOM      9  S   UNL     1       1.177  -4.315   0.727  0.00  0.00    +0.102 S 
ATOM     10  O   UNL     1       1.204  -4.558   2.127  0.00  0.00    -0.146 OA
ATOM     11  O   UNL     1       0.307  -5.016  -0.151  0.00  0.00    -0.146 OA
BRANCH   9  12
ATOM     12  N   UNL     1       2.716  -4.573   0.173  0.00  0.00    -0.093 NA
ATOM     13  C   UNL     1       3.784  -3.993   0.816  0.00  0.00    +0.212 C 
ATOM     14  N   UNL     1       3.585  -3.241   1.862  0.00  0.00    -0.369 N 
ATOM     15  N   UNL     1       5.062  -4.207   0.356  0.00  0.00    -0.369 N 
ATOM     16  H   UNL     1       4.440  -2.777   2.376  0.00  0.00    +0.159 HD
ATOM     17  H   UNL     1       5.917  -3.743   0.871  0.00  0.00    +0.159 HD
ATOM     18  H   UNL     1       5.230  -4.841  -0.526  0.00  0.00    +0.159 HD
ATOM     19  H   UNL     1       2.563  -3.070   2.230  0.00  0.00    +0.159 HD
ENDBRANCH   9  12
ENDBRANCH   6   9
ENDBRANCH   1   3
BRANCH   1  20
ATOM     20  S   UNL     1      -1.557   1.996   0.119  0.00  0.00    +0.072 S 
ATOM     21  O   UNL     1      -1.504   3.408  -0.029  0.00  0.00    -0.150 OA
ATOM     22  O   UNL     1      -2.325   1.167  -0.743  0.00  0.00    -0.150 OA
BRANCH  20  32
ATOM     23  C   UNL     1      -4.261   0.520   7.918  0.00  0.00    +0.001 A 
ATOM     24  C   UNL     1      -4.714  -0.767   7.704  0.00  0.00    +0.001 A 
ATOM     25  C   UNL     1      -4.604  -1.346   6.451  0.00  0.00    +0.012 A 
ATOM     26  C   UNL     1      -4.035  -0.630   5.405  0.00  0.00    +0.030 A 
ATOM     27  C   UNL     1      -3.574   0.679   5.621  0.00  0.00    -0.006 A 
ATOM     28  C   UNL     1      -3.692   1.245   6.883  0.00  0.00    +0.009 A 
ATOM     29  C   UNL     1      -3.019   1.204   4.346  0.00  0.00    -0.006 A 
ATOM     30  C   UNL     1      -2.445   2.425   4.019  0.00  0.00    +0.011 A 
ATOM     31  C   UNL     1      -2.001   2.659   2.727  0.00  0.00    +0.029 A 
ATOM     32  C   UNL     1      -2.126   1.683   1.757  0.00  0.00    +0.109 A 
ATOM     33  C   UNL     1      -2.701   0.461   2.066  0.00  0.00    +0.041 A 
ATOM     34  C   UNL     1      -3.145   0.212   3.360  0.00  0.00    +0.032 A 
ATOM     35  C   UNL     1      -3.784  -0.970   3.984  0.00  0.00    +0.194 C 
ATOM     36  O   UNL     1      -4.052  -2.019   3.435  0.00  0.00    -0.287 OA
ENDBRANCH  20  32
ENDBRANCH   1  20
TORSDOF 5
