REMARK  Name = ZINC39326838
REMARK  8 active torsions:
REMARK  status: ('A' for Active; 'I' for Inactive)
REMARK    1  A    between atoms: C_1  and  O_2
REMARK    2  A    between atoms: O_2  and  C_3
REMARK    3  A    between atoms: C_6  and  C_9
REMARK    4  A    between atoms: C_17  and  N_31
REMARK    5  A    between atoms: C_18  and  C_29
REMARK    6  A    between atoms: C_19  and  C_21
REMARK    7  A    between atoms: C_24  and  O_27
REMARK    8  A    between atoms: O_27  and  C_28
REMARK                            x       y       z     vdW  Elec       q    Type
REMARK                         _______ _______ _______ _____ _____    ______ ____
ROOT
ATOM      1  C   UNL     1       2.492  -2.490  -4.358  0.00  0.00    +0.016 C 
ATOM      2  C   UNL     1       2.629  -3.828  -4.381  0.00  0.00    +0.009 C 
ATOM      3  C   UNL     1       2.019  -4.699  -3.303  0.00  0.00    +0.120 C 
ATOM      4  N   UNL     1       3.009  -5.743  -2.982  0.00  0.00    -0.308 NA
ATOM      5  C   UNL     1       3.251  -6.601  -4.144  0.00  0.00    +0.117 C 
ATOM      6  C   UNL     1       3.677  -5.798  -5.347  0.00  0.00    -0.001 C 
ATOM      7  C   UNL     1       3.376  -4.503  -5.462  0.00  0.00    +0.136 C 
ATOM      8  O   UNL     1       3.742  -3.777  -6.547  0.00  0.00    -0.441 OA
ATOM      9  C   UNL     1       4.748  -4.201  -7.331  0.00  0.00    +0.199 C 
ATOM     10  C   UNL     1       5.133  -5.501  -7.326  0.00  0.00    +0.098 C 
ATOM     11  C   UNL     1       4.453  -6.501  -6.435  0.00  0.00    +0.095 C 
ATOM     12  H   UNL     1       3.869  -5.335  -2.648  0.00  0.00    +0.123 HD
ENDROOT
BRANCH   1  16
ATOM     13  C   UNL     1      -0.066  -0.669  -1.502  0.00  0.00    +0.120 A 
ATOM     14  C   UNL     1      -0.378  -1.923  -2.010  0.00  0.00    +0.046 A 
ATOM     15  C   UNL     1       0.449  -2.519  -2.938  0.00  0.00    +0.011 A 
ATOM     16  C   UNL     1       1.604  -1.858  -3.367  0.00  0.00    -0.024 A 
ATOM     17  C   UNL     1       1.914  -0.595  -2.853  0.00  0.00    +0.011 A 
ATOM     18  C   UNL     1       1.078  -0.006  -1.930  0.00  0.00    +0.046 A 
BRANCH  13  20
ATOM     19  C   UNL     1      -2.043  -0.822  -0.193  0.00  0.00    +0.277 C 
ATOM     20  O   UNL     1      -0.884  -0.086  -0.589  0.00  0.00    -0.495 OA
ENDBRANCH  13  20
ENDBRANCH   1  16
BRANCH  11  21
ATOM     21  C   UNL     1       3.506  -7.325  -7.269  0.00  0.00    -0.035 A 
ATOM     22  C   UNL     1       2.468  -6.711  -7.945  0.00  0.00    +0.008 A 
ATOM     23  C   UNL     1       1.598  -7.465  -8.709  0.00  0.00    +0.046 A 
ATOM     24  C   UNL     1       1.768  -8.839  -8.800  0.00  0.00    +0.120 A 
ATOM     25  C   UNL     1       2.812  -9.452  -8.122  0.00  0.00    +0.046 A 
ATOM     26  C   UNL     1       3.681  -8.694  -7.362  0.00  0.00    +0.008 A 
BRANCH  24  27
ATOM     27  O   UNL     1       0.914  -9.582  -9.551  0.00  0.00    -0.495 OA
ATOM     28  C   UNL     1       1.150 -10.991  -9.598  0.00  0.00    +0.277 C 
ENDBRANCH  24  27
ENDBRANCH  11  21
BRANCH   9  29
ATOM     29  N   UNL     1       5.393  -3.306  -8.148  0.00  0.00    -0.328 N 
ATOM     30  H   UNL     1       5.123  -2.375  -8.157  0.00  0.00    +0.145 HD
ATOM     31  H   UNL     1       6.120  -3.606  -8.717  0.00  0.00    +0.145 HD
ENDBRANCH   9  29
BRANCH  10  32
ATOM     32  C   UNL     1       6.208  -5.925  -8.171  0.00  0.00    +0.101 C 
ATOM     33  N   UNL     1       7.061  -6.261  -8.841  0.00  0.00    -0.191 NA
ENDBRANCH  10  32
TORSDOF 6
