REMARK  Name = ZINC06197283
REMARK  15 active torsions:
REMARK  status: ('A' for Active; 'I' for Inactive)
REMARK    1  A    between atoms: C_1  and  C_2
REMARK    2  A    between atoms: C_2  and  S_3
REMARK    3  A    between atoms: S_3  and  C_4
REMARK    4  A    between atoms: C_4  and  C_5
REMARK    5  A    between atoms: C_5  and  O_6
REMARK    6  A    between atoms: O_6  and  C_7
REMARK    7  A    between atoms: C_7  and  C_9
REMARK    8  A    between atoms: C_10  and  C_38
REMARK    9  A    between atoms: C_14  and  C_16
REMARK   10  A    between atoms: C_19  and  C_21
REMARK   11  A    between atoms: C_25  and  C_28
REMARK   12  A    between atoms: C_31  and  O_36
REMARK   13  A    between atoms: C_32  and  O_34
REMARK   14  A    between atoms: O_34  and  C_35
REMARK   15  A    between atoms: O_36  and  C_37
REMARK                            x       y       z     vdW  Elec       q    Type
REMARK                         _______ _______ _______ _____ _____    ______ ____
ROOT
ATOM      1  C   UNL     1      -1.281   2.915  -0.353  0.00  0.00    +0.156 C 
ATOM      2  C   UNL     1      -1.208   1.628   0.024  0.00  0.00    +0.031 C 
ATOM      3  N   UNL     1      -0.012   0.967   0.011  0.00  0.00    -0.260 NA
ATOM      4  C   UNL     1       1.169   1.660  -0.000  0.00  0.00    +0.049 C 
ATOM      5  C   UNL     1       1.198   2.955  -0.384  0.00  0.00    +0.028 C 
ATOM      6  C   UNL     1      -0.062   3.659  -0.819  0.00  0.00    +0.109 C 
ATOM      7  C   UNL     1       2.401   3.684  -0.383  0.00  0.00    +0.162 C 
ATOM      8  O   UNL     1       2.393   4.846  -0.738  0.00  0.00    -0.292 OA
ATOM      9  C   UNL     1       3.696   3.051   0.048  0.00  0.00    +0.088 C 
ATOM     10  C   UNL     1       3.396   1.939   1.058  0.00  0.00    +0.032 C 
ATOM     11  C   UNL     1       2.430   0.942   0.408  0.00  0.00    +0.064 C 
ATOM     12  C   UNL     1      -2.456   0.908   0.464  0.00  0.00    +0.061 C 
ENDROOT
BRANCH   6  13
ATOM     13  C   UNL     1      -0.080   3.759  -2.322  0.00  0.00    +0.114 A 
ATOM     14  C   UNL     1      -0.123   4.899  -3.034  0.00  0.00    +0.045 A 
ATOM     15  C   UNL     1      -0.124   4.529  -4.399  0.00  0.00    +0.044 A 
ATOM     16  C   UNL     1      -0.082   3.185  -4.439  0.00  0.00    +0.102 A 
ATOM     17  O   UNL     1      -0.050   2.724  -3.178  0.00  0.00    -0.464 OA
ATOM     18  C   UNL     1      -0.068   2.341  -5.687  0.00  0.00    +0.086 C 
ENDBRANCH   6  13
BRANCH  10  19
ATOM     19  C   UNL     1       4.675   1.234   1.429  0.00  0.00    -0.040 A 
ATOM     20  C   UNL     1       5.424   0.604   0.453  0.00  0.00    +0.008 A 
ATOM     21  C   UNL     1       6.599  -0.043   0.789  0.00  0.00    +0.049 A 
ATOM     22  C   UNL     1       7.027  -0.062   2.106  0.00  0.00    +0.161 A 
ATOM     23  C   UNL     1       6.273   0.573   3.089  0.00  0.00    +0.162 A 
ATOM     24  C   UNL     1       5.100   1.225   2.745  0.00  0.00    +0.053 A 
BRANCH  23  25
ATOM     25  O   UNL     1       6.689   0.557   4.383  0.00  0.00    -0.491 OA
ATOM     26  C   UNL     1       5.865   1.228   5.338  0.00  0.00    +0.277 C 
ENDBRANCH  23  25
BRANCH  22  27
ATOM     27  O   UNL     1       8.182  -0.699   2.438  0.00  0.00    -0.491 OA
ATOM     28  C   UNL     1       8.904  -1.329   1.378  0.00  0.00    +0.277 C 
ENDBRANCH  22  27
ENDBRANCH  10  19
BRANCH   1  29
ATOM     29  C   UNL     1      -2.529   3.579  -0.319  0.00  0.00    +0.317 C 
ATOM     30  O   UNL     1      -3.524   2.986   0.054  0.00  0.00    -0.250 OA
BRANCH  29  31
ATOM     31  O   UNL     1      -2.617   4.871  -0.699  0.00  0.00    -0.463 OA
BRANCH  31  32
ATOM     32  C   UNL     1      -3.909   5.478  -0.639  0.00  0.00    +0.243 C 
BRANCH  32  33
ATOM     33  C   UNL     1      -3.811   6.932  -1.105  0.00  0.00    +0.110 C 
BRANCH  33  34
ATOM     34  S   UNL     1      -5.451   7.704  -1.029  0.00  0.00    -0.158 S 
BRANCH  34  36
ATOM     35  C   UNL     1      -6.486  10.173  -1.591  0.00  0.00    +0.015 C 
ATOM     36  C   UNL     1      -5.165   9.400  -1.606  0.00  0.00    +0.066 C 
ENDBRANCH  34  36
ENDBRANCH  33  34
ENDBRANCH  32  33
ENDBRANCH  31  32
ENDBRANCH  29  31
ENDBRANCH   1  29
TORSDOF 10
