REMARK  Name = ZINC40914569
REMARK  13 active torsions:
REMARK  status: ('A' for Active; 'I' for Inactive)
REMARK    1  A    between atoms: C_1  and  C_2
REMARK    2  A    between atoms: C_2  and  O_3
REMARK    3  A    between atoms: O_3  and  C_4
REMARK    4  A    between atoms: C_6  and  C_20
REMARK    5  A    between atoms: C_9  and  O_10
REMARK    6  A    between atoms: O_10  and  C_11
REMARK    7  A    between atoms: C_11  and  C_12
REMARK    8  A    between atoms: C_22  and  C_31
REMARK    9  A    between atoms: C_23  and  C_30
REMARK   10  A    between atoms: C_31  and  O_33
REMARK   11  A    between atoms: O_33  and  C_34
REMARK   12  A    between atoms: C_34  and  C_35
REMARK   13  A    between atoms: C_34  and  C_36
REMARK                            x       y       z     vdW  Elec       q    Type
REMARK                         _______ _______ _______ _____ _____    ______ ____
ROOT
ATOM      1  C   UNL     1       0.738  -1.730  -1.096  0.00  0.00    +0.162 A 
ATOM      2  C   UNL     1       0.124  -2.641  -0.252  0.00  0.00    +0.055 A 
ATOM      3  C   UNL     1       0.326  -3.997  -0.434  0.00  0.00    -0.015 A 
ATOM      4  C   UNL     1       1.141  -4.446  -1.456  0.00  0.00    +0.010 A 
ATOM      5  C   UNL     1       1.757  -3.542  -2.302  0.00  0.00    +0.050 A 
ATOM      6  C   UNL     1       1.553  -2.183  -2.129  0.00  0.00    +0.162 A 
ENDROOT
BRANCH   3   7
ATOM      7  C   UNL     1      -0.343  -4.986   0.485  0.00  0.00    +0.179 C 
ATOM      8  C   UNL     1       0.706  -5.807   1.187  0.00  0.00    +0.082 C 
ATOM      9  C   UNL     1       0.941  -7.097   0.900  0.00  0.00    +0.020 C 
ATOM     10  N   UNL     1       0.227  -7.774  -0.057  0.00  0.00    -0.287 N 
ATOM     11  C   UNL     1      -0.924  -7.170  -0.543  0.00  0.00    +0.218 A 
ATOM     12  N   UNL     1      -1.208  -5.867  -0.295  0.00  0.00    -0.221 N 
ATOM     13  N   UNL     1      -2.426  -5.600  -0.918  0.00  0.00    -0.156 NA
ATOM     14  C   UNL     1      -2.804  -6.713  -1.498  0.00  0.00    +0.247 A 
ATOM     15  N   UNL     1      -1.891  -7.661  -1.269  0.00  0.00    -0.201 NA
ATOM     16  C   UNL     1       2.023  -7.826   1.654  0.00  0.00    +0.061 C 
ATOM     17  H   UNL     1       0.517  -8.642  -0.381  0.00  0.00    +0.155 HD
BRANCH   8  18
ATOM     18  C   UNL     1       1.480  -5.191   2.196  0.00  0.00    +0.339 C 
ATOM     19  O   UNL     1       1.029  -5.069   3.320  0.00  0.00    -0.245 OA
BRANCH  18  20
ATOM     20  O   UNL     1       2.719  -4.736   1.913  0.00  0.00    -0.459 OA
BRANCH  20  21
ATOM     21  C   UNL     1       3.445  -4.124   2.980  0.00  0.00    +0.171 C 
ATOM     22  C   UNL     1       4.944  -4.348   2.772  0.00  0.00    +0.052 C 
ATOM     23  C   UNL     1       3.151  -2.622   3.001  0.00  0.00    +0.052 C 
ENDBRANCH  20  21
ENDBRANCH  18  20
ENDBRANCH   8  18
ENDBRANCH   3   7
BRANCH   1  24
ATOM     24  O   UNL     1       0.540  -0.396  -0.919  0.00  0.00    -0.489 OA
BRANCH  24  26
ATOM     25  C   UNL     1      -0.412   1.522   0.202  0.00  0.00    +0.048 C 
ATOM     26  C   UNL     1      -0.309  -0.004   0.161  0.00  0.00    +0.226 C 
ENDBRANCH  24  26
ENDBRANCH   1  24
BRANCH   6  27
ATOM     27  O   UNL     1       2.154  -1.292  -2.963  0.00  0.00    -0.484 OA
BRANCH  27  28
ATOM     28  C   UNL     1       2.977  -1.829  -4.001  0.00  0.00    +0.264 C 
BRANCH  28  29
ATOM     29  C   UNL     1       3.553  -0.702  -4.819  0.00  0.00    -0.009 A 
ATOM     30  C   UNL     1       2.866  -0.225  -5.920  0.00  0.00    +0.008 A 
ATOM     31  C   UNL     1       3.394   0.808  -6.670  0.00  0.00    +0.022 A 
ATOM     32  C   UNL     1       4.610   1.367  -6.320  0.00  0.00    +0.059 A 
ATOM     33  C   UNL     1       5.298   0.890  -5.217  0.00  0.00    +0.060 A 
ATOM     34  C   UNL     1       4.766  -0.141  -4.464  0.00  0.00    +0.028 A 
ATOM     35 CL   UNL     1       6.825   1.589  -4.777  0.00  0.00    -0.082 Cl
ATOM     36 CL   UNL     1       5.274   2.665  -7.263  0.00  0.00    -0.082 Cl
ENDBRANCH  28  29
ENDBRANCH  27  28
ENDBRANCH   6  27
TORSDOF 9
