REMARK  Name = ZINC44164460
REMARK  13 active torsions:
REMARK  status: ('A' for Active; 'I' for Inactive)
REMARK    1  A    between atoms: C_1  and  C_2
REMARK    2  A    between atoms: C_2  and  C_3
REMARK    3  A    between atoms: C_2  and  C_4
REMARK    4  A    between atoms: C_2  and  C_5
REMARK    5  A    between atoms: C_7  and  C_16
REMARK    6  A    between atoms: C_9  and  C_12
REMARK    7  A    between atoms: C_10  and  O_11
REMARK    8  A    between atoms: C_12  and  C_13
REMARK    9  A    between atoms: C_12  and  C_14
REMARK   10  A    between atoms: C_12  and  C_15
REMARK   11  A    between atoms: C_21  and  C_24
REMARK   12  A    between atoms: N_29  and  C_32
REMARK   13  A    between atoms: C_32  and  C_33
REMARK                            x       y       z     vdW  Elec       q    Type
REMARK                         _______ _______ _______ _____ _____    ______ ____
ROOT
ATOM      1  C   UNL     1       2.392   0.976  -4.266  0.00  0.00    -0.030 C 
ATOM      2  C   UNL     1       3.900   1.122  -4.029  0.00  0.00    +0.058 C 
ATOM      3  S   UNL     1       4.541   2.368  -5.191  0.00  0.00    -0.163 S 
ATOM      4  C   UNL     1       3.865   1.810  -6.786  0.00  0.00    +0.062 C 
ATOM      5  C   UNL     1       2.363   1.561  -6.610  0.00  0.00    +0.027 C 
ATOM      6  N   UNL     1       2.148   0.496  -5.627  0.00  0.00    +0.392 N 
ATOM      7  H   UNL     1       2.775  -0.270  -5.825  0.00  0.00    -0.084 HD
ATOM      8  H   UNL     1       1.196   0.170  -5.697  0.00  0.00    -0.084 HD
ENDROOT
BRANCH   5   9
ATOM      9  C   UNL     1       1.766   1.149  -7.931  0.00  0.00    +0.202 C 
ATOM     10  O   UNL     1       1.648  -0.027  -8.203  0.00  0.00    -0.277 OA
ATOM     11  N   UNL     1       1.363   2.087  -8.810  0.00  0.00    -0.300 N 
ATOM     12  C   UNL     1       1.606   3.515  -8.555  0.00  0.00    +0.123 C 
ATOM     13  C   UNL     1       2.274   4.124  -9.793  0.00  0.00    +0.103 C 
ATOM     14  N   UNL     1       1.456   3.835 -10.978  0.00  0.00    -0.295 NA
ATOM     15  C   UNL     1       1.373   2.390 -11.229  0.00  0.00    +0.103 C 
ATOM     16  C   UNL     1       0.673   1.710 -10.054  0.00  0.00    +0.123 C 
BRANCH  14  17
ATOM     17  C   UNL     1       1.970   4.546 -12.157  0.00  0.00    +0.119 C 
BRANCH  17  18
ATOM     18  C   UNL     1       0.978   4.427 -13.286  0.00  0.00    -0.033 A 
ATOM     19  C   UNL     1       1.060   3.367 -14.170  0.00  0.00    +0.005 A 
ATOM     20  C   UNL     1       0.151   3.259 -15.205  0.00  0.00    +0.000 A 
ATOM     21  C   UNL     1      -0.840   4.210 -15.357  0.00  0.00    +0.000 A 
ATOM     22  C   UNL     1      -0.923   5.269 -14.473  0.00  0.00    +0.000 A 
ATOM     23  C   UNL     1      -0.016   5.376 -13.435  0.00  0.00    +0.005 A 
ENDBRANCH  17  18
ENDBRANCH  14  17
ENDBRANCH   5   9
BRANCH   1  26
ATOM     24  C   UNL     1       0.650  -0.458  -1.240  0.00  0.00    -0.000 A 
ATOM     25  C   UNL     1       1.172   0.444  -2.146  0.00  0.00    +0.009 A 
ATOM     26  C   UNL     1       1.823  -0.010  -3.278  0.00  0.00    -0.060 A 
ATOM     27  C   UNL     1       1.954  -1.368  -3.505  0.00  0.00    +0.009 A 
ATOM     28  C   UNL     1       1.433  -2.274  -2.602  0.00  0.00    -0.000 A 
ATOM     29  C   UNL     1       0.784  -1.821  -1.463  0.00  0.00    +0.124 A 
BRANCH  24  31
ATOM     30  C   UNL     1      -0.069   1.568  -0.003  0.00  0.00    +0.015 C 
ATOM     31  C   UNL     1      -0.060   0.038  -0.006  0.00  0.00    -0.009 C 
ATOM     32  C   UNL     1       0.667  -0.470   1.240  0.00  0.00    +0.015 C 
ATOM     33  C   UNL     1      -1.500  -0.481  -0.003  0.00  0.00    +0.015 C 
ENDBRANCH  24  31
BRANCH  28  34
ATOM     34  C   UNL     1       1.575  -3.753  -2.850  0.00  0.00    -0.009 C 
ATOM     35  C   UNL     1       2.330  -3.980  -4.162  0.00  0.00    +0.015 C 
ATOM     36  C   UNL     1       2.353  -4.392  -1.698  0.00  0.00    +0.015 C 
ATOM     37  C   UNL     1       0.188  -4.391  -2.944  0.00  0.00    +0.015 C 
ENDBRANCH  28  34
BRANCH  29  38
ATOM     38  O   UNL     1       0.276  -2.710  -0.569  0.00  0.00    -0.506 OA
ATOM     39  H   UNL     1      -0.637  -2.971  -0.750  0.00  0.00    +0.292 HD
ENDBRANCH  29  38
ENDBRANCH   1  26
TORSDOF 7
