REMARK  Name = ZINC38806299
REMARK  15 active torsions:
REMARK  status: ('A' for Active; 'I' for Inactive)
REMARK    1  A    between atoms: C_1  and  C_2
REMARK    2  A    between atoms: C_2  and  O_3
REMARK    3  A    between atoms: O_3  and  C_4
REMARK    4  A    between atoms: C_4  and  C_6
REMARK    5  A    between atoms: C_10  and  N_11
REMARK    6  A    between atoms: C_12  and  C_14
REMARK    7  A    between atoms: C_16  and  O_25
REMARK    8  A    between atoms: C_17  and  O_23
REMARK    9  A    between atoms: C_19  and  N_20
REMARK   10  A    between atoms: O_23  and  C_24
REMARK   11  A    between atoms: O_25  and  C_26
REMARK   12  A    between atoms: C_27  and  C_33
REMARK   13  A    between atoms: C_27  and  C_34
REMARK   14  A    between atoms: C_29  and  C_31
REMARK   15  A    between atoms: C_29  and  C_32
REMARK                            x       y       z     vdW  Elec       q    Type
REMARK                         _______ _______ _______ _____ _____    ______ ____
ROOT
ATOM      1  C   UNL     1       1.609  -3.708  -3.136  0.00  0.00    +0.091 A 
ATOM      2  C   UNL     1       2.993  -4.063  -3.361  0.00  0.00    -0.024 A 
ATOM      3  C   UNL     1       3.335  -4.197  -4.664  0.00  0.00    -0.016 A 
ATOM      4  S   UNL     1       1.840  -3.867  -5.548  0.00  0.00    -0.079 S 
ATOM      5  C   UNL     1       0.808  -3.553  -4.262  0.00  0.00    +0.086 A 
ATOM      6  C   UNL     1       4.688  -4.538  -5.194  0.00  0.00    -0.041 C 
ATOM      7  N   UNL     1       5.619  -4.916  -4.132  0.00  0.00    +0.389 N 
ATOM      8  C   UNL     1       5.032  -5.340  -2.869  0.00  0.00    -0.069 C 
ATOM      9  C   UNL     1       4.060  -4.297  -2.304  0.00  0.00    +0.024 C 
ATOM     10  C   UNL     1       4.309  -6.681  -3.018  0.00  0.00    -0.010 C 
ATOM     11  C   UNL     1       6.168  -5.529  -1.846  0.00  0.00    -0.010 C 
ATOM     12  C   UNL     1       4.563  -5.672  -6.220  0.00  0.00    -0.005 C 
ATOM     13  C   UNL     1       5.247  -3.300  -5.923  0.00  0.00    -0.005 C 
ATOM     14  H   UNL     1       6.222  -5.664  -4.479  0.00  0.00    -0.084 HD
ATOM     15  H   UNL     1       6.241  -4.125  -3.951  0.00  0.00    -0.084 HD
ENDROOT
BRANCH   5  16
ATOM     16  N   UNL     1      -0.535  -3.216  -4.309  0.00  0.00    -0.275 N 
ATOM     17  C   UNL     1      -1.161  -3.108  -5.498  0.00  0.00    +0.251 C 
ATOM     18  O   UNL     1      -0.547  -3.306  -6.529  0.00  0.00    -0.270 OA
ATOM     19  H   UNL     1      -1.024  -3.058  -3.487  0.00  0.00    +0.156 HD
BRANCH  17  20
ATOM     20  C   UNL     1      -2.591  -2.749  -5.549  0.00  0.00    +0.071 A 
ATOM     21  C   UNL     1      -3.527  -3.498  -4.830  0.00  0.00    +0.064 A 
ATOM     22  C   UNL     1      -4.864  -3.157  -4.881  0.00  0.00    +0.162 A 
ATOM     23  C   UNL     1      -5.278  -2.068  -5.647  0.00  0.00    +0.164 A 
ATOM     24  C   UNL     1      -4.348  -1.325  -6.361  0.00  0.00    +0.082 A 
ATOM     25  C   UNL     1      -3.011  -1.656  -6.310  0.00  0.00    +0.142 A 
BRANCH  25  26
ATOM     26  N   UNL     1      -2.022  -0.856  -7.067  0.00  0.00    +0.057 N 
ATOM     27  O   UNL     1      -2.396   0.011  -7.822  0.00  0.00    -0.126 OA
ATOM     28  O   UNL     1      -0.840  -1.071  -6.931  0.00  0.00    -0.126 OA
ENDBRANCH  25  26
BRANCH  23  29
ATOM     29  O   UNL     1      -6.594  -1.735  -5.696  0.00  0.00    -0.491 OA
ATOM     30  C   UNL     1      -6.948  -0.608  -6.500  0.00  0.00    +0.277 C 
ENDBRANCH  23  29
BRANCH  22  31
ATOM     31  O   UNL     1      -5.778  -3.885  -4.184  0.00  0.00    -0.491 OA
ATOM     32  C   UNL     1      -5.284  -4.987  -3.420  0.00  0.00    +0.277 C 
ENDBRANCH  22  31
ENDBRANCH  17  20
ENDBRANCH   5  16
BRANCH   1  33
ATOM     33  C   UNL     1       1.065  -3.517  -1.790  0.00  0.00    +0.342 C 
ATOM     34  O   UNL     1       0.583  -4.458  -1.189  0.00  0.00    -0.245 OA
BRANCH  33  35
ATOM     35  O   UNL     1       1.099  -2.296  -1.216  0.00  0.00    -0.461 OA
BRANCH  35  37
ATOM     36  C   UNL     1       0.679  -0.736   0.581  0.00  0.00    +0.048 C 
ATOM     37  C   UNL     1       0.552  -2.182   0.099  0.00  0.00    +0.229 C 
ENDBRANCH  35  37
ENDBRANCH  33  35
ENDBRANCH   1  33
TORSDOF 8
