REMARK  Name = ZINC12296954
REMARK  5 active torsions:
REMARK  status: ('A' for Active; 'I' for Inactive)
REMARK    1  A    between atoms: N_17  and  C_18
REMARK    2  A    between atoms: C_18  and  C_19
REMARK    3  A    between atoms: N_21  and  C_22
REMARK    4  A    between atoms: C_22  and  C_23
REMARK    5  A    between atoms: C_23  and  C_24
REMARK                            x       y       z     vdW  Elec       q    Type
REMARK                         _______ _______ _______ _____ _____    ______ ____
ROOT
ATOM      1  C   UNL     1       3.318   3.118  -0.013  0.00  0.00    +0.001 A 
ATOM      2  C   UNL     1       4.096   1.972  -0.018  0.00  0.00    +0.002 A 
ATOM      3  C   UNL     1       3.543   0.703  -0.015  0.00  0.00    +0.026 A 
ATOM      4  C   UNL     1       2.152   0.621  -0.006  0.00  0.00    +0.047 A 
ATOM      5  C   UNL     1       1.360   1.798   0.000  0.00  0.00    +0.003 A 
ATOM      6  C   UNL     1       1.946   3.067  -0.005  0.00  0.00    +0.010 A 
ATOM      7  C   UNL     1      -0.019   1.352   0.010  0.00  0.00    -0.016 A 
ATOM      8  C   UNL     1       0.003   0.002   0.006  0.00  0.00    +0.038 A 
ATOM      9  N   UNL     1       1.298  -0.444  -0.002  0.00  0.00    -0.356 N 
ATOM     10  H   UNL     1       1.567  -1.376  -0.004  0.00  0.00    +0.166 HD
ATOM     11  C   UNL     1      -1.245  -0.853   0.006  0.00  0.00    +0.162 C 
ATOM     12  N   UNL     1      -2.388   0.032   0.290  0.00  0.00    -0.280 N 
ATOM     13  C   UNL     1      -2.459   1.325  -0.408  0.00  0.00    +0.114 C 
ATOM     14  C   UNL     1      -1.271   2.192   0.028  0.00  0.00    +0.056 C 
ATOM     15  C   UNL     1      -3.344  -0.334   1.166  0.00  0.00    +0.303 C 
ATOM     16  O   UNL     1      -4.229   0.446   1.461  0.00  0.00    -0.253 OA
ATOM     17  N   UNL     1      -3.319  -1.565   1.716  0.00  0.00    -0.291 N 
ATOM     18  H   UNL     1      -2.575  -2.160   1.537  0.00  0.00    +0.151 HD
ENDROOT
BRANCH  17  19
ATOM     19  C   UNL     1      -4.416  -2.002   2.583  0.00  0.00    +0.201 C 
BRANCH  19  20
ATOM     20  C   UNL     1      -4.147  -3.404   3.064  0.00  0.00    +0.230 C 
ATOM     21  O   UNL     1      -3.139  -3.982   2.716  0.00  0.00    -0.274 OA
ATOM     22  N   UNL     1      -5.028  -4.017   3.880  0.00  0.00    -0.314 N 
ATOM     23  H   UNL     1      -5.834  -3.555   4.158  0.00  0.00    +0.149 HD
BRANCH  22  24
ATOM     24  C   UNL     1      -4.767  -5.381   4.348  0.00  0.00    +0.109 C 
BRANCH  24  25
ATOM     25  C   UNL     1      -5.912  -5.837   5.253  0.00  0.00    +0.056 C 
BRANCH  25  26
ATOM     26  C   UNL     1      -5.644  -7.240   5.734  0.00  0.00    -0.021 A 
ATOM     27  C   UNL     1      -6.102  -8.375   5.182  0.00  0.00    +0.087 A 
ATOM     28  N   UNL     1      -5.651  -9.454   5.892  0.00  0.00    -0.360 N 
ATOM     29  H   UNL     1      -5.850 -10.380   5.684  0.00  0.00    +0.165 HD
ATOM     30  C   UNL     1      -4.872  -9.029   6.946  0.00  0.00    +0.047 A 
ATOM     31  C   UNL     1      -4.829  -7.624   6.889  0.00  0.00    +0.004 A 
ATOM     32  C   UNL     1      -4.108  -6.910   7.848  0.00  0.00    +0.030 A 
ATOM     33  C   UNL     1      -3.434  -7.589   8.839  0.00  0.00    +0.042 A 
ATOM     34  C   UNL     1      -3.473  -8.976   8.891  0.00  0.00    +0.022 A 
ATOM     35  C   UNL     1      -4.184  -9.694   7.955  0.00  0.00    +0.027 A 
ATOM     36 CL   UNL     1      -2.531  -6.705  10.030  0.00  0.00    -0.084 Cl
ENDBRANCH  25  26
ENDBRANCH  24  25
ENDBRANCH  22  24
ENDBRANCH  19  20
ENDBRANCH  17  19
TORSDOF 5
