REMARK  Name = ZINC23357888
REMARK  9 active torsions:
REMARK  status: ('A' for Active; 'I' for Inactive)
REMARK    1  A    between atoms: C_1  and  C_2
REMARK    2  A    between atoms: C_5  and  C_8
REMARK    3  A    between atoms: C_11  and  S_14
REMARK    4  A    between atoms: N_12  and  N_13
REMARK    5  A    between atoms: S_14  and  C_15
REMARK    6  A    between atoms: C_15  and  C_17
REMARK    7  A    between atoms: C_15  and  C_18
REMARK    8  A    between atoms: N_20  and  C_21
REMARK    9  A    between atoms: C_24  and  C_28
REMARK                            x       y       z     vdW  Elec       q    Type
REMARK                         _______ _______ _______ _____ _____    ______ ____
ROOT
ATOM      1  C   UNL     1      -6.915  -4.604   0.394  0.00  0.00    +0.182 A 
ATOM      2  N   UNL     1      -7.229  -3.410  -0.052  0.00  0.00    -0.127 NA
ATOM      3  N   UNL     1      -6.178  -2.673  -0.109  0.00  0.00    -0.121 NA
ATOM      4  C   UNL     1      -5.128  -3.351   0.297  0.00  0.00    +0.209 A 
ATOM      5  N   UNL     1      -5.559  -4.605   0.626  0.00  0.00    -0.224 N 
ENDROOT
BRANCH   1  10
ATOM      6  C   UNL     1     -10.524  -9.013   1.200  0.00  0.00    +0.044 C 
ATOM      7  C   UNL     1      -9.579  -7.858   0.990  0.00  0.00    -0.050 A 
ATOM      8  C   UNL     1      -9.979  -6.771   0.233  0.00  0.00    +0.004 A 
ATOM      9  C   UNL     1      -9.118  -5.710   0.036  0.00  0.00    +0.012 A 
ATOM     10  C   UNL     1      -7.842  -5.737   0.601  0.00  0.00    +0.021 A 
ATOM     11  C   UNL     1      -7.444  -6.839   1.359  0.00  0.00    +0.012 A 
ATOM     12  C   UNL     1      -8.316  -7.890   1.553  0.00  0.00    +0.004 A 
ENDBRANCH   1  10
BRANCH   5  13
ATOM     13  N   UNL     1      -4.801  -5.642   1.090  0.00  0.00    -0.295 N 
ATOM     14  H   UNL     1      -3.719  -5.512   1.233  0.00  0.00    +0.163 HD
ATOM     15  H   UNL     1      -5.274  -6.608   1.321  0.00  0.00    +0.163 HD
ENDBRANCH   5  13
BRANCH   4  16
ATOM     16  S   UNL     1      -3.473  -2.756   0.394  0.00  0.00    -0.072 S 
BRANCH  16  17
ATOM     17  C   UNL     1      -3.712  -1.063  -0.201  0.00  0.00    +0.137 C 
ATOM     18  C   UNL     1      -4.160  -1.096  -1.664  0.00  0.00    +0.029 C 
BRANCH  17  19
ATOM     19  C   UNL     1      -2.415  -0.304  -0.090  0.00  0.00    +0.230 C 
ATOM     20  O   UNL     1      -1.359  -0.901  -0.098  0.00  0.00    -0.274 OA
ATOM     21  N   UNL     1      -2.428   1.039   0.019  0.00  0.00    -0.282 N 
ATOM     22  H   UNL     1      -3.385   1.574   0.118  0.00  0.00    +0.155 HD
BRANCH  21  23
ATOM     23  C   UNL     1      -1.224   1.755   0.006  0.00  0.00    +0.069 A 
ATOM     24  C   UNL     1      -0.102   1.217  -0.610  0.00  0.00    +0.026 A 
ATOM     25  C   UNL     1       1.082   1.928  -0.626  0.00  0.00    +0.005 A 
ATOM     26  C   UNL     1       1.154   3.171  -0.025  0.00  0.00    -0.048 A 
ATOM     27  C   UNL     1       0.041   3.709   0.594  0.00  0.00    +0.043 A 
ATOM     28  C   UNL     1      -1.149   3.003   0.614  0.00  0.00    +0.145 A 
ATOM     29  F   UNL     1      -2.237   3.529   1.218  0.00  0.00    -0.204 F 
ATOM     30  C   UNL     1       2.448   3.943  -0.046  0.00  0.00    +0.044 C 
ENDBRANCH  21  23
ENDBRANCH  17  19
ENDBRANCH  16  17
ENDBRANCH   4  16
TORSDOF 6
