REMARK  Name = ZINC05315387
REMARK  7 active torsions:
REMARK  status: ('A' for Active; 'I' for Inactive)
REMARK    1  A    between atoms: C_1  and  C_2
REMARK    2  A    between atoms: C_2  and  O_3
REMARK    3  A    between atoms: O_3  and  C_4
REMARK    4  A    between atoms: C_4  and  C_6
REMARK    5  A    between atoms: C_7  and  C_25
REMARK    6  A    between atoms: C_12  and  C_14
REMARK    7  A    between atoms: C_23  and  O_24
REMARK                            x       y       z     vdW  Elec       q    Type
REMARK                         _______ _______ _______ _____ _____    ______ ____
ROOT
ATOM      1  C   UNL     1      -1.495  -1.198  -1.389  0.00  0.00    +0.078 C 
ATOM      2  C   UNL     1      -1.907  -2.466  -1.607  0.00  0.00    +0.019 C 
ATOM      3  N   UNL     1      -1.869  -3.399  -0.612  0.00  0.00    -0.300 N 
ATOM      4  C   UNL     1      -1.433  -3.146   0.628  0.00  0.00    +0.135 C 
ATOM      5  S   UNL     1      -1.439  -4.410   1.782  0.00  0.00    -0.019 S 
ATOM      6  N   UNL     1      -0.989  -1.928   0.998  0.00  0.00    -0.315 N 
ATOM      7  C   UNL     1      -0.989  -0.848  -0.004  0.00  0.00    +0.145 C 
ATOM      8  C   UNL     1      -2.417  -2.856  -2.970  0.00  0.00    +0.061 C 
ATOM      9  H   UNL     1      -2.176  -4.297  -0.815  0.00  0.00    +0.154 HD
ATOM     10  H   UNL     1      -0.677  -1.766   1.902  0.00  0.00    +0.149 HD
ENDROOT
BRANCH   7  11
ATOM     11  C   UNL     1       0.423  -0.340  -0.139  0.00  0.00    +0.026 A 
ATOM     12  C   UNL     1       0.702   1.025   0.036  0.00  0.00    -0.009 A 
ATOM     13  C   UNL     1      -0.318   1.945   0.334  0.00  0.00    +0.009 A 
ATOM     14  C   UNL     1      -0.010   3.260   0.503  0.00  0.00    +0.001 A 
ATOM     15  C   UNL     1       1.302   3.712   0.373  0.00  0.00    +0.001 A 
ATOM     16  C   UNL     1       2.314   2.851   0.080  0.00  0.00    +0.008 A 
ATOM     17  C   UNL     1       2.037   1.485  -0.095  0.00  0.00    -0.017 A 
ATOM     18  C   UNL     1       3.057   0.567  -0.399  0.00  0.00    +0.012 A 
ATOM     19  C   UNL     1       2.754  -0.748  -0.562  0.00  0.00    +0.046 A 
ATOM     20  C   UNL     1       1.439  -1.205  -0.433  0.00  0.00    +0.123 A 
BRANCH  20  21
ATOM     21  O   UNL     1       1.167  -2.525  -0.603  0.00  0.00    -0.506 OA
ATOM     22  H   UNL     1       0.957  -2.769  -1.515  0.00  0.00    +0.292 HD
ENDBRANCH  20  21
ENDBRANCH   7  11
BRANCH   1  23
ATOM     23  C   UNL     1      -1.534  -0.229  -2.419  0.00  0.00    +0.339 C 
ATOM     24  O   UNL     1      -1.845  -0.555  -3.549  0.00  0.00    -0.245 OA
BRANCH  23  25
ATOM     25  O   UNL     1      -1.226   1.057  -2.148  0.00  0.00    -0.462 OA
BRANCH  25  27
ATOM     26  C   UNL     1      -0.908   3.378  -2.740  0.00  0.00    +0.048 C 
ATOM     27  C   UNL     1      -1.287   1.981  -3.236  0.00  0.00    +0.229 C 
ENDBRANCH  25  27
ENDBRANCH  23  25
ENDBRANCH   1  23
TORSDOF 5
