REMARK  Name = ZINC08386259
REMARK  9 active torsions:
REMARK  status: ('A' for Active; 'I' for Inactive)
REMARK    1  A    between atoms: C_1  and  C_2
REMARK    2  A    between atoms: C_5  and  C_8
REMARK    3  A    between atoms: C_9  and  S_10
REMARK    4  A    between atoms: C_9  and  N_52
REMARK    5  A    between atoms: S_10  and  C_13
REMARK    6  A    between atoms: N_19  and  C_20
REMARK    7  A    between atoms: C_20  and  N_22
REMARK    8  A    between atoms: N_22  and  C_23
REMARK    9  A    between atoms: C_26  and  N_29
REMARK                            x       y       z     vdW  Elec       q    Type
REMARK                         _______ _______ _______ _____ _____    ______ ____
ROOT
ATOM      1  C   UNL     1       3.481  -4.388  -0.434  0.00  0.00    +0.106 C 
ATOM      2  N   UNL     1       2.472  -3.445  -0.495  0.00  0.00    -0.283 N 
ATOM      3  H   UNL     1       1.565  -3.718  -0.703  0.00  0.00    +0.155 HD
ATOM      4  N   UNL     1       4.709  -3.955  -0.135  0.00  0.00    -0.354 N 
ATOM      5  H   UNL     1       4.854  -2.979   0.151  0.00  0.00    +0.162 HD
ENDROOT
BRANCH   1  10
ATOM      6  C   UNL     1       2.298  -9.935  -1.416  0.00  0.00    +0.044 C 
ATOM      7  C   UNL     1       2.608  -8.483  -1.159  0.00  0.00    -0.050 A 
ATOM      8  C   UNL     1       3.413  -8.129  -0.091  0.00  0.00    +0.004 A 
ATOM      9  C   UNL     1       3.700  -6.801   0.149  0.00  0.00    +0.011 A 
ATOM     10  C   UNL     1       3.177  -5.815  -0.687  0.00  0.00    +0.013 A 
ATOM     11  C   UNL     1       2.362  -6.178  -1.759  0.00  0.00    +0.011 A 
ATOM     12  C   UNL     1       2.087  -7.510  -1.992  0.00  0.00    +0.004 A 
ENDBRANCH   1  10
BRANCH   2  13
ATOM     13  C   UNL     1       2.749  -2.146  -0.265  0.00  0.00    +0.140 C 
ATOM     14  S   UNL     1       4.350  -1.664   0.103  0.00  0.00    -0.018 S 
BRANCH  13  15
ATOM     15  N   UNL     1       1.765  -1.227  -0.324  0.00  0.00    -0.297 N 
ATOM     16  H   UNL     1       0.848  -1.506  -0.473  0.00  0.00    +0.154 HD
BRANCH  15  17
ATOM     17  C   UNL     1       2.066   0.131  -0.170  0.00  0.00    +0.033 A 
ATOM     18  C   UNL     1       1.507   1.069  -1.028  0.00  0.00    +0.025 A 
ATOM     19  C   UNL     1       1.806   2.408  -0.873  0.00  0.00    +0.034 A 
ATOM     20  C   UNL     1       2.661   2.816   0.135  0.00  0.00    +0.126 A 
ATOM     21  C   UNL     1       3.219   1.884   0.991  0.00  0.00    +0.034 A 
ATOM     22  C   UNL     1       2.924   0.543   0.841  0.00  0.00    +0.025 A 
BRANCH  20  23
ATOM     23  N   UNL     1       2.979   4.252   0.297  0.00  0.00    +0.056 N 
ATOM     24  O   UNL     1       2.489   5.074  -0.456  0.00  0.00    -0.126 OA
ATOM     25  O   UNL     1       3.732   4.612   1.185  0.00  0.00    -0.126 OA
ENDBRANCH  20  23
ENDBRANCH  15  17
ENDBRANCH  13  15
ENDBRANCH   2  13
BRANCH   4  26
ATOM     26  C   UNL     1       5.880  -4.895  -0.218  0.00  0.00    +0.288 C 
BRANCH  26  27
ATOM     27  S   UNL     1       7.035  -4.263  -1.466  0.00  0.00    +0.015 S 
ATOM     28  O   UNL     1       8.209  -5.063  -1.496  0.00  0.00    -0.168 OA
ATOM     29  O   UNL     1       6.338  -3.954  -2.665  0.00  0.00    -0.168 OA
BRANCH  27  30
ATOM     30  C   UNL     1       7.568  -2.704  -0.841  0.00  0.00    +0.090 A 
ATOM     31  C   UNL     1       6.874  -1.554  -1.167  0.00  0.00    +0.027 A 
ATOM     32  C   UNL     1       7.289  -0.332  -0.673  0.00  0.00    +0.002 A 
ATOM     33  C   UNL     1       8.405  -0.259   0.140  0.00  0.00    +0.000 A 
ATOM     34  C   UNL     1       9.103  -1.407   0.462  0.00  0.00    +0.002 A 
ATOM     35  C   UNL     1       8.684  -2.631  -0.029  0.00  0.00    +0.027 A 
ENDBRANCH  27  30
ENDBRANCH  26  27
ENDBRANCH   4  26
TORSDOF 8
