REMARK  Name = ZINC40493230
REMARK  4 active torsions:
REMARK  status: ('A' for Active; 'I' for Inactive)
REMARK    1  A    between atoms: C_3  and  O_22
REMARK    2  A    between atoms: C_6  and  C_7
REMARK    3  A    between atoms: C_7  and  N_8
REMARK    4  A    between atoms: C_15  and  C_18
REMARK                            x       y       z     vdW  Elec       q    Type
REMARK                         _______ _______ _______ _____ _____    ______ ____
ROOT
ATOM      1  N   UNL     1      -1.727  -1.016  -1.368  0.00  0.00    -0.324 N 
ATOM      2  C   UNL     1      -2.905  -1.713  -1.614  0.00  0.00    +0.140 A 
ATOM      3  C   UNL     1      -3.311  -1.946  -2.943  0.00  0.00    +0.049 A 
ATOM      4  C   UNL     1      -4.460  -2.626  -3.195  0.00  0.00    +0.053 A 
ATOM      5  C   UNL     1      -5.233  -3.091  -2.114  0.00  0.00    +0.178 A 
ATOM      6  N   UNL     1      -6.369  -3.765  -2.023  0.00  0.00    -0.128 NA
ATOM      7  N   UNL     1      -6.658  -3.943  -0.781  0.00  0.00    -0.123 NA
ATOM      8  C   UNL     1      -5.738  -3.403  -0.021  0.00  0.00    +0.258 A 
ATOM      9  N   UNL     1      -4.811  -2.848  -0.831  0.00  0.00    -0.187 N 
ATOM     10  N   UNL     1      -3.622  -2.151  -0.605  0.00  0.00    -0.148 NA
ATOM     11  H   UNL     1      -1.192  -0.690  -2.108  0.00  0.00    +0.148 HD
ENDROOT
BRANCH   8  12
ATOM     12  C   UNL     1      -5.718  -3.400   1.486  0.00  0.00    +0.454 C 
ATOM     13  F   UNL     1      -6.634  -4.342   1.966  0.00  0.00    -0.163 F 
ATOM     14  F   UNL     1      -4.434  -3.725   1.936  0.00  0.00    -0.163 F 
ATOM     15  F   UNL     1      -6.068  -2.129   1.954  0.00  0.00    -0.163 F 
ENDBRANCH   8  12
BRANCH   1  16
ATOM     16  C   UNL     1      -1.293  -0.774   0.011  0.00  0.00    +0.138 C 
BRANCH  16  22
ATOM     17  C   UNL     1      -0.017   1.378   0.010  0.00  0.00    +0.009 A 
ATOM     18  C   UNL     1       1.169   2.087   0.002  0.00  0.00    +0.046 A 
ATOM     19  C   UNL     1       2.380   1.409  -0.013  0.00  0.00    +0.117 A 
ATOM     20  C   UNL     1       2.396   0.022  -0.021  0.00  0.00    +0.046 A 
ATOM     21  C   UNL     1       1.207  -0.681  -0.013  0.00  0.00    +0.009 A 
ATOM     22  C   UNL     1       0.002  -0.004   0.002  0.00  0.00    -0.030 A 
BRANCH  19  23
ATOM     23  O   UNL     1       3.548   2.104  -0.021  0.00  0.00    -0.507 OA
ATOM     24  H   UNL     1       3.895   2.300   0.860  0.00  0.00    +0.292 HD
ENDBRANCH  19  23
ENDBRANCH  16  22
ENDBRANCH   1  16
TORSDOF 4
