REMARK  Name = ZINC35651804
REMARK  6 active torsions:
REMARK  status: ('A' for Active; 'I' for Inactive)
REMARK    1  A    between atoms: C_4  and  N_8
REMARK    2  A    between atoms: C_5  and  C_6
REMARK    3  A    between atoms: N_8  and  S_9
REMARK    4  A    between atoms: S_9  and  C_12
REMARK    5  A    between atoms: N_15  and  C_17
REMARK    6  A    between atoms: C_17  and  C_18
REMARK                            x       y       z     vdW  Elec       q    Type
REMARK                         _______ _______ _______ _____ _____    ______ ____
ROOT
ATOM      1  S   UNL     1       3.120  -2.467  -0.041  0.00  0.00    +0.095 S 
ATOM      2  O   UNL     1       3.663  -2.060  -1.290  0.00  0.00    -0.148 OA
ATOM      3  O   UNL     1       3.687  -2.074   1.201  0.00  0.00    -0.148 OA
ENDROOT
BRANCH   1   4
ATOM      4  C   UNL     1       3.101  -4.229  -0.051  0.00  0.00    +0.148 A 
ATOM      5  C   UNL     1       3.096  -5.058   1.075  0.00  0.00    +0.163 A 
ATOM      6  N   UNL     1       3.080  -6.301   0.667  0.00  0.00    -0.177 NA
ATOM      7  N   UNL     1       3.074  -6.302  -0.733  0.00  0.00    -0.259 N 
ATOM      8  C   UNL     1       3.082  -5.018  -1.150  0.00  0.00    +0.137 A 
BRANCH   7   9
ATOM      9  C   UNL     1       3.057  -7.487  -1.594  0.00  0.00    +0.268 C 
BRANCH   9  10
ATOM     10  C   UNL     1       4.212  -8.386  -1.235  0.00  0.00    +0.377 C 
ATOM     11  O   UNL     1       4.979  -8.066  -0.342  0.00  0.00    -0.244 OA
ATOM     12  O   UNL     1       4.380  -9.433  -1.836  0.00  0.00    -0.244 OA
ENDBRANCH   9  10
ENDBRANCH   7   9
ENDBRANCH   1   4
BRANCH   1  13
ATOM     13  N   UNL     1       1.544  -1.960  -0.024  0.00  0.00    -0.089 NA
BRANCH  13  17
ATOM     14  C   UNL     1      -0.018   1.441   0.010  0.00  0.00    +0.028 A 
ATOM     15  C   UNL     1       1.185   2.044   0.002  0.00  0.00    +0.048 A 
ATOM     16  S   UNL     1       2.328   0.680  -0.017  0.00  0.00    -0.077 S 
ATOM     17  C   UNL     1       1.252  -0.607  -0.013  0.00  0.00    +0.129 A 
ATOM     18  C   UNL     1       0.002  -0.004   0.002  0.00  0.00    +0.083 A 
BRANCH  18  19
ATOM     19  C   UNL     1      -1.206  -0.774   0.010  0.00  0.00    +0.102 C 
ATOM     20  N   UNL     1      -2.163  -1.384   0.016  0.00  0.00    -0.191 NA
ENDBRANCH  18  19
ENDBRANCH  13  17
ENDBRANCH   1  13
TORSDOF 6
