REMARK  Name = ZINC07312186
REMARK  10 active torsions:
REMARK  status: ('A' for Active; 'I' for Inactive)
REMARK    1  A    between atoms: C_1  and  C_2
REMARK    2  A    between atoms: N_4  and  C_5
REMARK    3  A    between atoms: C_8  and  C_11
REMARK    4  A    between atoms: C_11  and  C_12
REMARK    5  A    between atoms: N_14  and  N_15
REMARK    6  A    between atoms: C_16  and  C_18
REMARK    7  A    between atoms: C_25  and  C_28
REMARK    8  A    between atoms: C_28  and  C_29
REMARK    9  A    between atoms: C_28  and  C_30
REMARK   10  A    between atoms: C_28  and  C_31
REMARK                            x       y       z     vdW  Elec       q    Type
REMARK                         _______ _______ _______ _____ _____    ______ ____
ROOT
ATOM      1  N   UNL     1      -3.108   3.578   3.022  0.00  0.00    -0.230 N 
ATOM      2  C   UNL     1      -4.247   4.250   3.280  0.00  0.00    +0.267 C 
ATOM      3  O   UNL     1      -5.011   4.522   2.373  0.00  0.00    -0.268 OA
ATOM      4  H   UNL     1      -2.498   3.361   3.745  0.00  0.00    +0.173 HD
ENDROOT
BRANCH   2   5
ATOM      5  C   UNL     1      -4.565   4.654   4.652  0.00  0.00    +0.076 A 
ATOM      6  C   UNL     1      -5.667   5.342   5.126  0.00  0.00    +0.024 A 
ATOM      7  C   UNL     1      -5.739   5.608   6.484  0.00  0.00    -0.036 A 
ATOM      8  C   UNL     1      -4.702   5.163   7.253  0.00  0.00    -0.006 A 
ATOM      9  S   UNL     1      -3.634   4.380   6.151  0.00  0.00    -0.088 S 
ATOM     10  C   UNL     1      -4.542   5.323   8.734  0.00  0.00    +0.043 C 
ATOM     11  C   UNL     1      -5.538   6.388   9.216  0.00  0.00    +0.009 C 
ATOM     12  C   UNL     1      -6.915   6.079   8.620  0.00  0.00    -0.001 C 
ATOM     13  C   UNL     1      -6.907   6.358   7.117  0.00  0.00    +0.040 C 
BRANCH  12  14
ATOM     14  C   UNL     1      -7.969   6.960   9.295  0.00  0.00    -0.035 C 
ATOM     15  C   UNL     1      -9.347   6.645   8.710  0.00  0.00    +0.011 C 
ATOM     16  C   UNL     1      -7.978   6.682  10.800  0.00  0.00    +0.011 C 
ATOM     17  C   UNL     1      -7.635   8.433   9.051  0.00  0.00    +0.011 C 
ENDBRANCH  12  14
ENDBRANCH   2   5
BRANCH   1  20
ATOM     18  C   UNL     1      -1.665   2.519   1.452  0.00  0.00    +0.233 C 
ATOM     19  O   UNL     1      -0.903   2.248   2.356  0.00  0.00    -0.274 OA
ATOM     20  N   UNL     1      -2.804   3.191   1.710  0.00  0.00    -0.234 N 
ATOM     21  H   UNL     1      -3.413   3.408   0.987  0.00  0.00    +0.173 HD
BRANCH  18  22
ATOM     22  C   UNL     1      -1.338   2.103   0.041  0.00  0.00    +0.132 C 
BRANCH  22  26
ATOM     23  C   UNL     1       2.398   0.029  -0.015  0.00  0.00    +0.033 A 
ATOM     24  C   UNL     1       1.215  -0.674   0.171  0.00  0.00    +0.023 A 
ATOM     25  C   UNL     1       0.010  -0.000   0.191  0.00  0.00    +0.006 A 
ATOM     26  C   UNL     1      -0.020   1.372   0.025  0.00  0.00    -0.038 A 
ATOM     27  C   UNL     1       1.157   2.075  -0.160  0.00  0.00    +0.006 A 
ATOM     28  C   UNL     1       2.365   1.407  -0.181  0.00  0.00    +0.023 A 
BRANCH  23  32
ATOM     29  C   UNL     1       4.979  -2.677  -0.448  0.00  0.00    +0.109 C 
ATOM     30  C   UNL     1       3.690  -1.900  -0.534  0.00  0.00    +0.214 C 
ATOM     31  O   UNL     1       2.715  -2.400  -1.054  0.00  0.00    -0.276 OA
ATOM     32  N   UNL     1       3.622  -0.651  -0.035  0.00  0.00    -0.286 N 
ATOM     33  H   UNL     1       4.420  -0.222   0.311  0.00  0.00    +0.155 HD
ENDBRANCH  23  32
ENDBRANCH  22  26
ENDBRANCH  18  22
ENDBRANCH   1  20
TORSDOF 6
