REMARK  Name = ZINC45255168
REMARK  3 active torsions:
REMARK  status: ('A' for Active; 'I' for Inactive)
REMARK    1  A    between atoms: C_1  and  C_2
REMARK    2  A    between atoms: N_16  and  S_17
REMARK    3  A    between atoms: S_17  and  C_20
REMARK                            x       y       z     vdW  Elec       q    Type
REMARK                         _______ _______ _______ _____ _____    ______ ____
ROOT
ATOM      1  C   UNL     1      -0.019   1.526   0.010  0.00  0.00    +0.035 C 
ATOM      2  C   UNL     1       0.002  -0.004   0.002  0.00  0.00    +0.128 C 
ATOM      3  C   UNL     1      -1.411  -0.531   0.025  0.00  0.00    +0.019 A 
ATOM      4  C   UNL     1      -2.279  -0.748  -0.968  0.00  0.00    +0.111 A 
ATOM      5  N   UNL     1      -3.424  -1.223  -0.422  0.00  0.00    -0.284 N 
ATOM      6  H   UNL     1      -4.227  -1.467  -0.908  0.00  0.00    +0.188 HD
ATOM      7  N   UNL     1      -3.248  -1.304   0.970  0.00  0.00    -0.174 NA
ATOM      8  C   UNL     1      -2.046  -0.895   1.247  0.00  0.00    +0.099 A 
ATOM      9  C   UNL     1      -1.310  -0.772   2.527  0.00  0.00    +0.025 A 
ATOM     10  C   UNL     1      -1.935  -0.865   3.759  0.00  0.00    +0.012 A 
ATOM     11  C   UNL     1      -1.187  -0.728   4.915  0.00  0.00    +0.001 A 
ATOM     12  C   UNL     1       0.176  -0.500   4.837  0.00  0.00    +0.002 A 
ATOM     13  C   UNL     1       0.808  -0.410   3.612  0.00  0.00    +0.025 A 
ATOM     14  C   UNL     1       0.076  -0.551   2.442  0.00  0.00    +0.061 A 
ATOM     15  N   UNL     1       0.702  -0.496   1.197  0.00  0.00    -0.194 N 
ENDROOT
BRANCH  15  16
ATOM     16  S   UNL     1       2.273  -1.000   1.061  0.00  0.00    +0.092 S 
ATOM     17  O   UNL     1       2.506  -1.901   2.135  0.00  0.00    -0.148 OA
ATOM     18  O   UNL     1       2.465  -1.368  -0.298  0.00  0.00    -0.148 OA
BRANCH  16  19
ATOM     19  C   UNL     1       3.297   0.405   1.351  0.00  0.00    +0.197 A 
ATOM     20  C   UNL     1       3.670   1.209   0.291  0.00  0.00    +0.049 A 
ATOM     21  C   UNL     1       4.476   2.312   0.530  0.00  0.00    +0.005 A 
ATOM     22  C   UNL     1       4.879   2.565   1.833  0.00  0.00    +0.020 A 
ATOM     23  C   UNL     1       4.466   1.716   2.842  0.00  0.00    +0.113 A 
ATOM     24  N   UNL     1       3.695   0.679   2.578  0.00  0.00    -0.235 NA
ENDBRANCH  16  19
ENDBRANCH  15  16
TORSDOF 2
