REMARK  Name = ZINC39141104
REMARK  11 active torsions:
REMARK  status: ('A' for Active; 'I' for Inactive)
REMARK    1  A    between atoms: C_1  and  C_2
REMARK    2  A    between atoms: C_3  and  C_33
REMARK    3  A    between atoms: C_4  and  C_16
REMARK    4  A    between atoms: C_19  and  O_31
REMARK    5  A    between atoms: C_20  and  O_22
REMARK    6  A    between atoms: O_22  and  C_23
REMARK    7  A    between atoms: C_23  and  C_24
REMARK    8  A    between atoms: O_31  and  C_32
REMARK    9  A    between atoms: C_33  and  O_35
REMARK   10  A    between atoms: O_35  and  C_36
REMARK   11  A    between atoms: C_36  and  C_37
REMARK                            x       y       z     vdW  Elec       q    Type
REMARK                         _______ _______ _______ _____ _____    ______ ____
ROOT
ATOM      1  C   UNL     1      -0.018   1.503   0.010  0.00  0.00    +0.061 C 
ATOM      2  C   UNL     1       0.002  -0.004   0.002  0.00  0.00    +0.016 C 
ATOM      3  C   UNL     1      -1.156  -0.678   0.004  0.00  0.00    +0.062 C 
ATOM      4  C   UNL     1      -1.237  -2.178  -0.025  0.00  0.00    +0.076 C 
ATOM      5  C   UNL     1       0.065  -2.790   0.498  0.00  0.00    +0.148 C 
ATOM      6  C   UNL     1       1.182  -2.015  -0.182  0.00  0.00    +0.106 C 
ATOM      7  N   UNL     1       2.045  -2.662  -0.909  0.00  0.00    -0.151 NA
ATOM      8  C   UNL     1       1.965  -3.986  -1.099  0.00  0.00    +0.331 C 
ATOM      9  O   UNL     1       2.833  -4.514  -1.768  0.00  0.00    -0.250 OA
ATOM     10  N   UNL     1       0.998  -4.767  -0.603  0.00  0.00    -0.238 N 
ATOM     11  C   UNL     1       0.013  -4.277   0.199  0.00  0.00    +0.231 C 
ATOM     12  O   UNL     1      -0.864  -4.984   0.649  0.00  0.00    -0.275 OA
ATOM     13  N   UNL     1       1.211  -0.665  -0.013  0.00  0.00    -0.307 N 
ATOM     14  H   UNL     1       1.001  -5.713  -0.817  0.00  0.00    +0.159 HD
ATOM     15  H   UNL     1       2.049  -0.188   0.095  0.00  0.00    +0.153 HD
ENDROOT
BRANCH   4  16
ATOM     16  C   UNL     1      -2.382  -2.633   0.843  0.00  0.00    -0.035 A 
ATOM     17  C   UNL     1      -2.396  -2.316   2.189  0.00  0.00    +0.008 A 
ATOM     18  C   UNL     1      -3.444  -2.730   2.989  0.00  0.00    +0.050 A 
ATOM     19  C   UNL     1      -4.484  -3.465   2.443  0.00  0.00    +0.162 A 
ATOM     20  C   UNL     1      -4.470  -3.784   1.089  0.00  0.00    +0.163 A 
ATOM     21  C   UNL     1      -3.419  -3.361   0.291  0.00  0.00    +0.053 A 
BRANCH  19  22
ATOM     22  O   UNL     1      -5.515  -3.874   3.229  0.00  0.00    -0.491 OA
ATOM     23  C   UNL     1      -5.462  -3.511   4.610  0.00  0.00    +0.277 C 
ENDBRANCH  19  22
BRANCH  20  24
ATOM     24  O   UNL     1      -5.489  -4.505   0.548  0.00  0.00    -0.484 OA
BRANCH  24  25
ATOM     25  C   UNL     1      -5.408  -4.795  -0.849  0.00  0.00    +0.264 C 
BRANCH  25  26
ATOM     26  C   UNL     1      -6.615  -5.596  -1.266  0.00  0.00    -0.010 A 
ATOM     27  C   UNL     1      -6.582  -6.977  -1.207  0.00  0.00    +0.008 A 
ATOM     28  C   UNL     1      -7.688  -7.711  -1.590  0.00  0.00    +0.020 A 
ATOM     29  C   UNL     1      -8.829  -7.065  -2.031  0.00  0.00    +0.041 A 
ATOM     30  C   UNL     1      -8.861  -5.683  -2.090  0.00  0.00    +0.020 A 
ATOM     31  C   UNL     1      -7.756  -4.949  -1.702  0.00  0.00    +0.008 A 
ATOM     32 CL   UNL     1     -10.219  -7.987  -2.513  0.00  0.00    -0.084 Cl
ENDBRANCH  25  26
ENDBRANCH  24  25
ENDBRANCH  20  24
ENDBRANCH   4  16
BRANCH   3  33
ATOM     33  C   UNL     1      -2.363   0.059   0.035  0.00  0.00    +0.338 C 
ATOM     34  O   UNL     1      -2.333   1.276   0.059  0.00  0.00    -0.245 OA
BRANCH  33  35
ATOM     35  O   UNL     1      -3.548  -0.586   0.038  0.00  0.00    -0.457 OA
BRANCH  35  36
ATOM     36  C   UNL     1      -4.727   0.222   0.070  0.00  0.00    +0.259 C 
BRANCH  36  37
ATOM     37  C   UNL     1      -5.944  -0.666   0.068  0.00  0.00    +0.006 C 
ATOM     38  C   UNL     1      -6.935  -0.420   0.889  0.00  0.00    +0.007 C 
ENDBRANCH  36  37
ENDBRANCH  35  36
ENDBRANCH  33  35
ENDBRANCH   3  33
TORSDOF 9
