REMARK  Name = ZINC05333969
REMARK  6 active torsions:
REMARK  status: ('A' for Active; 'I' for Inactive)
REMARK    1  A    between atoms: C_1  and  C_2
REMARK    2  A    between atoms: C_2  and  C_3
REMARK    3  A    between atoms: C_2  and  S_6
REMARK    4  A    between atoms: S_6  and  C_7
REMARK    5  A    between atoms: C_11  and  C_14
REMARK    6  A    between atoms: N_22  and  N_23
REMARK                            x       y       z     vdW  Elec       q    Type
REMARK                         _______ _______ _______ _____ _____    ______ ____
ROOT
ATOM      1  C   UNL     1       2.533  -0.042   1.241  0.00  0.00    +0.190 A 
ATOM      2  N   UNL     1       2.839   0.653   0.164  0.00  0.00    -0.215 NA
ATOM      3  C   UNL     1       4.077   1.090  -0.036  0.00  0.00    +0.117 A 
ATOM      4  C   UNL     1       5.114   0.838   0.878  0.00  0.00    +0.081 A 
ATOM      5  C   UNL     1       6.413   1.389   0.506  0.00  0.00    +0.004 A 
ATOM      6  C   UNL     1       6.520   2.078  -0.654  0.00  0.00    +0.056 A 
ATOM      7  S   UNL     1       4.867   2.028  -1.319  0.00  0.00    -0.076 S 
ATOM      8  C   UNL     1       4.753   0.082   2.036  0.00  0.00    +0.280 A 
ATOM      9  O   UNL     1       5.587  -0.184   2.884  0.00  0.00    -0.265 OA
ATOM     10  N   UNL     1       3.479  -0.327   2.182  0.00  0.00    -0.209 N 
ENDROOT
BRANCH   5  11
ATOM     11  C   UNL     1       7.594   1.197   1.381  0.00  0.00    -0.017 A 
ATOM     12  C   UNL     1       7.509   1.484   2.743  0.00  0.00    +0.008 A 
ATOM     13  C   UNL     1       8.612   1.303   3.553  0.00  0.00    +0.001 A 
ATOM     14  C   UNL     1       9.799   0.837   3.017  0.00  0.00    +0.000 A 
ATOM     15  C   UNL     1       9.889   0.551   1.666  0.00  0.00    +0.001 A 
ATOM     16  C   UNL     1       8.791   0.723   0.847  0.00  0.00    +0.008 A 
ENDBRANCH   5  11
BRANCH  10  17
ATOM     17  N   UNL     1       3.128  -1.044   3.290  0.00  0.00    -0.293 N 
ATOM     18  H   UNL     1       3.921  -1.181   3.899  0.00  0.00    +0.163 HD
ATOM     19  H   UNL     1       2.367  -0.600   3.782  0.00  0.00    +0.163 HD
ENDBRANCH  10  17
BRANCH   1  20
ATOM     20  S   UNL     1       0.879  -0.605   1.472  0.00  0.00    -0.074 S 
BRANCH  20  22
ATOM     21  C   UNL     1      -0.019   1.526   0.010  0.00  0.00    +0.029 C 
ATOM     22  C   UNL     1       0.002  -0.004   0.002  0.00  0.00    +0.137 C 
BRANCH  22  23
ATOM     23  C   UNL     1      -1.412  -0.526   0.013  0.00  0.00    +0.224 C 
ATOM     24  O   UNL     1      -1.939  -0.827   1.062  0.00  0.00    -0.275 OA
ATOM     25  N   UNL     1      -2.090  -0.657  -1.144  0.00  0.00    -0.328 N 
ATOM     26  H   UNL     1      -1.669  -0.416  -1.984  0.00  0.00    +0.145 HD
ATOM     27  H   UNL     1      -3.000  -0.993  -1.137  0.00  0.00    +0.145 HD
ENDBRANCH  22  23
ENDBRANCH  20  22
ENDBRANCH   1  20
TORSDOF 5
