REMARK  Name = ZINC29480663
REMARK  8 active torsions:
REMARK  status: ('A' for Active; 'I' for Inactive)
REMARK    1  A    between atoms: C_1  and  C_2
REMARK    2  A    between atoms: C_10  and  C_11
REMARK    3  A    between atoms: N_13  and  C_14
REMARK    4  A    between atoms: N_13  and  C_15
REMARK    5  A    between atoms: C_15  and  C_17
REMARK    6  A    between atoms: C_15  and  C_18
REMARK    7  A    between atoms: C_21  and  S_24
REMARK    8  A    between atoms: S_24  and  N_27
REMARK                            x       y       z     vdW  Elec       q    Type
REMARK                         _______ _______ _______ _____ _____    ______ ____
ROOT
ATOM      1  C   UNL     1      -4.713   4.859   4.947  0.00  0.00    +0.282 C 
ATOM      2  O   UNL     1      -5.576   4.003   5.000  0.00  0.00    -0.267 OA
ATOM      3  N   UNL     1      -3.417   4.505   4.840  0.00  0.00    -0.291 N 
ATOM      4  C   UNL     1      -2.389   5.534   4.661  0.00  0.00    +0.133 C 
ENDROOT
BRANCH   1  14
ATOM      5  C   UNL     1      -7.593   5.938   5.414  0.00  0.00    +0.048 C 
ATOM      6  C   UNL     1      -6.342   6.752   5.205  0.00  0.00    +0.008 A 
ATOM      7  C   UNL     1      -6.236   8.211   5.181  0.00  0.00    +0.025 A 
ATOM      8  C   UNL     1      -7.152   9.256   5.327  0.00  0.00    +0.032 A 
ATOM      9  C   UNL     1      -6.719  10.551   5.250  0.00  0.00    +0.042 A 
ATOM     10  C   UNL     1      -5.377  10.832   5.029  0.00  0.00    +0.023 A 
ATOM     11  C   UNL     1      -4.459   9.815   4.883  0.00  0.00    +0.048 A 
ATOM     12  C   UNL     1      -4.875   8.491   4.957  0.00  0.00    +0.136 A 
ATOM     13  O   UNL     1      -4.228   7.313   4.862  0.00  0.00    -0.450 OA
ATOM     14  C   UNL     1      -5.085   6.280   5.002  0.00  0.00    +0.194 A 
ATOM     15 CL   UNL     1      -7.855  11.851   5.429  0.00  0.00    -0.084 Cl
ENDBRANCH   1  14
BRANCH   3  16
ATOM     16  C   UNL     1      -3.037   3.092   4.901  0.00  0.00    +0.103 C 
ATOM     17  C   UNL     1      -2.183   2.847   6.147  0.00  0.00    +0.033 C 
BRANCH  16  18
ATOM     18  C   UNL     1      -2.245   2.731   3.670  0.00  0.00    -0.027 A 
ATOM     19  C   UNL     1      -1.150   1.894   3.774  0.00  0.00    +0.007 A 
ATOM     20  C   UNL     1      -0.424   1.563   2.645  0.00  0.00    +0.029 A 
ATOM     21  C   UNL     1      -0.793   2.069   1.413  0.00  0.00    +0.105 A 
ATOM     22  C   UNL     1      -1.885   2.910   1.310  0.00  0.00    +0.029 A 
ATOM     23  C   UNL     1      -2.615   3.237   2.438  0.00  0.00    +0.007 A 
BRANCH  21  24
ATOM     24  S   UNL     1       0.132   1.647  -0.026  0.00  0.00    +0.056 S 
ATOM     25  O   UNL     1       1.433   1.288   0.419  0.00  0.00    -0.153 OA
ATOM     26  O   UNL     1      -0.090   2.685  -0.971  0.00  0.00    -0.153 OA
BRANCH  24  27
ATOM     27  N   UNL     1      -0.546   0.276  -0.660  0.00  0.00    -0.204 NA
ATOM     28  H   UNL     1       0.005  -0.021  -1.564  0.00  0.00    +0.144 HD
ATOM     29  H   UNL     1      -1.597   0.474  -0.920  0.00  0.00    +0.144 HD
ENDBRANCH  24  27
ENDBRANCH  21  24
ENDBRANCH  16  18
ENDBRANCH   3  16
TORSDOF 5
