REMARK  Name = ZINC45286239
REMARK  8 active torsions:
REMARK  status: ('A' for Active; 'I' for Inactive)
REMARK    1  A    between atoms: C_3  and  C_32
REMARK    2  A    between atoms: C_5  and  C_7
REMARK    3  A    between atoms: C_11  and  O_13
REMARK    4  A    between atoms: O_13  and  C_14
REMARK    5  A    between atoms: C_18  and  O_20
REMARK    6  A    between atoms: O_20  and  C_21
REMARK    7  A    between atoms: C_25  and  C_27
REMARK    8  A    between atoms: C_32  and  N_33
REMARK                            x       y       z     vdW  Elec       q    Type
REMARK                         _______ _______ _______ _____ _____    ______ ____
ROOT
ATOM      1  O   UNL     1      -0.523  -5.125  -2.190  0.00  0.00    -0.436 OA
ENDROOT
BRANCH   1   2
ATOM      2  C   UNL     1      -0.584  -6.429  -1.817  0.00  0.00    +0.260 A 
ATOM      3  C   UNL     1      -1.743  -7.158  -2.055  0.00  0.00    +0.188 A 
ATOM      4  C   UNL     1      -1.796  -8.489  -1.671  0.00  0.00    +0.087 A 
ATOM      5  C   UNL     1      -0.683  -9.047  -1.059  0.00  0.00    +0.188 A 
ATOM      6  C   UNL     1       0.442  -8.260  -0.852  0.00  0.00    +0.260 A 
ATOM      7  N   UNL     1       0.461  -6.993  -1.236  0.00  0.00    -0.172 NA
ATOM      8  F   UNL     1      -0.694 -10.340  -0.669  0.00  0.00    -0.200 F 
ATOM      9  F   UNL     1      -2.805  -6.576  -2.654  0.00  0.00    -0.200 F 
BRANCH   6  10
ATOM     10  O   UNL     1       1.536  -8.796  -0.253  0.00  0.00    -0.436 OA
BRANCH  10  11
ATOM     11  C   UNL     1       2.608  -7.988  -0.040  0.00  0.00    +0.131 A 
ATOM     12  C   UNL     1       2.430  -6.615   0.074  0.00  0.00    +0.046 A 
ATOM     13  C   UNL     1       3.516  -5.788   0.291  0.00  0.00    +0.004 A 
ATOM     14  C   UNL     1       4.784  -6.320   0.397  0.00  0.00    +0.015 A 
ATOM     15  C   UNL     1       4.974  -7.699   0.285  0.00  0.00    +0.067 A 
ATOM     16  C   UNL     1       3.875  -8.534   0.071  0.00  0.00    +0.061 A 
BRANCH  15  17
ATOM     17  C   UNL     1       6.329  -8.272   0.397  0.00  0.00    +0.387 C 
ATOM     18  O   UNL     1       7.289  -7.539   0.589  0.00  0.00    -0.241 OA
ATOM     19  O   UNL     1       6.492  -9.480   0.298  0.00  0.00    -0.241 OA
ENDBRANCH  15  17
ENDBRANCH  10  11
ENDBRANCH   6  10
ENDBRANCH   1   2
BRANCH   1  24
ATOM     20  C   UNL     1       1.559  -2.577  -0.619  0.00  0.00    -0.014 A 
ATOM     21  C   UNL     1       2.817  -2.954  -1.087  0.00  0.00    +0.009 A 
ATOM     22  C   UNL     1       2.945  -4.050  -1.916  0.00  0.00    +0.004 A 
ATOM     23  C   UNL     1       1.829  -4.777  -2.285  0.00  0.00    +0.046 A 
ATOM     24  C   UNL     1       0.572  -4.408  -1.824  0.00  0.00    +0.131 A 
ATOM     25  C   UNL     1       0.435  -3.312  -0.987  0.00  0.00    +0.054 A 
BRANCH  20  30
ATOM     26  C   UNL     1       0.037   0.071   1.573  0.00  0.00    +0.001 A 
ATOM     27  C   UNL     1       1.156   0.798   1.936  0.00  0.00    +0.002 A 
ATOM     28  C   UNL     1       2.406   0.432   1.471  0.00  0.00    -0.064 A 
ATOM     29  C   UNL     1       2.542  -0.663   0.641  0.00  0.00    +0.010 A 
ATOM     30  C   UNL     1       1.418  -1.399   0.273  0.00  0.00    -0.018 A 
ATOM     31  C   UNL     1       0.162  -1.025   0.745  0.00  0.00    +0.008 A 
BRANCH  28  32
ATOM     32  C   UNL     1       3.621   1.229   1.869  0.00  0.00    -0.051 C 
BRANCH  32  33
ATOM     33  N   UNL     1       4.188   0.673   3.105  0.00  0.00    +0.381 N 
ATOM     34  H   UNL     1       3.500   0.718   3.841  0.00  0.00    -0.090 HD
ATOM     35  H   UNL     1       4.453  -0.289   2.950  0.00  0.00    -0.090 HD
ATOM     36  H   UNL     1       5.001   1.207   3.372  0.00  0.00    -0.090 HD
ENDBRANCH  32  33
ENDBRANCH  28  32
ENDBRANCH  20  30
ENDBRANCH   1  24
TORSDOF 8
