REMARK  Name = ZINC03358361
REMARK  11 active torsions:
REMARK  status: ('A' for Active; 'I' for Inactive)
REMARK    1  A    between atoms: C_1  and  C_2
REMARK    2  A    between atoms: C_15  and  C_17
REMARK    3  A    between atoms: C_17  and  O_18
REMARK    4  A    between atoms: O_18  and  C_19
REMARK    5  A    between atoms: C_19  and  C_21
REMARK    6  A    between atoms: C_23  and  O_31
REMARK    7  A    between atoms: C_24  and  O_29
REMARK    8  A    between atoms: C_26  and  O_27
REMARK    9  A    between atoms: O_27  and  C_28
REMARK   10  A    between atoms: O_29  and  C_30
REMARK   11  A    between atoms: O_31  and  C_32
REMARK                            x       y       z     vdW  Elec       q    Type
REMARK                         _______ _______ _______ _____ _____    ______ ____
ROOT
ATOM      1  C   UNL     1       5.363   7.003  -0.104  0.00  0.00    +0.008 C 
ATOM      2  C   UNL     1       4.303   5.937  -0.388  0.00  0.00    -0.009 C 
ATOM      3  C   UNL     1       4.600   4.684   0.440  0.00  0.00    +0.008 C 
ATOM      4  C   UNL     1       3.701   3.534  -0.016  0.00  0.00    +0.037 C 
ATOM      5  C   UNL     1       2.250   4.007   0.001  0.00  0.00    -0.023 A 
ATOM      6  C   UNL     1       1.954   5.324   0.011  0.00  0.00    -0.004 A 
ATOM      7  S   UNL     1       0.183   5.397   0.029  0.00  0.00    -0.073 S 
ATOM      8  C   UNL     1      -0.155   3.654   0.023  0.00  0.00    +0.116 A 
ATOM      9  C   UNL     1       1.123   3.074   0.007  0.00  0.00    +0.075 A 
ATOM     10  C   UNL     1       1.153   1.641  -0.000  0.00  0.00    +0.260 A 
ATOM     11  O   UNL     1       2.216   1.044  -0.013  0.00  0.00    -0.267 OA
ATOM     12  N   UNL     1      -0.011   0.966   0.007  0.00  0.00    -0.308 N 
ATOM     13  H   UNL     1       0.002  -0.004   0.002  0.00  0.00    +0.170 HD
ATOM     14  C   UNL     1      -1.204   1.615   0.017  0.00  0.00    +0.149 A 
ATOM     15  N   UNL     1      -1.264   2.919   0.029  0.00  0.00    -0.223 NA
ATOM     16  C   UNL     1       2.918   6.471   0.006  0.00  0.00    +0.046 C 
ENDROOT
BRANCH  14  17
ATOM     17  C   UNL     1      -2.481   0.815   0.019  0.00  0.00    +0.306 C 
BRANCH  17  18
ATOM     18  O   UNL     1      -3.618   1.719   0.029  0.00  0.00    -0.453 OA
BRANCH  18  19
ATOM     19  C   UNL     1      -4.844   1.160   0.032  0.00  0.00    +0.343 C 
ATOM     20  O   UNL     1      -4.960  -0.050   0.026  0.00  0.00    -0.245 OA
BRANCH  19  21
ATOM     21  C   UNL     1      -6.042   2.014   0.042  0.00  0.00    +0.104 A 
ATOM     22  C   UNL     1      -5.911   3.408   0.055  0.00  0.00    +0.068 A 
ATOM     23  C   UNL     1      -7.037   4.204   0.059  0.00  0.00    +0.162 A 
ATOM     24  C   UNL     1      -8.306   3.623   0.062  0.00  0.00    +0.165 A 
ATOM     25  C   UNL     1      -8.443   2.244   0.055  0.00  0.00    +0.095 A 
ATOM     26  C   UNL     1      -7.320   1.435   0.046  0.00  0.00    +0.138 A 
BRANCH  26  27
ATOM     27  O   UNL     1      -7.454   0.084   0.039  0.00  0.00    -0.494 OA
ATOM     28  C   UNL     1      -8.786  -0.435   0.043  0.00  0.00    +0.277 C 
ENDBRANCH  26  27
BRANCH  24  29
ATOM     29  O   UNL     1      -9.411   4.412   0.072  0.00  0.00    -0.491 OA
ATOM     30  C   UNL     1     -10.679   3.753   0.075  0.00  0.00    +0.277 C 
ENDBRANCH  24  29
BRANCH  23  31
ATOM     31  O   UNL     1      -6.910   5.559   0.066  0.00  0.00    -0.491 OA
ATOM     32  C   UNL     1      -5.582   6.086   0.061  0.00  0.00    +0.277 C 
ENDBRANCH  23  31
ENDBRANCH  19  21
ENDBRANCH  18  19
ENDBRANCH  17  18
ENDBRANCH  14  17
TORSDOF 7
