REMARK  Name = ZINC19733806
REMARK  4 active torsions:
REMARK  status: ('A' for Active; 'I' for Inactive)
REMARK    1  A    between atoms: C_11  and  C_13
REMARK    2  A    between atoms: C_13  and  S_14
REMARK    3  A    between atoms: S_14  and  C_15
REMARK    4  A    between atoms: C_21  and  N_24
REMARK                            x       y       z     vdW  Elec       q    Type
REMARK                         _______ _______ _______ _____ _____    ______ ____
ROOT
ATOM      1  C   UNL     1      -1.327   1.948   0.044  0.00  0.00    +0.173 C 
ENDROOT
BRANCH   1  12
ATOM      2  C   UNL     1       4.766  -0.147   0.304  0.00  0.00    +0.000 A 
ATOM      3  C   UNL     1       3.577  -0.800   0.575  0.00  0.00    +0.002 A 
ATOM      4  C   UNL     1       2.381  -0.118   0.478  0.00  0.00    +0.024 A 
ATOM      5  C   UNL     1       2.372   1.222   0.109  0.00  0.00    +0.039 A 
ATOM      6  C   UNL     1       3.563   1.877  -0.166  0.00  0.00    -0.026 A 
ATOM      7  C   UNL     1       4.759   1.185  -0.073  0.00  0.00    +0.005 A 
ATOM      8  C   UNL     1       3.591   3.331  -0.557  0.00  0.00    +0.038 C 
ATOM      9  C   UNL     1       2.226   3.768  -1.089  0.00  0.00    +0.024 C 
ATOM     10  C   UNL     1       1.146   3.362  -0.077  0.00  0.00    +0.114 C 
ATOM     11  N   UNL     1       1.145   1.895   0.013  0.00  0.00    -0.270 N 
ATOM     12  C   UNL     1      -0.014   1.209   0.009  0.00  0.00    +0.230 C 
ATOM     13  O   UNL     1      -0.002  -0.004  -0.028  0.00  0.00    -0.274 OA
ENDBRANCH   1  12
BRANCH   1  14
ATOM     14  S   UNL     1      -2.688   0.756   0.186  0.00  0.00    -0.076 S 
BRANCH  14  15
ATOM     15  C   UNL     1      -4.134   1.763   0.214  0.00  0.00    +0.196 A 
ATOM     16  N   UNL     1      -4.171   3.075   0.151  0.00  0.00    -0.122 NA
ATOM     17  N   UNL     1      -5.388   3.489   0.194  0.00  0.00    -0.129 NA
ATOM     18  C   UNL     1      -6.206   2.456   0.296  0.00  0.00    +0.162 A 
ATOM     19  N   UNL     1      -5.421   1.324   0.312  0.00  0.00    -0.276 N 
ATOM     20  C   UNL     1      -5.994   0.084   0.412  0.00  0.00    +0.118 A 
ATOM     21  C   UNL     1      -7.339  -0.044   0.495  0.00  0.00    +0.042 A 
ATOM     22  C   UNL     1      -8.165   1.101   0.481  0.00  0.00    +0.028 A 
ATOM     23  C   UNL     1      -7.608   2.336   0.383  0.00  0.00    +0.050 A 
BRANCH  21  24
ATOM     24  N   UNL     1      -7.914  -1.318   0.597  0.00  0.00    -0.357 N 
ATOM     25  H   UNL     1      -9.007  -1.424   0.665  0.00  0.00    +0.142 HD
ATOM     26  H   UNL     1      -7.273  -2.212   0.609  0.00  0.00    +0.142 HD
ENDBRANCH  21  24
ENDBRANCH  14  15
ENDBRANCH   1  14
TORSDOF 4
