REMARK  Name = ZINC39457042
REMARK  5 active torsions:
REMARK  status: ('A' for Active; 'I' for Inactive)
REMARK    1  A    between atoms: C_1  and  C_2
REMARK    2  A    between atoms: C_3  and  C_29
REMARK    3  A    between atoms: N_6  and  C_7
REMARK    4  A    between atoms: C_12  and  O_13
REMARK    5  A    between atoms: C_34  and  O_35
REMARK                            x       y       z     vdW  Elec       q    Type
REMARK                         _______ _______ _______ _____ _____    ______ ____
ROOT
ATOM      1  C   UNL     1      -0.018   1.503   0.010  0.00  0.00    +0.064 C 
ATOM      2  C   UNL     1       0.002  -0.004   0.002  0.00  0.00    +0.030 A 
ATOM      3  C   UNL     1       0.008  -0.797  -1.112  0.00  0.00    +0.010 A 
ATOM      4  C   UNL     1       0.026  -2.133  -0.677  0.00  0.00    -0.012 A 
ATOM      5  C   UNL     1       0.047  -2.109   0.694  0.00  0.00    +0.077 A 
ATOM      6  N   UNL     1       0.024  -0.806   1.104  0.00  0.00    -0.308 N 
ATOM      7  C   UNL     1       0.116  -3.340   1.503  0.00  0.00    +0.102 A 
ATOM      8  C   UNL     1       1.078  -4.361   1.061  0.00  0.00    +0.081 A 
ATOM      9  C   UNL     1       1.157  -5.558   1.761  0.00  0.00    +0.145 A 
ATOM     10  C   UNL     1       0.316  -5.718   2.884  0.00  0.00    +0.036 A 
ATOM     11  C   UNL     1       0.345  -6.908   3.631  0.00  0.00    +0.013 A 
ATOM     12  C   UNL     1      -0.462  -7.043   4.720  0.00  0.00    +0.001 A 
ATOM     13  C   UNL     1      -1.319  -6.015   5.104  0.00  0.00    +0.002 A 
ATOM     14  C   UNL     1      -1.378  -4.851   4.399  0.00  0.00    +0.028 A 
ATOM     15  C   UNL     1      -0.564  -4.675   3.265  0.00  0.00    +0.075 A 
ATOM     16  N   UNL     1      -0.633  -3.536   2.563  0.00  0.00    -0.244 NA
ATOM     17  F   UNL     1       2.010  -6.535   1.381  0.00  0.00    -0.204 F 
ATOM     18  C   UNL     1       1.927  -4.065  -0.088  0.00  0.00    +0.168 C 
ATOM     19  O   UNL     1       3.099  -3.804   0.088  0.00  0.00    -0.292 OA
ATOM     20  C   UNL     1       1.373  -4.076  -1.495  0.00  0.00    +0.084 C 
ATOM     21  C   UNL     1       0.005  -3.384  -1.509  0.00  0.00    +0.046 C 
ENDROOT
BRANCH   6  22
ATOM     22  C   UNL     1       0.020  -0.368   2.435  0.00  0.00    +0.089 A 
ATOM     23  C   UNL     1      -1.182  -0.182   3.103  0.00  0.00    +0.030 A 
ATOM     24  C   UNL     1      -1.183   0.250   4.415  0.00  0.00    +0.002 A 
ATOM     25  C   UNL     1       0.011   0.498   5.067  0.00  0.00    +0.004 A 
ATOM     26  C   UNL     1       1.213   0.315   4.408  0.00  0.00    +0.047 A 
ATOM     27  C   UNL     1       1.223  -0.123   3.094  0.00  0.00    +0.141 A 
BRANCH  27  28
ATOM     28  O   UNL     1       2.404  -0.308   2.446  0.00  0.00    -0.505 OA
ATOM     29  H   UNL     1       2.726   0.477   1.983  0.00  0.00    +0.292 HD
ENDBRANCH  27  28
ENDBRANCH   6  22
BRANCH   3  30
ATOM     30  C   UNL     1      -0.003  -0.332  -2.521  0.00  0.00    +0.026 A 
ATOM     31  C   UNL     1       1.196  -0.103  -3.191  0.00  0.00    +0.012 A 
ATOM     32  C   UNL     1       1.181   0.329  -4.502  0.00  0.00    +0.001 A 
ATOM     33  C   UNL     1      -0.022   0.537  -5.153  0.00  0.00    +0.004 A 
ATOM     34  C   UNL     1      -1.218   0.314  -4.497  0.00  0.00    +0.046 A 
ATOM     35  C   UNL     1      -1.217  -0.126  -3.183  0.00  0.00    +0.125 A 
BRANCH  35  36
ATOM     36  O   UNL     1      -2.392  -0.352  -2.538  0.00  0.00    -0.506 OA
ATOM     37  H   UNL     1      -2.741   0.422  -2.075  0.00  0.00    +0.292 HD
ENDBRANCH  35  36
ENDBRANCH   3  30
TORSDOF 4
