REMARK  Name = ZINC04733878
REMARK  3 active torsions:
REMARK  status: ('A' for Active; 'I' for Inactive)
REMARK    1  A    between atoms: C_1  and  N_2
REMARK    2  A    between atoms: N_15  and  N_16
REMARK    3  A    between atoms: C_17  and  C_18
REMARK                            x       y       z     vdW  Elec       q    Type
REMARK                         _______ _______ _______ _____ _____    ______ ____
ROOT
ATOM      1  C   UNL     1     -10.086  -0.222   0.050  0.00  0.00    +0.151 C 
ATOM      2  N   UNL     1      -9.645   1.176   0.055  0.00  0.00    -0.326 N 
ATOM      3  C   UNL     1     -10.493   2.272   0.065  0.00  0.00    +0.053 A 
ATOM      4  C   UNL     1     -11.879   2.382   0.071  0.00  0.00    +0.026 A 
ATOM      5  C   UNL     1     -12.473   3.626   0.080  0.00  0.00    +0.002 A 
ATOM      6  C   UNL     1     -11.699   4.777   0.082  0.00  0.00    +0.001 A 
ATOM      7  C   UNL     1     -10.323   4.688   0.076  0.00  0.00    +0.012 A 
ATOM      8  C   UNL     1      -9.711   3.437   0.067  0.00  0.00    +0.029 A 
ATOM      9  C   UNL     1      -8.306   2.994   0.058  0.00  0.00    +0.138 A 
ATOM     10  C   UNL     1      -8.335   1.584   0.051  0.00  0.00    +0.165 A 
ATOM     11  N   UNL     1      -7.178   0.929   0.037  0.00  0.00    -0.192 NA
ATOM     12  C   UNL     1      -6.043   1.616   0.040  0.00  0.00    +0.256 A 
ATOM     13  N   UNL     1      -6.041   2.945   0.047  0.00  0.00    -0.111 NA
ATOM     14  N   UNL     1      -7.139   3.622   0.056  0.00  0.00    -0.142 NA
ATOM     15  N   UNL     1      -4.837   0.935   0.031  0.00  0.00    -0.204 N 
ATOM     16  H   UNL     1      -4.828  -0.034   0.026  0.00  0.00    +0.177 HD
ENDROOT
BRANCH  15  17
ATOM     17  N   UNL     1      -3.631   1.648   0.029  0.00  0.00    -0.188 NA
ATOM     18  C   UNL     1      -2.501   1.010   0.020  0.00  0.00    +0.138 C 
BRANCH  18  19
ATOM     19  C   UNL     1      -1.231   1.759   0.017  0.00  0.00    -0.005 A 
ATOM     20  C   UNL     1      -0.013   1.076   0.008  0.00  0.00    +0.010 A 
ATOM     21  C   UNL     1       1.171   1.783   0.001  0.00  0.00    +0.016 A 
ATOM     22  C   UNL     1       1.154   3.168   0.008  0.00  0.00    +0.018 A 
ATOM     23  C   UNL     1      -0.050   3.851   0.022  0.00  0.00    +0.016 A 
ATOM     24  C   UNL     1      -1.241   3.156   0.030  0.00  0.00    +0.010 A 
ATOM     25 BR   UNL     1       2.783   4.129  -0.003  0.00  0.00    -0.050 Br
ENDBRANCH  18  19
ENDBRANCH  15  17
TORSDOF 2
