REMARK  Name = ZINC39552438
REMARK  7 active torsions:
REMARK  status: ('A' for Active; 'I' for Inactive)
REMARK    1  A    between atoms: C_4  and  C_7
REMARK    2  A    between atoms: C_11  and  C_13
REMARK    3  A    between atoms: C_13  and  N_14
REMARK    4  A    between atoms: C_15  and  C_17
REMARK    5  A    between atoms: C_17  and  C_18
REMARK    6  A    between atoms: N_25  and  C_26
REMARK    7  A    between atoms: C_26  and  C_27
REMARK                            x       y       z     vdW  Elec       q    Type
REMARK                         _______ _______ _______ _____ _____    ______ ____
ROOT
ATOM      1  N   UNL     1       3.369  -3.963   1.297  0.00  0.00    -0.314 N 
ATOM      2  C   UNL     1       2.895  -4.839   2.206  0.00  0.00    +0.212 C 
ATOM      3  O   UNL     1       2.255  -4.440   3.156  0.00  0.00    -0.276 OA
ATOM      4  H   UNL     1       3.881  -4.282   0.537  0.00  0.00    +0.149 HD
ENDROOT
BRANCH   1   5
ATOM      5  C   UNL     1       3.111  -2.530   1.457  0.00  0.00    +0.119 C 
BRANCH   5  10
ATOM      6  C   UNL     1       3.399  -0.291   0.371  0.00  0.00    +0.080 C 
ATOM      7  N   UNL     1       4.532   0.339   0.517  0.00  0.00    -0.153 NA
ATOM      8  N   UNL     1       5.617  -0.530   0.547  0.00  0.00    -0.161 NA
ATOM      9  C   UNL     1       5.263  -1.768   0.425  0.00  0.00    +0.119 C 
ATOM     10  C   UNL     1       3.753  -1.764   0.299  0.00  0.00    +0.100 C 
BRANCH   6  14
ATOM     11  C   UNL     1      -0.475   1.422   0.160  0.00  0.00    +0.000 A 
ATOM     12  C   UNL     1       0.631   2.239   0.311  0.00  0.00    +0.001 A 
ATOM     13  C   UNL     1       1.894   1.690   0.381  0.00  0.00    +0.010 A 
ATOM     14  C   UNL     1       2.055   0.303   0.298  0.00  0.00    -0.001 A 
ATOM     15  C   UNL     1       0.931  -0.516   0.146  0.00  0.00    +0.010 A 
ATOM     16  C   UNL     1      -0.325   0.049   0.077  0.00  0.00    +0.001 A 
ENDBRANCH   6  14
ENDBRANCH   5  10
ENDBRANCH   1   5
BRANCH   2  17
ATOM     17  C   UNL     1       3.161  -6.313   2.041  0.00  0.00    +0.089 C 
BRANCH  17  18
ATOM     18  C   UNL     1       2.646  -7.064   3.271  0.00  0.00    +0.028 C 
ATOM     19  C   UNL     1       1.174  -6.808   3.431  0.00  0.00    +0.200 C 
ATOM     20  O   UNL     1       0.472  -6.812   2.442  0.00  0.00    -0.278 OA
ATOM     21  N   UNL     1       0.607  -6.576   4.620  0.00  0.00    -0.318 N 
ATOM     22  C   UNL     1       1.375  -6.524   5.862  0.00  0.00    +0.085 C 
ATOM     23  C   UNL     1       2.740  -7.183   5.657  0.00  0.00    -0.058 C 
ATOM     24  N   UNL     1       3.369  -6.602   4.462  0.00  0.00    +0.392 N 
ATOM     25  H   UNL     1      -0.352  -6.436   4.659  0.00  0.00    +0.149 HD
ATOM     26  H   UNL     1       3.329  -5.595   4.512  0.00  0.00    -0.080 HD
BRANCH  24  27
ATOM     27  C   UNL     1       4.771  -7.037   4.386  0.00  0.00    -0.034 C 
BRANCH  27  28
ATOM     28  C   UNL     1       5.544  -6.442   5.535  0.00  0.00    -0.027 A 
ATOM     29  C   UNL     1       5.757  -6.950   6.774  0.00  0.00    +0.009 A 
ATOM     30  C   UNL     1       6.508  -6.220   7.677  0.00  0.00    +0.008 A 
ATOM     31  C   UNL     1       7.008  -5.019   7.297  0.00  0.00    +0.045 A 
ATOM     32  S   UNL     1       6.423  -4.891   5.615  0.00  0.00    -0.103 S 
ENDBRANCH  27  28
ENDBRANCH  24  27
ENDBRANCH  17  18
ENDBRANCH   2  17
TORSDOF 7
