REMARK  Name = ZINC63314539
REMARK  7 active torsions:
REMARK  status: ('A' for Active; 'I' for Inactive)
REMARK    1  A    between atoms: C_1  and  O_2
REMARK    2  A    between atoms: O_2  and  C_3
REMARK    3  A    between atoms: C_9  and  C_12
REMARK    4  A    between atoms: C_12  and  C_13
REMARK    5  A    between atoms: C_13  and  N_14
REMARK    6  A    between atoms: C_15  and  C_17
REMARK    7  A    between atoms: C_21  and  C_24
REMARK                            x       y       z     vdW  Elec       q    Type
REMARK                         _______ _______ _______ _____ _____    ______ ____
ROOT
ATOM      1  N   UNL     1      -0.752  -6.781  -1.509  0.00  0.00    -0.311 N 
ATOM      2  C   UNL     1      -1.922  -7.385  -1.796  0.00  0.00    +0.266 C 
ATOM      3  O   UNL     1      -2.617  -6.964  -2.697  0.00  0.00    -0.271 OA
ATOM      4  H   UNL     1      -0.196  -7.118  -0.789  0.00  0.00    +0.149 HD
ENDROOT
BRANCH   2   5
ATOM      5  C   UNL     1      -2.367  -8.584  -0.999  0.00  0.00    +0.343 C 
ATOM      6  N   UNL     1      -2.796  -8.172   0.344  0.00  0.00    -0.172 NA
ATOM      7  N   UNL     1      -3.853  -8.741   0.646  0.00  0.00    -0.278 N 
ATOM      8  C   UNL     1      -4.286  -9.617  -0.450  0.00  0.00    +0.263 C 
ATOM      9  O   UNL     1      -3.532  -9.182  -1.603  0.00  0.00    -0.317 OA
ATOM     10  H   UNL     1      -4.326  -8.625   1.485  0.00  0.00    +0.185 HD
BRANCH   8  11
ATOM     11  C   UNL     1      -3.966 -11.054  -0.128  0.00  0.00    +0.004 A 
ATOM     12  C   UNL     1      -3.458 -11.885  -1.109  0.00  0.00    +0.008 A 
ATOM     13  C   UNL     1      -3.165 -13.204  -0.814  0.00  0.00    +0.001 A 
ATOM     14  C   UNL     1      -3.381 -13.691   0.461  0.00  0.00    +0.015 A 
ATOM     15  C   UNL     1      -3.889 -12.860   1.442  0.00  0.00    +0.018 A 
ATOM     16  C   UNL     1      -4.177 -11.539   1.148  0.00  0.00    +0.023 A 
ATOM     17 BR   UNL     1      -4.185 -13.527   3.187  0.00  0.00    -0.050 Br
ENDBRANCH   8  11
ENDBRANCH   2   5
BRANCH   1  18
ATOM     18  C   UNL     1      -0.319  -5.616  -2.284  0.00  0.00    +0.108 C 
BRANCH  18  19
ATOM     19  C   UNL     1       1.031  -5.126  -1.758  0.00  0.00    +0.052 C 
BRANCH  19  26
ATOM     20  C   UNL     1       0.606  -0.607  -1.056  0.00  0.00    +0.121 A 
ATOM     21  C   UNL     1       1.172   0.195  -2.062  0.00  0.00    +0.047 A 
ATOM     22  C   UNL     1       1.790  -0.325  -3.144  0.00  0.00    +0.029 A 
ATOM     23  C   UNL     1       1.886  -1.780  -3.299  0.00  0.00    +0.043 A 
ATOM     24  N   UNL     1       2.419  -2.528  -4.232  0.00  0.00    -0.380 N 
ATOM     25  C   UNL     1       2.222  -3.937  -3.871  0.00  0.00    +0.144 C 
ATOM     26  C   UNL     1       1.476  -3.927  -2.555  0.00  0.00    -0.040 C 
ATOM     27  C   UNL     1       1.290  -2.626  -2.239  0.00  0.00    +0.002 A 
ATOM     28  C   UNL     1       0.646  -1.960  -1.102  0.00  0.00    +0.055 A 
ATOM     29  H   UNL     1       2.869  -2.205  -5.029  0.00  0.00    +0.160 HD
BRANCH  20  31
ATOM     30  C   UNL     1      -0.017   1.425   0.010  0.00  0.00    +0.277 C 
ATOM     31  O   UNL     1       0.002  -0.004   0.002  0.00  0.00    -0.495 OA
ENDBRANCH  20  31
ENDBRANCH  19  26
ENDBRANCH  18  19
ENDBRANCH   1  18
TORSDOF 6
