REMARK  Name = ZINC59877892
REMARK  12 active torsions:
REMARK  status: ('A' for Active; 'I' for Inactive)
REMARK    1  A    between atoms: C_1  and  C_2
REMARK    2  A    between atoms: C_2  and  C_4
REMARK    3  A    between atoms: C_2  and  S_12
REMARK    4  A    between atoms: C_7  and  C_9
REMARK    5  A    between atoms: C_9  and  C_10
REMARK    6  A    between atoms: C_9  and  C_11
REMARK    7  A    between atoms: S_12  and  C_13
REMARK    8  A    between atoms: C_16  and  C_21
REMARK    9  A    between atoms: N_17  and  C_18
REMARK   10  A    between atoms: C_18  and  C_19
REMARK   11  A    between atoms: C_21  and  N_22
REMARK   12  A    between atoms: N_22  and  C_23
REMARK                            x       y       z     vdW  Elec       q    Type
REMARK                         _______ _______ _______ _____ _____    ______ ____
ROOT
ATOM      1  C   UNL     1      -2.365  -0.093  -1.525  0.00  0.00    +0.193 A 
ATOM      2  N   UNL     1      -1.736   0.597  -2.448  0.00  0.00    -0.122 NA
ATOM      3  N   UNL     1      -2.522   0.816  -3.441  0.00  0.00    -0.132 NA
ATOM      4  C   UNL     1      -3.689   0.283  -3.213  0.00  0.00    +0.152 A 
ATOM      5  N   UNL     1      -3.629  -0.320  -1.988  0.00  0.00    -0.301 N 
ENDROOT
BRANCH   1   6
ATOM      6  S   UNL     1      -1.700  -0.632   0.015  0.00  0.00    -0.073 S 
BRANCH   6   8
ATOM      7  C   UNL     1      -0.019   1.526   0.010  0.00  0.00    +0.029 C 
ATOM      8  C   UNL     1       0.002  -0.004   0.002  0.00  0.00    +0.139 C 
BRANCH   8   9
ATOM      9  C   UNL     1       0.731  -0.503   1.223  0.00  0.00    +0.230 A 
ATOM     10  N   UNL     1       0.271  -0.522   2.442  0.00  0.00    -0.111 NA
ATOM     11  N   UNL     1       1.163  -1.015   3.227  0.00  0.00    -0.112 NA
ATOM     12  C   UNL     1       2.222  -1.327   2.537  0.00  0.00    +0.220 A 
ATOM     13  O   UNL     1       1.972  -1.016   1.254  0.00  0.00    -0.423 OA
BRANCH  12  14
ATOM     14  C   UNL     1       3.493  -1.932   3.077  0.00  0.00    +0.071 C 
ATOM     15  C   UNL     1       4.104  -0.990   4.116  0.00  0.00    +0.017 C 
ATOM     16  C   UNL     1       3.179  -3.279   3.731  0.00  0.00    +0.017 C 
ENDBRANCH  12  14
ENDBRANCH   8   9
ENDBRANCH   6   8
ENDBRANCH   1   6
BRANCH   5  17
ATOM     17  C   UNL     1      -4.700  -1.055  -1.310  0.00  0.00    +0.152 C 
BRANCH  17  18
ATOM     18  C   UNL     1      -5.508  -0.102  -0.467  0.00  0.00    -0.013 C 
ATOM     19  C   UNL     1      -6.805  -0.021  -0.631  0.00  0.00    +0.005 C 
ENDBRANCH  17  18
ENDBRANCH   5  17
BRANCH   4  20
ATOM     20  C   UNL     1      -4.882   0.320  -4.133  0.00  0.00    +0.178 C 
BRANCH  20  21
ATOM     21  N   UNL     1      -4.848  -0.843  -5.024  0.00  0.00    -0.337 N 
ATOM     22  H   UNL     1      -4.124  -1.486  -4.955  0.00  0.00    +0.147 HD
BRANCH  21  23
ATOM     23  C   UNL     1      -5.857  -1.027  -5.971  0.00  0.00    +0.027 A 
ATOM     24  C   UNL     1      -6.891  -0.105  -6.075  0.00  0.00    +0.023 A 
ATOM     25  C   UNL     1      -7.888  -0.290  -7.014  0.00  0.00    +0.002 A 
ATOM     26  C   UNL     1      -7.857  -1.391  -7.849  0.00  0.00    +0.000 A 
ATOM     27  C   UNL     1      -6.829  -2.311  -7.749  0.00  0.00    +0.002 A 
ATOM     28  C   UNL     1      -5.827  -2.130  -6.816  0.00  0.00    +0.023 A 
ENDBRANCH  21  23
ENDBRANCH  20  21
ENDBRANCH   4  20
TORSDOF 9
