REMARK  Name = ZINC35781356
REMARK  15 active torsions:
REMARK  status: ('A' for Active; 'I' for Inactive)
REMARK    1  A    between atoms: C_1  and  C_2
REMARK    2  A    between atoms: C_2  and  C_3
REMARK    3  A    between atoms: C_3  and  C_4
REMARK    4  A    between atoms: C_4  and  C_5
REMARK    5  A    between atoms: C_5  and  C_7
REMARK    6  A    between atoms: C_5  and  O_36
REMARK    7  A    between atoms: C_7  and  N_8
REMARK    8  A    between atoms: N_8  and  C_9
REMARK    9  A    between atoms: N_8  and  C_15
REMARK   10  A    between atoms: C_9  and  C_10
REMARK   11  A    between atoms: C_15  and  C_16
REMARK   12  A    between atoms: C_17  and  C_35
REMARK   13  A    between atoms: N_19  and  C_29
REMARK   14  A    between atoms: C_20  and  O_21
REMARK   15  A    between atoms: O_21  and  C_22
REMARK                            x       y       z     vdW  Elec       q    Type
REMARK                         _______ _______ _______ _____ _____    ______ ____
ROOT
ATOM      1  C   UNL     1       2.627  -6.716  -5.114  0.00  0.00    +0.021 A 
ATOM      2  C   UNL     1       2.238  -6.697  -6.457  0.00  0.00    +0.065 A 
ATOM      3  N   UNL     1       3.256  -7.074  -7.189  0.00  0.00    -0.168 NA
ATOM      4  N   UNL     1       4.335  -7.347  -6.338  0.00  0.00    -0.200 N 
ATOM      5  C   UNL     1       3.927  -7.114  -5.062  0.00  0.00    +0.225 A 
ATOM      6  C   UNL     1       0.877  -6.310  -6.974  0.00  0.00    +0.068 C 
ENDROOT
BRANCH   4   7
ATOM      7  C   UNL     1       5.609  -7.778  -6.732  0.00  0.00    +0.069 A 
ATOM      8  C   UNL     1       6.738  -7.288  -6.091  0.00  0.00    +0.028 A 
ATOM      9  C   UNL     1       7.992  -7.715  -6.481  0.00  0.00    +0.002 A 
ATOM     10  C   UNL     1       8.124  -8.629  -7.510  0.00  0.00    +0.000 A 
ATOM     11  C   UNL     1       7.001  -9.119  -8.151  0.00  0.00    +0.002 A 
ATOM     12  C   UNL     1       5.744  -8.700  -7.762  0.00  0.00    +0.028 A 
ENDBRANCH   4   7
BRANCH   1  13
ATOM     13  C   UNL     1       1.763  -6.353  -3.935  0.00  0.00    -0.035 C 
BRANCH  13  14
ATOM     14  N   UNL     1       1.890  -4.916  -3.658  0.00  0.00    +0.389 N 
ATOM     15  H   UNL     1       2.858  -4.692  -3.485  0.00  0.00    -0.081 HD
BRANCH  14  16
ATOM     16  C   UNL     1       1.089  -4.573  -2.475  0.00  0.00    -0.046 C 
BRANCH  16  17
ATOM     17  C   UNL     1       1.703  -5.227  -1.236  0.00  0.00    +0.098 C 
BRANCH  17  18
ATOM     18  O   UNL     1       1.558  -6.646  -1.325  0.00  0.00    -0.394 OA
ATOM     19  H   UNL     1       0.640  -6.945  -1.380  0.00  0.00    +0.210 HD
ENDBRANCH  17  18
BRANCH  17  20
ATOM     20  C   UNL     1       0.987  -4.719   0.017  0.00  0.00    +0.029 C 
BRANCH  20  21
ATOM     21  C   UNL     1       1.680  -5.275   1.262  0.00  0.00    +0.002 C 
BRANCH  21  23
ATOM     22  C   UNL     1       1.658  -5.324   3.760  0.00  0.00    +0.004 C 
ATOM     23  C   UNL     1       0.964  -4.767   2.515  0.00  0.00    -0.003 C 
ENDBRANCH  21  23
ENDBRANCH  20  21
ENDBRANCH  17  20
ENDBRANCH  16  17
ENDBRANCH  14  16
BRANCH  14  24
ATOM     24  C   UNL     1       1.408  -4.150  -4.815  0.00  0.00    -0.003 C 
BRANCH  24  25
ATOM     25  C   UNL     1       1.638  -2.680  -4.575  0.00  0.00    +0.089 A 
ATOM     26  C   UNL     1       2.704  -1.973  -4.990  0.00  0.00    +0.042 A 
ATOM     27  C   UNL     1       2.510  -0.643  -4.550  0.00  0.00    +0.041 A 
ATOM     28  C   UNL     1       1.337  -0.618  -3.892  0.00  0.00    +0.195 A 
ATOM     29  O   UNL     1       0.810  -1.853  -3.916  0.00  0.00    -0.470 OA
ENDBRANCH  24  25
ENDBRANCH  14  24
ENDBRANCH  13  14
ENDBRANCH   1  13
BRANCH   5  30
ATOM     30  O   UNL     1       4.678  -7.256  -3.940  0.00  0.00    -0.438 OA
BRANCH  30  31
ATOM     31  C   UNL     1       4.780  -8.495  -3.393  0.00  0.00    +0.130 A 
ATOM     32  C   UNL     1       4.219  -9.588  -4.038  0.00  0.00    +0.048 A 
ATOM     33  C   UNL     1       4.324 -10.847  -3.480  0.00  0.00    +0.023 A 
ATOM     34  C   UNL     1       4.989 -11.020  -2.279  0.00  0.00    +0.041 A 
ATOM     35  C   UNL     1       5.550  -9.931  -1.634  0.00  0.00    +0.023 A 
ATOM     36  C   UNL     1       5.451  -8.671  -2.191  0.00  0.00    +0.048 A 
ATOM     37 CL   UNL     1       5.119 -12.603  -1.580  0.00  0.00    -0.084 Cl
ENDBRANCH  30  31
ENDBRANCH   5  30
TORSDOF 13
