REMARK  Name = ZINC39653896
REMARK  10 active torsions:
REMARK  status: ('A' for Active; 'I' for Inactive)
REMARK    1  A    between atoms: C_1  and  C_2
REMARK    2  A    between atoms: C_2  and  O_3
REMARK    3  A    between atoms: O_3  and  C_4
REMARK    4  A    between atoms: C_7  and  C_10
REMARK    5  A    between atoms: C_10  and  C_11
REMARK    6  A    between atoms: C_11  and  N_12
REMARK    7  A    between atoms: C_13  and  C_15
REMARK    8  A    between atoms: C_26  and  C_28
REMARK    9  A    between atoms: C_28  and  O_29
REMARK   10  A    between atoms: O_29  and  C_30
REMARK                            x       y       z     vdW  Elec       q    Type
REMARK                         _______ _______ _______ _____ _____    ______ ____
ROOT
ATOM      1  C   UNL     1      -0.834 -10.175  -3.638  0.00  0.00    +0.100 C 
ATOM      2  C   UNL     1       0.338 -10.512  -4.588  0.00  0.00    +0.121 C 
ATOM      3  N   UNL     1      -0.145 -11.664  -5.384  0.00  0.00    -0.297 N 
ATOM      4  C   UNL     1      -1.570 -11.355  -5.653  0.00  0.00    +0.115 C 
ATOM      5  C   UNL     1      -2.084 -10.729  -4.341  0.00  0.00    -0.004 C 
ATOM      6  C   UNL     1      -3.064  -9.600  -4.645  0.00  0.00    -0.010 C 
ATOM      7  C   UNL     1      -4.324 -10.184  -5.291  0.00  0.00    -0.082 C 
ATOM      8  N   UNL     1      -4.936 -11.159  -4.380  0.00  0.00    +0.379 N 
ATOM      9  C   UNL     1      -4.022 -12.288  -4.168  0.00  0.00    -0.082 C 
ATOM     10  C   UNL     1      -2.750 -11.793  -3.474  0.00  0.00    -0.010 C 
ATOM     11  C   UNL     1       0.553 -12.749  -5.775  0.00  0.00    +0.253 C 
ATOM     12  O   UNL     1       0.012 -13.615  -6.429  0.00  0.00    -0.272 OA
ATOM     13  H   UNL     1      -5.131 -10.715  -3.495  0.00  0.00    -0.086 HD
ATOM     14  H   UNL     1      -5.798 -11.496  -4.781  0.00  0.00    -0.086 HD
ENDROOT
BRANCH   1  16
ATOM     15  N   UNL     1      -1.457  -8.181  -2.315  0.00  0.00    -0.315 N 
ATOM     16  C   UNL     1      -0.951  -8.684  -3.458  0.00  0.00    +0.218 C 
ATOM     17  O   UNL     1      -0.590  -7.936  -4.342  0.00  0.00    -0.275 OA
ATOM     18  H   UNL     1      -1.746  -8.779  -1.608  0.00  0.00    +0.149 HD
BRANCH  15  19
ATOM     19  C   UNL     1      -1.571  -6.731  -2.140  0.00  0.00    +0.109 C 
BRANCH  19  20
ATOM     20  C   UNL     1      -2.172  -6.428  -0.765  0.00  0.00    +0.054 C 
BRANCH  20  24
ATOM     21  C   UNL     1      -2.505  -2.199  -0.254  0.00  0.00    +0.121 A 
ATOM     22  C   UNL     1      -3.553  -2.916  -0.812  0.00  0.00    +0.046 A 
ATOM     23  C   UNL     1      -3.443  -4.283  -0.977  0.00  0.00    +0.007 A 
ATOM     24  C   UNL     1      -2.289  -4.937  -0.585  0.00  0.00    -0.046 A 
ATOM     25  C   UNL     1      -1.243  -4.225  -0.028  0.00  0.00    +0.007 A 
ATOM     26  C   UNL     1      -1.346  -2.856   0.133  0.00  0.00    +0.046 A 
BRANCH  21  27
ATOM     27  O   UNL     1      -2.610  -0.854  -0.091  0.00  0.00    -0.492 OA
BRANCH  27  29
ATOM     28  C   UNL     1      -3.766   1.263  -0.253  0.00  0.00    +0.048 C 
ATOM     29  C   UNL     1      -3.832  -0.243  -0.512  0.00  0.00    +0.225 C 
ENDBRANCH  27  29
ENDBRANCH  21  27
ENDBRANCH  20  24
ENDBRANCH  19  20
ENDBRANCH  15  19
ENDBRANCH   1  16
BRANCH  11  30
ATOM     30  C   UNL     1       2.006 -12.885  -5.399  0.00  0.00    +0.324 C 
BRANCH  30  31
ATOM     31  O   UNL     1       2.521 -14.110  -5.926  0.00  0.00    -0.483 OA
BRANCH  31  32
ATOM     32  C   UNL     1       3.828 -14.388  -5.675  0.00  0.00    +0.123 A 
ATOM     33  C   UNL     1       4.596 -13.503  -4.932  0.00  0.00    +0.046 A 
ATOM     34  C   UNL     1       5.924 -13.788  -4.678  0.00  0.00    +0.005 A 
ATOM     35  C   UNL     1       6.488 -14.954  -5.163  0.00  0.00    +0.020 A 
ATOM     36  C   UNL     1       5.724 -15.838  -5.904  0.00  0.00    +0.044 A 
ATOM     37  C   UNL     1       4.393 -15.560  -6.156  0.00  0.00    +0.065 A 
ATOM     38 CL   UNL     1       6.435 -17.300  -6.512  0.00  0.00    -0.083 Cl
ENDBRANCH  31  32
ENDBRANCH  30  31
ENDBRANCH  11  30
TORSDOF 9
