REMARK  Name = ZINC39609649
REMARK  8 active torsions:
REMARK  status: ('A' for Active; 'I' for Inactive)
REMARK    1  A    between atoms: C_1  and  O_2
REMARK    2  A    between atoms: O_2  and  C_3
REMARK    3  A    between atoms: C_5  and  C_11
REMARK    4  A    between atoms: C_7  and  O_9
REMARK    5  A    between atoms: O_9  and  C_10
REMARK    6  A    between atoms: C_15  and  C_24
REMARK    7  A    between atoms: N_26  and  C_27
REMARK    8  A    between atoms: C_27  and  C_28
REMARK                            x       y       z     vdW  Elec       q    Type
REMARK                         _______ _______ _______ _____ _____    ______ ____
ROOT
ATOM      1  C   UNL     1      -2.546  -4.155   0.013  0.00  0.00    +0.247 C 
ATOM      2  O   UNL     1      -1.527  -4.807  -0.105  0.00  0.00    -0.270 OA
ATOM      3  N   UNL     1      -3.736  -4.778   0.124  0.00  0.00    -0.296 N 
ATOM      4  C   UNL     1      -5.085  -4.164   0.147  0.00  0.00    +0.121 C 
ATOM      5  C   UNL     1      -5.965  -5.124  -0.684  0.00  0.00    +0.100 C 
ATOM      6  C   UNL     1      -5.244  -6.480  -0.612  0.00  0.00    -0.004 C 
ATOM      7  C   UNL     1      -3.992  -6.234   0.243  0.00  0.00    +0.115 C 
ATOM      8  C   UNL     1      -6.141  -7.521   0.051  0.00  0.00    -0.010 C 
ATOM      9  C   UNL     1      -5.425  -8.874   0.060  0.00  0.00    -0.082 C 
ATOM     10  N   UNL     1      -5.114  -9.274  -1.318  0.00  0.00    +0.379 N 
ATOM     11  C   UNL     1      -4.176  -8.316  -1.917  0.00  0.00    -0.082 C 
ATOM     12  C   UNL     1      -4.840  -6.939  -2.009  0.00  0.00    -0.010 C 
ATOM     13  H   UNL     1      -4.697 -10.193  -1.314  0.00  0.00    -0.086 HD
ATOM     14  H   UNL     1      -5.964  -9.295  -1.861  0.00  0.00    -0.086 HD
ENDROOT
BRANCH   1  17
ATOM     15  C   UNL     1      -3.422  -0.559   0.679  0.00  0.00    +0.124 A 
ATOM     16  C   UNL     1      -3.488  -1.942   0.659  0.00  0.00    +0.059 A 
ATOM     17  C   UNL     1      -2.480  -2.678   0.036  0.00  0.00    +0.044 A 
ATOM     18  C   UNL     1      -1.410  -2.016  -0.566  0.00  0.00    +0.059 A 
ATOM     19  C   UNL     1      -1.351  -0.633  -0.542  0.00  0.00    +0.124 A 
ATOM     20  C   UNL     1      -2.359   0.095   0.074  0.00  0.00    +0.091 A 
BRANCH  15  22
ATOM     21  C   UNL     1      -4.276   1.582   1.263  0.00  0.00    +0.277 C 
ATOM     22  O   UNL     1      -4.404   0.159   1.286  0.00  0.00    -0.495 OA
ENDBRANCH  15  22
BRANCH  19  23
ATOM     23  O   UNL     1      -0.309   0.013  -1.129  0.00  0.00    -0.495 OA
ATOM     24  C   UNL     1      -0.312   1.441  -1.067  0.00  0.00    +0.277 C 
ENDBRANCH  19  23
ENDBRANCH   1  17
BRANCH   5  25
ATOM     25  C   UNL     1      -6.054  -4.650  -2.112  0.00  0.00    +0.218 C 
ATOM     26  O   UNL     1      -5.100  -4.114  -2.634  0.00  0.00    -0.275 OA
ATOM     27  N   UNL     1      -7.195  -4.823  -2.810  0.00  0.00    -0.311 N 
ATOM     28  H   UNL     1      -7.958  -5.252  -2.392  0.00  0.00    +0.149 HD
BRANCH  27  29
ATOM     29  C   UNL     1      -7.281  -4.363  -4.198  0.00  0.00    +0.139 C 
BRANCH  29  30
ATOM     30  C   UNL     1      -8.651  -4.673  -4.745  0.00  0.00    -0.029 A 
ATOM     31  C   UNL     1      -8.887  -5.884  -5.369  0.00  0.00    +0.007 A 
ATOM     32  C   UNL     1     -10.142  -6.169  -5.872  0.00  0.00    +0.022 A 
ATOM     33  C   UNL     1     -11.163  -5.243  -5.751  0.00  0.00    +0.059 A 
ATOM     34  C   UNL     1     -10.926  -4.031  -5.126  0.00  0.00    +0.060 A 
ATOM     35  C   UNL     1      -9.671  -3.749  -4.618  0.00  0.00    +0.026 A 
ATOM     36 CL   UNL     1     -12.206  -2.868  -4.973  0.00  0.00    -0.082 Cl
ATOM     37 CL   UNL     1     -12.740  -5.601  -6.383  0.00  0.00    -0.082 Cl
ENDBRANCH  29  30
ENDBRANCH  27  29
ENDBRANCH   5  25
TORSDOF 6
