REMARK  Name = ZINC08791436
REMARK  9 active torsions:
REMARK  status: ('A' for Active; 'I' for Inactive)
REMARK    1  A    between atoms: C_1  and  C_2
REMARK    2  A    between atoms: C_9  and  O_19
REMARK    3  A    between atoms: C_15  and  C_17
REMARK    4  A    between atoms: C_15  and  C_18
REMARK    5  A    between atoms: O_19  and  C_20
REMARK    6  A    between atoms: C_20  and  C_21
REMARK    7  A    between atoms: N_23  and  C_24
REMARK    8  A    between atoms: C_28  and  C_30
REMARK    9  A    between atoms: C_30  and  C_32
REMARK                            x       y       z     vdW  Elec       q    Type
REMARK                         _______ _______ _______ _____ _____    ______ ____
ROOT
ATOM      1  C   UNL     1      -1.306   3.617   0.118  0.00  0.00    +0.045 C 
ATOM      2  C   UNL     1       0.090   4.185   0.106  0.00  0.00    -0.030 A 
ATOM      3  C   UNL     1       0.296   5.507  -0.129  0.00  0.00    +0.096 A 
ATOM      4  C   UNL     1       1.608   6.022  -0.137  0.00  0.00    +0.337 A 
ATOM      5  O   UNL     1       1.785   7.209  -0.350  0.00  0.00    -0.245 OA
ATOM      6  O   UNL     1       2.667   5.225   0.086  0.00  0.00    -0.422 OA
ATOM      7  C   UNL     1       2.504   3.905   0.325  0.00  0.00    +0.149 A 
ATOM      8  C   UNL     1       1.212   3.350   0.340  0.00  0.00    +0.063 A 
ATOM      9  C   UNL     1       1.047   1.976   0.587  0.00  0.00    +0.136 A 
ATOM     10  C   UNL     1       2.155   1.190   0.818  0.00  0.00    +0.092 A 
ATOM     11  C   UNL     1       3.436   1.743   0.800  0.00  0.00    +0.131 A 
ATOM     12  C   UNL     1       3.608   3.095   0.555  0.00  0.00    +0.038 A 
ATOM     13  C   UNL     1       4.980   3.721   0.527  0.00  0.00    +0.046 C 
ATOM     14  C   UNL     1       5.985   2.794   1.216  0.00  0.00    +0.052 C 
ATOM     15  C   UNL     1       5.792   1.377   0.660  0.00  0.00    +0.105 C 
ATOM     16  O   UNL     1       4.492   0.921   1.035  0.00  0.00    -0.486 OA
ATOM     17  C   UNL     1       5.910   1.401  -0.865  0.00  0.00    +0.055 C 
ATOM     18  C   UNL     1       6.854   0.445   1.246  0.00  0.00    +0.055 C 
ENDROOT
BRANCH   9  19
ATOM     19  O   UNL     1      -0.195   1.429   0.602  0.00  0.00    -0.482 OA
BRANCH  19  20
ATOM     20  C   UNL     1      -0.282   0.026   0.859  0.00  0.00    +0.324 C 
BRANCH  20  21
ATOM     21  C   UNL     1      -1.728  -0.400   0.837  0.00  0.00    +0.255 C 
ATOM     22  O   UNL     1      -2.598   0.417   0.622  0.00  0.00    -0.272 OA
ATOM     23  N   UNL     1      -2.054  -1.689   1.056  0.00  0.00    -0.283 N 
ATOM     24  H   UNL     1      -1.357  -2.355   1.163  0.00  0.00    +0.155 HD
BRANCH  23  25
ATOM     25  C   UNL     1      -3.400  -2.068   1.128  0.00  0.00    +0.034 A 
ATOM     26  C   UNL     1      -3.793  -3.068   2.010  0.00  0.00    +0.023 A 
ATOM     27  C   UNL     1      -5.122  -3.444   2.090  0.00  0.00    +0.002 A 
ATOM     28  C   UNL     1      -6.065  -2.836   1.288  0.00  0.00    +0.011 A 
ATOM     29  C   UNL     1      -5.680  -1.832   0.394  0.00  0.00    +0.019 A 
ATOM     30  C   UNL     1      -4.338  -1.450   0.317  0.00  0.00    +0.034 A 
BRANCH  29  31
ATOM     31  C   UNL     1      -6.683  -1.182  -0.464  0.00  0.00    +0.160 C 
ATOM     32  O   UNL     1      -6.346  -0.312  -1.239  0.00  0.00    -0.292 OA
ATOM     33  C   UNL     1      -8.130  -1.597  -0.380  0.00  0.00    +0.091 C 
ENDBRANCH  29  31
ENDBRANCH  23  25
ENDBRANCH  20  21
ENDBRANCH  19  20
ENDBRANCH   9  19
TORSDOF 5
