REMARK  Name = ZINC12464310
REMARK  9 active torsions:
REMARK  status: ('A' for Active; 'I' for Inactive)
REMARK    1  A    between atoms: C_1  and  C_2
REMARK    2  A    between atoms: C_5  and  C_8
REMARK    3  A    between atoms: C_11  and  C_30
REMARK    4  A    between atoms: C_14  and  C_16
REMARK    5  A    between atoms: C_16  and  S_17
REMARK    6  A    between atoms: S_17  and  C_18
REMARK    7  A    between atoms: C_24  and  C_26
REMARK    8  A    between atoms: C_33  and  O_36
REMARK    9  A    between atoms: O_36  and  C_37
REMARK                            x       y       z     vdW  Elec       q    Type
REMARK                         _______ _______ _______ _____ _____    ______ ____
ROOT
ATOM      1  C   UNL     1      -2.965  -2.495   0.017  0.00  0.00    +0.137 C 
ATOM      2  C   UNL     1      -2.638  -4.001   0.006  0.00  0.00    +0.087 C 
ATOM      3  C   UNL     1      -1.126  -4.046  -0.009  0.00  0.00    +0.069 C 
ATOM      4  N   UNL     1      -0.660  -2.845  -0.013  0.00  0.00    -0.181 NA
ATOM      5  N   UNL     1      -1.640  -1.854   0.008  0.00  0.00    -0.184 N 
ATOM      6  C   UNL     1      -1.412  -0.526   0.013  0.00  0.00    +0.246 C 
ATOM      7  O   UNL     1      -2.344   0.250   0.026  0.00  0.00    -0.273 OA
ENDROOT
BRANCH   1  12
ATOM      8  C   UNL     1      -5.965  -1.029  -4.699  0.00  0.00    +0.044 C 
ATOM      9  C   UNL     1      -5.183  -1.411  -3.469  0.00  0.00    -0.050 A 
ATOM     10  C   UNL     1      -5.824  -1.524  -2.250  0.00  0.00    +0.004 A 
ATOM     11  C   UNL     1      -5.106  -1.875  -1.121  0.00  0.00    +0.006 A 
ATOM     12  C   UNL     1      -3.747  -2.113  -1.213  0.00  0.00    -0.025 A 
ATOM     13  C   UNL     1      -3.105  -1.996  -2.432  0.00  0.00    +0.006 A 
ATOM     14  C   UNL     1      -3.824  -1.649  -3.561  0.00  0.00    +0.004 A 
ENDBRANCH   1  12
BRANCH   3  15
ATOM     15  C   UNL     1      -0.311  -5.274  -0.023  0.00  0.00    -0.002 A 
ATOM     16  C   UNL     1      -0.931  -6.527  -0.018  0.00  0.00    +0.013 A 
ATOM     17  C   UNL     1      -0.166  -7.672  -0.036  0.00  0.00    +0.046 A 
ATOM     18  C   UNL     1       1.220  -7.584  -0.049  0.00  0.00    +0.120 A 
ATOM     19  C   UNL     1       1.841  -6.341  -0.049  0.00  0.00    +0.046 A 
ATOM     20  C   UNL     1       1.083  -5.190  -0.036  0.00  0.00    +0.013 A 
BRANCH  18  21
ATOM     21  O   UNL     1       1.971  -8.716  -0.062  0.00  0.00    -0.495 OA
ATOM     22  C   UNL     1       1.268  -9.960  -0.061  0.00  0.00    +0.277 C 
ENDBRANCH  18  21
ENDBRANCH   3  15
BRANCH   6  23
ATOM     23  C   UNL     1       0.002  -0.004   0.002  0.00  0.00    +0.175 C 
BRANCH  23  24
ATOM     24  S   UNL     1      -0.022   1.806   0.012  0.00  0.00    -0.078 S 
BRANCH  24  25
ATOM     25  C   UNL     1       1.708   2.135  -0.003  0.00  0.00    +0.170 A 
ATOM     26  N   UNL     1       2.144   3.425   0.000  0.00  0.00    -0.302 N 
ATOM     27  H   UNL     1       1.505   4.155   0.009  0.00  0.00    +0.171 HD
ATOM     28  C   UNL     1       3.469   3.685  -0.011  0.00  0.00    +0.253 A 
ATOM     29  O   UNL     1       3.877   4.835  -0.008  0.00  0.00    -0.268 OA
ATOM     30  C   UNL     1       4.370   2.606  -0.025  0.00  0.00    +0.102 A 
ATOM     31  C   UNL     1       3.875   1.333  -0.027  0.00  0.00    +0.151 A 
ATOM     32  N   UNL     1       2.560   1.128  -0.011  0.00  0.00    -0.219 NA
BRANCH  31  33
ATOM     33  C   UNL     1       4.819   0.159  -0.042  0.00  0.00    +0.434 C 
ATOM     34  F   UNL     1       6.139   0.623  -0.051  0.00  0.00    -0.164 F 
ATOM     35  F   UNL     1       4.608  -0.624   1.099  0.00  0.00    -0.164 F 
ATOM     36  F   UNL     1       4.587  -0.612  -1.186  0.00  0.00    -0.164 F 
ENDBRANCH  31  33
ENDBRANCH  24  25
ENDBRANCH  23  24
ENDBRANCH   6  23
TORSDOF 7
