REMARK  Name = ZINC35026720
REMARK  7 active torsions:
REMARK  status: ('A' for Active; 'I' for Inactive)
REMARK    1  A    between atoms: C_1  and  C_2
REMARK    2  A    between atoms: C_2  and  C_3
REMARK    3  A    between atoms: C_3  and  C_5
REMARK    4  A    between atoms: C_3  and  N_17
REMARK    5  A    between atoms: N_17  and  C_18
REMARK    6  A    between atoms: C_18  and  C_19
REMARK    7  A    between atoms: N_26  and  C_27
REMARK                            x       y       z     vdW  Elec       q    Type
REMARK                         _______ _______ _______ _____ _____    ______ ____
ROOT
ATOM      1  N   UNL     1       2.111  -0.026  -0.791  0.00  0.00    -0.268 N 
ATOM      2  C   UNL     1       2.561   0.964  -1.587  0.00  0.00    +0.307 C 
ATOM      3  O   UNL     1       1.785   1.569  -2.302  0.00  0.00    -0.252 OA
ATOM      4  N   UNL     1       3.870   1.285  -1.590  0.00  0.00    -0.269 N 
ATOM      5  H   UNL     1       4.499   0.760  -1.071  0.00  0.00    +0.156 HD
ENDROOT
BRANCH   4   6
ATOM      6  C   UNL     1       4.321   2.375  -2.343  0.00  0.00    +0.035 A 
ATOM      7  C   UNL     1       5.366   3.160  -1.873  0.00  0.00    +0.024 A 
ATOM      8  C   UNL     1       5.810   4.235  -2.617  0.00  0.00    +0.017 A 
ATOM      9  C   UNL     1       5.214   4.531  -3.830  0.00  0.00    +0.018 A 
ATOM     10  C   UNL     1       4.173   3.751  -4.301  0.00  0.00    +0.017 A 
ATOM     11  C   UNL     1       3.729   2.671  -3.564  0.00  0.00    +0.024 A 
ATOM     12 BR   UNL     1       5.824   6.005  -4.847  0.00  0.00    -0.050 Br
ENDBRANCH   4   6
BRANCH   1  13
ATOM     13  C   UNL     1       0.689  -0.375  -0.787  0.00  0.00    +0.144 C 
BRANCH  13  14
ATOM     14  C   UNL     1      -0.114   0.796  -0.281  0.00  0.00    +0.131 A 
ATOM     15  N   UNL     1      -1.469   0.711  -0.314  0.00  0.00    -0.309 N 
ATOM     16  H   UNL     1      -1.892  -0.091  -0.659  0.00  0.00    +0.170 HD
ATOM     17  C   UNL     1      -2.235   1.735   0.129  0.00  0.00    +0.259 A 
ATOM     18  O   UNL     1      -3.451   1.672   0.106  0.00  0.00    -0.267 OA
ATOM     19  C   UNL     1      -1.542   2.926   0.641  0.00  0.00    +0.065 A 
ATOM     20  C   UNL     1      -2.237   4.035   1.121  0.00  0.00    +0.015 A 
ATOM     21  C   UNL     1      -1.537   5.125   1.588  0.00  0.00    +0.001 A 
ATOM     22  C   UNL     1      -0.148   5.127   1.585  0.00  0.00    +0.002 A 
ATOM     23  C   UNL     1       0.558   4.042   1.115  0.00  0.00    +0.028 A 
ATOM     24  C   UNL     1      -0.129   2.924   0.636  0.00  0.00    +0.078 A 
ATOM     25  N   UNL     1       0.526   1.832   0.170  0.00  0.00    -0.232 NA
ENDBRANCH  13  14
BRANCH  13  27
ATOM     26  C   UNL     1       0.969  -1.984  -2.678  0.00  0.00    +0.006 C 
ATOM     27  C   UNL     1       0.244  -0.720  -2.210  0.00  0.00    +0.027 C 
ENDBRANCH  13  27
ENDBRANCH   1  13
BRANCH   1  28
ATOM     28  C   UNL     1       3.046  -0.755   0.070  0.00  0.00    +0.184 C 
BRANCH  28  29
ATOM     29  C   UNL     1       3.667  -1.888  -0.707  0.00  0.00    +0.122 A 
ATOM     30  C   UNL     1       4.744  -1.795  -1.508  0.00  0.00    +0.046 A 
ATOM     31  C   UNL     1       4.977  -3.088  -2.031  0.00  0.00    +0.041 A 
ATOM     32  C   UNL     1       4.028  -3.893  -1.519  0.00  0.00    +0.195 A 
ATOM     33  O   UNL     1       3.241  -3.161  -0.714  0.00  0.00    -0.466 OA
ENDBRANCH  28  29
ENDBRANCH   1  28
TORSDOF 6
