REMARK  Name = ZINC43592433
REMARK  4 active torsions:
REMARK  status: ('A' for Active; 'I' for Inactive)
REMARK    1  A    between atoms: C_5  and  N_7
REMARK    2  A    between atoms: N_7  and  S_8
REMARK    3  A    between atoms: S_8  and  C_11
REMARK    4  A    between atoms: C_14  and  N_18
REMARK                            x       y       z     vdW  Elec       q    Type
REMARK                         _______ _______ _______ _____ _____    ______ ____
ROOT
ATOM      1  S   UNL     1       0.002  -2.922  -0.731  0.00  0.00    +0.075 S 
ATOM      2  O   UNL     1       0.265  -4.298  -0.497  0.00  0.00    -0.150 OA
ATOM      3  O   UNL     1      -1.206  -2.296  -0.320  0.00  0.00    -0.150 OA
ENDROOT
BRANCH   1   4
ATOM      4  C   UNL     1       0.133  -2.672  -2.470  0.00  0.00    +0.144 A 
ATOM      5  C   UNL     1       0.412  -3.740  -3.302  0.00  0.00    +0.033 A 
ATOM      6  C   UNL     1       0.515  -3.549  -4.665  0.00  0.00    +0.025 A 
ATOM      7  C   UNL     1       0.337  -2.280  -5.203  0.00  0.00    +0.027 A 
ATOM      8  C   UNL     1       0.056  -1.207  -4.367  0.00  0.00    +0.063 A 
ATOM      9  C   UNL     1      -0.051  -1.406  -3.002  0.00  0.00    +0.152 A 
ATOM     10  F   UNL     1      -0.329  -0.365  -2.188  0.00  0.00    -0.203 F 
BRANCH   7  11
ATOM     11  N   UNL     1       0.440  -2.083  -6.582  0.00  0.00    -0.358 N 
ATOM     12  H   UNL     1       0.637  -2.833  -7.165  0.00  0.00    +0.142 HD
ATOM     13  H   UNL     1       0.316  -1.197  -6.957  0.00  0.00    +0.142 HD
ENDBRANCH   7  11
ENDBRANCH   1   4
BRANCH   1  14
ATOM     14  N   UNL     1       1.238  -2.078  -0.021  0.00  0.00    -0.215 N 
ATOM     15  H   UNL     1       1.948  -2.552   0.438  0.00  0.00    +0.174 HD
BRANCH  14  20
ATOM     16  C   UNL     1       0.289   1.435   0.493  0.00  0.00    +0.002 A 
ATOM     17  C   UNL     1       1.292   2.083  -0.205  0.00  0.00    +0.001 A 
ATOM     18  C   UNL     1       2.277   1.351  -0.842  0.00  0.00    +0.016 A 
ATOM     19  C   UNL     1       2.263  -0.029  -0.783  0.00  0.00    +0.036 A 
ATOM     20  C   UNL     1       1.256  -0.682  -0.083  0.00  0.00    +0.061 A 
ATOM     21  C   UNL     1       0.268   0.056   0.556  0.00  0.00    +0.025 A 
ATOM     22  I   UNL     1       3.755  -1.136  -1.750  0.00  0.00    -0.042 I 
ENDBRANCH  14  20
ENDBRANCH   1  14
TORSDOF 4
