REMARK  Name = ZINC06409480
REMARK  9 active torsions:
REMARK  status: ('A' for Active; 'I' for Inactive)
REMARK    1  A    between atoms: C_1  and  C_2
REMARK    2  A    between atoms: C_7  and  S_8
REMARK    3  A    between atoms: S_8  and  N_11
REMARK    4  A    between atoms: N_11  and  C_12
REMARK    5  A    between atoms: N_11  and  C_18
REMARK    6  A    between atoms: C_12  and  C_13
REMARK    7  A    between atoms: C_18  and  C_19
REMARK    8  A    between atoms: C_24  and  O_31
REMARK    9  A    between atoms: O_31  and  C_32
REMARK                            x       y       z     vdW  Elec       q    Type
REMARK                         _______ _______ _______ _____ _____    ______ ____
ROOT
ATOM      1  N   UNL     1       2.433   1.378   9.424  0.00  0.00    -0.167 NA
ENDROOT
BRANCH   1   2
ATOM      2  S   UNL     1       1.697   2.425  10.474  0.00  0.00    +0.064 S 
ATOM      3  O   UNL     1       2.491   3.604  10.496  0.00  0.00    -0.153 OA
ATOM      4  O   UNL     1       0.318   2.442  10.132  0.00  0.00    -0.153 OA
BRANCH   2  11
ATOM      5  C   UNL     1       3.919   2.960  12.385  0.00  0.00    +0.046 C 
ATOM      6  C   UNL     1       2.857   2.015  12.885  0.00  0.00    -0.022 A 
ATOM      7  C   UNL     1       2.977   1.470  14.164  0.00  0.00    +0.007 A 
ATOM      8  C   UNL     1       2.050   0.617  14.661  0.00  0.00    +0.031 A 
ATOM      9  C   UNL     1       0.924   0.257  13.876  0.00  0.00    +0.102 A 
ATOM     10  C   UNL     1       0.796   0.830  12.539  0.00  0.00    +0.126 A 
ATOM     11  C   UNL     1       1.808   1.714  12.083  0.00  0.00    +0.136 A 
ATOM     12  N   UNL     1      -0.306   0.412  11.919  0.00  0.00    -0.189 NA
ATOM     13  S   UNL     1      -1.033  -0.550  12.920  0.00  0.00    +0.117 S 
ATOM     14  N   UNL     1      -0.090  -0.555  14.171  0.00  0.00    -0.191 NA
ENDBRANCH   2  11
ENDBRANCH   1   2
BRANCH   1  15
ATOM     15  C   UNL     1       3.849   1.550   9.089  0.00  0.00    +0.152 C 
BRANCH  15  16
ATOM     16  C   UNL     1       3.974   2.432   7.874  0.00  0.00    +0.005 A 
ATOM     17  C   UNL     1       4.083   3.781   7.806  0.00  0.00    +0.012 A 
ATOM     18  C   UNL     1       4.191   4.383   6.566  0.00  0.00    +0.008 A 
ATOM     19  C   UNL     1       4.175   3.607   5.455  0.00  0.00    +0.045 A 
ATOM     20  S   UNL     1       4.010   1.971   6.149  0.00  0.00    -0.100 S 
ENDBRANCH  15  16
ENDBRANCH   1  15
BRANCH   1  21
ATOM     21  C   UNL     1       1.669   0.279   8.829  0.00  0.00    +0.150 C 
BRANCH  21  22
ATOM     22  C   UNL     1       1.149   0.702   7.479  0.00  0.00    +0.033 A 
ATOM     23  C   UNL     1       1.849   0.392   6.358  0.00  0.00    +0.020 A 
ATOM     24  C   UNL     1       1.319   0.817   5.063  0.00  0.00    -0.001 A 
ATOM     25  C   UNL     1       1.997   0.525   3.873  0.00  0.00    +0.013 A 
ATOM     26  C   UNL     1       1.476   0.929   2.679  0.00  0.00    +0.046 A 
ATOM     27  C   UNL     1       0.277   1.640   2.634  0.00  0.00    +0.122 A 
ATOM     28  C   UNL     1      -0.409   1.937   3.799  0.00  0.00    +0.072 A 
ATOM     29  C   UNL     1       0.104   1.529   5.024  0.00  0.00    +0.053 A 
ATOM     30  N   UNL     1      -0.559   1.812   6.199  0.00  0.00    -0.322 N 
ATOM     31  H   UNL     1      -1.395   2.303   6.171  0.00  0.00    +0.169 HD
ATOM     32  C   UNL     1      -0.062   1.418   7.385  0.00  0.00    +0.254 A 
ATOM     33  O   UNL     1      -0.674   1.686   8.405  0.00  0.00    -0.268 OA
BRANCH  27  34
ATOM     34  O   UNL     1      -0.225   2.038   1.437  0.00  0.00    -0.495 OA
ATOM     35  C   UNL     1       0.530   1.700   0.272  0.00  0.00    +0.277 C 
ENDBRANCH  27  34
ENDBRANCH  21  22
ENDBRANCH   1  21
TORSDOF 7
