REMARK  Name = ZINC20038462
REMARK  7 active torsions:
REMARK  status: ('A' for Active; 'I' for Inactive)
REMARK    1  A    between atoms: C_1  and  O_2
REMARK    2  A    between atoms: O_2  and  C_3
REMARK    3  A    between atoms: C_6  and  N_9
REMARK    4  A    between atoms: N_21  and  C_24
REMARK    5  A    between atoms: C_24  and  N_25
REMARK    6  A    between atoms: N_28  and  C_31
REMARK    7  A    between atoms: C_31  and  C_32
REMARK                            x       y       z     vdW  Elec       q    Type
REMARK                         _______ _______ _______ _____ _____    ______ ____
ROOT
ATOM      1  N   UNL     1      -0.017   1.397   0.010  0.00  0.00    -0.243 N 
ATOM      2  C   UNL     1       0.958   2.091  -0.575  0.00  0.00    +0.231 C 
ATOM      3  O   UNL     1       1.889   1.535  -1.118  0.00  0.00    -0.274 OA
ATOM      4  C   UNL     1       0.859   3.610  -0.536  0.00  0.00    +0.168 C 
ATOM      5  S   UNL     1      -0.440   3.828   0.759  0.00  0.00    -0.111 S 
ATOM      6  C   UNL     1      -1.108   2.121   0.653  0.00  0.00    +0.193 C 
ATOM      7  C   UNL     1      -1.452   1.596   2.012  0.00  0.00    +0.017 A 
ATOM      8  C   UNL     1      -0.731   1.382   3.165  0.00  0.00    +0.009 A 
ATOM      9  C   UNL     1      -1.354   0.870   4.289  0.00  0.00    +0.000 A 
ATOM     10  C   UNL     1      -2.704   0.573   4.252  0.00  0.00    +0.002 A 
ATOM     11  C   UNL     1      -3.432   0.785   3.100  0.00  0.00    +0.024 A 
ATOM     12  C   UNL     1      -2.814   1.302   1.964  0.00  0.00    +0.044 A 
ATOM     13  N   UNL     1      -3.329   1.602   0.701  0.00  0.00    -0.255 N 
ATOM     14  C   UNL     1      -2.385   2.091  -0.130  0.00  0.00    +0.260 C 
ATOM     15  O   UNL     1      -2.540   2.438  -1.282  0.00  0.00    -0.271 OA
ENDROOT
BRANCH   1  19
ATOM     16  C   UNL     1       0.039  -2.772  -0.013  0.00  0.00    +0.120 A 
ATOM     17  C   UNL     1       0.728  -2.075   0.969  0.00  0.00    +0.047 A 
ATOM     18  C   UNL     1       0.710  -0.694   0.976  0.00  0.00    +0.027 A 
ATOM     19  C   UNL     1       0.002  -0.004   0.002  0.00  0.00    +0.039 A 
ATOM     20  C   UNL     1      -0.692  -0.703  -0.977  0.00  0.00    +0.027 A 
ATOM     21  C   UNL     1      -0.669  -2.083  -0.987  0.00  0.00    +0.047 A 
BRANCH  16  23
ATOM     22  C   UNL     1      -0.675  -4.785  -1.059  0.00  0.00    +0.277 C 
ATOM     23  O   UNL     1       0.057  -4.132  -0.020  0.00  0.00    -0.495 OA
ENDBRANCH  16  23
ENDBRANCH   1  19
BRANCH  13  24
ATOM     24  C   UNL     1      -4.731   1.407   0.322  0.00  0.00    +0.200 C 
BRANCH  24  25
ATOM     25  N   UNL     1      -4.906   0.056  -0.228  0.00  0.00    -0.290 NA
ATOM     26  C   UNL     1      -4.495   0.004  -1.638  0.00  0.00    +0.067 C 
ATOM     27  C   UNL     1      -4.617  -1.433  -2.150  0.00  0.00    -0.063 C 
ATOM     28  N   UNL     1      -6.005  -1.890  -1.992  0.00  0.00    +0.384 N 
ATOM     29  C   UNL     1      -6.417  -1.838  -0.582  0.00  0.00    -0.063 C 
ATOM     30  C   UNL     1      -6.294  -0.400  -0.070  0.00  0.00    +0.067 C 
ATOM     31  H   UNL     1      -6.654  -1.208  -2.561  0.00  0.00    -0.081 HD
BRANCH  28  32
ATOM     32  C   UNL     1      -6.181  -3.241  -2.542  0.00  0.00    -0.043 C 
BRANCH  32  33
ATOM     33  C   UNL     1      -5.986  -3.204  -4.036  0.00  0.00    -0.064 A 
ATOM     34  C   UNL     1      -7.067  -2.981  -4.868  0.00  0.00    +0.002 A 
ATOM     35  C   UNL     1      -6.888  -2.942  -6.238  0.00  0.00    +0.000 A 
ATOM     36  C   UNL     1      -5.630  -3.137  -6.777  0.00  0.00    +0.000 A 
ATOM     37  C   UNL     1      -4.550  -3.365  -5.945  0.00  0.00    +0.000 A 
ATOM     38  C   UNL     1      -4.728  -3.399  -4.574  0.00  0.00    +0.002 A 
ENDBRANCH  32  33
ENDBRANCH  28  32
ENDBRANCH  24  25
ENDBRANCH  13  24
TORSDOF 6
