REMARK  Name = ZINC40033301
REMARK  5 active torsions:
REMARK  status: ('A' for Active; 'I' for Inactive)
REMARK    1  A    between atoms: C_1  and  C_2
REMARK    2  A    between atoms: C_2  and  C_31
REMARK    3  A    between atoms: N_14  and  C_25
REMARK    4  A    between atoms: N_17  and  N_18
REMARK    5  A    between atoms: C_19  and  C_20
REMARK                            x       y       z     vdW  Elec       q    Type
REMARK                         _______ _______ _______ _____ _____    ______ ____
ROOT
ATOM      1  C   UNL     1      -0.429   0.582  -0.475  0.00  0.00    +0.016 C 
ATOM      2  C   UNL     1      -0.373  -0.888  -0.052  0.00  0.00    +0.001 C 
ATOM      3  C   UNL     1      -1.790  -1.385   0.226  0.00  0.00    +0.047 C 
ATOM      4  C   UNL     1      -2.342  -0.741   1.469  0.00  0.00    -0.037 A 
ATOM      5  C   UNL     1      -3.681  -0.419   1.554  0.00  0.00    +0.004 A 
ATOM      6  C   UNL     1      -4.181   0.169   2.702  0.00  0.00    +0.000 A 
ATOM      7  C   UNL     1      -3.346   0.438   3.772  0.00  0.00    +0.001 A 
ATOM      8  C   UNL     1      -2.004   0.123   3.699  0.00  0.00    +0.010 A 
ATOM      9  C   UNL     1      -1.497  -0.468   2.546  0.00  0.00    +0.004 A 
ATOM     10  C   UNL     1      -0.060  -0.809   2.435  0.00  0.00    +0.084 A 
ATOM     11  C   UNL     1       0.484  -1.017   1.175  0.00  0.00    +0.049 A 
ATOM     12  C   UNL     1       1.841  -1.348   1.072  0.00  0.00    +0.264 A 
ATOM     13  O   UNL     1       2.354  -1.540  -0.018  0.00  0.00    -0.267 OA
ATOM     14  N   UNL     1       2.569  -1.450   2.205  0.00  0.00    -0.248 N 
ATOM     15  C   UNL     1       1.987  -1.229   3.418  0.00  0.00    +0.223 A 
ATOM     16  N   UNL     1       0.710  -0.918   3.522  0.00  0.00    -0.214 NA
ATOM     17  N   UNL     1       2.745  -1.333   4.555  0.00  0.00    -0.206 N 
ATOM     18  C   UNL     1       0.238  -1.716  -1.184  0.00  0.00    +0.016 C 
ATOM     19  H   UNL     1       3.684  -1.568   4.491  0.00  0.00    +0.177 HD
ENDROOT
BRANCH  14  20
ATOM     20  C   UNL     1       3.928  -1.783   2.133  0.00  0.00    +0.053 A 
ATOM     21  C   UNL     1       4.322  -3.113   2.193  0.00  0.00    +0.026 A 
ATOM     22  C   UNL     1       5.662  -3.439   2.122  0.00  0.00    +0.002 A 
ATOM     23  C   UNL     1       6.611  -2.442   1.991  0.00  0.00    +0.000 A 
ATOM     24  C   UNL     1       6.222  -1.116   1.930  0.00  0.00    +0.002 A 
ATOM     25  C   UNL     1       4.883  -0.784   1.996  0.00  0.00    +0.026 A 
ENDBRANCH  14  20
BRANCH  17  26
ATOM     26  N   UNL     1       2.164  -1.101   5.808  0.00  0.00    -0.184 NA
ATOM     27  C   UNL     1       2.884  -1.200   6.887  0.00  0.00    +0.176 C 
BRANCH  27  28
ATOM     28  C   UNL     1       2.276  -0.957   8.199  0.00  0.00    +0.147 A 
ATOM     29  C   UNL     1       2.915  -1.021   9.403  0.00  0.00    +0.051 A 
ATOM     30  C   UNL     1       1.956  -0.717  10.387  0.00  0.00    +0.042 A 
ATOM     31  C   UNL     1       0.792  -0.484   9.748  0.00  0.00    +0.196 A 
ATOM     32  O   UNL     1       0.990  -0.625   8.427  0.00  0.00    -0.462 OA
ENDBRANCH  27  28
ENDBRANCH  17  26
TORSDOF 3
