REMARK  Name = ZINC66135148
REMARK  12 active torsions:
REMARK  status: ('A' for Active; 'I' for Inactive)
REMARK    1  A    between atoms: C_1  and  C_2
REMARK    2  A    between atoms: C_2  and  C_3
REMARK    3  A    between atoms: C_3  and  C_5
REMARK    4  A    between atoms: C_3  and  C_6
REMARK    5  A    between atoms: C_11  and  O_12
REMARK    6  A    between atoms: O_12  and  C_13
REMARK    7  A    between atoms: C_13  and  C_15
REMARK    8  A    between atoms: C_13  and  C_17
REMARK    9  A    between atoms: C_15  and  C_16
REMARK   10  A    between atoms: C_18  and  C_24
REMARK   11  A    between atoms: C_19  and  C_23
REMARK   12  A    between atoms: N_26  and  N_27
REMARK                            x       y       z     vdW  Elec       q    Type
REMARK                         _______ _______ _______ _____ _____    ______ ____
ROOT
ATOM      1  C   UNL     1      -1.038  -2.547  -4.541  0.00  0.00    +0.222 C 
ENDROOT
BRANCH   1   2
ATOM      2  C   UNL     1      -0.782  -1.739  -5.787  0.00  0.00    +0.089 A 
ATOM      3  C   UNL     1      -0.688  -2.229  -7.074  0.00  0.00    +0.085 A 
ATOM      4  C   UNL     1      -0.443  -1.126  -7.923  0.00  0.00    +0.072 A 
ATOM      5  N   UNL     1      -0.396  -0.051  -7.185  0.00  0.00    -0.178 NA
ATOM      6  N   UNL     1      -0.610  -0.409  -5.849  0.00  0.00    -0.277 N 
ATOM      7  H   UNL     1      -0.628   0.201  -5.096  0.00  0.00    +0.189 HD
ATOM      8  C   UNL     1      -0.268  -1.182  -9.419  0.00  0.00    +0.068 C 
BRANCH   3   9
ATOM      9  C   UNL     1      -0.817  -3.639  -7.485  0.00  0.00    +0.261 C 
ATOM     10  O   UNL     1      -1.908  -4.088  -7.781  0.00  0.00    -0.269 OA
ATOM     11  N   UNL     1       0.273  -4.429  -7.533  0.00  0.00    -0.249 N 
ATOM     12  H   UNL     1       1.143  -4.071  -7.297  0.00  0.00    +0.169 HD
BRANCH  11  13
ATOM     13  N   UNL     1       0.153  -5.736  -7.915  0.00  0.00    -0.254 NA
ATOM     14  H   UNL     1      -0.280  -5.809  -8.823  0.00  0.00    +0.140 HD
ATOM     15  H   UNL     1       1.048  -6.200  -7.903  0.00  0.00    +0.140 HD
ENDBRANCH  11  13
ENDBRANCH   3   9
ENDBRANCH   1   2
BRANCH   1  16
ATOM     16  C   UNL     1      -2.544  -2.750  -4.365  0.00  0.00    +0.048 C 
ATOM     17  C   UNL     1      -2.798  -3.674  -3.172  0.00  0.00    +0.008 C 
ENDBRANCH   1  16
BRANCH   1  18
ATOM     18  O   UNL     1      -0.515  -1.853  -3.407  0.00  0.00    -0.482 OA
BRANCH  18  24
ATOM     19  C   UNL     1       0.737  -1.984  -1.388  0.00  0.00    -0.003 A 
ATOM     20  C   UNL     1       1.355  -2.748  -0.417  0.00  0.00    +0.007 A 
ATOM     21  C   UNL     1       1.344  -4.128  -0.510  0.00  0.00    +0.001 A 
ATOM     22  C   UNL     1       0.714  -4.746  -1.575  0.00  0.00    +0.004 A 
ATOM     23  C   UNL     1       0.094  -3.986  -2.548  0.00  0.00    +0.046 A 
ATOM     24  C   UNL     1       0.099  -2.602  -2.454  0.00  0.00    +0.125 A 
BRANCH  19  25
ATOM     25  C   UNL     1       0.750  -0.481  -1.286  0.00  0.00    +0.019 C 
ATOM     26  C   UNL     1       2.196   0.019  -1.296  0.00  0.00    +0.012 C 
BRANCH  25  28
ATOM     27  C   UNL     1      -0.028   1.474   0.062  0.00  0.00    +0.004 C 
ATOM     28  C   UNL     1       0.071  -0.052   0.017  0.00  0.00    +0.004 C 
ENDBRANCH  25  28
ENDBRANCH  19  25
ENDBRANCH  18  24
ENDBRANCH   1  18
TORSDOF 8
