REMARK  Name = ZINC63913304
REMARK  10 active torsions:
REMARK  status: ('A' for Active; 'I' for Inactive)
REMARK    1  A    between atoms: C_1  and  C_2
REMARK    2  A    between atoms: N_6  and  C_14
REMARK    3  A    between atoms: C_14  and  C_15
REMARK    4  A    between atoms: C_15  and  C_16
REMARK    5  A    between atoms: N_18  and  C_19
REMARK    6  A    between atoms: C_19  and  C_20
REMARK    7  A    between atoms: C_20  and  C_22
REMARK    8  A    between atoms: C_20  and  C_30
REMARK    9  A    between atoms: C_25  and  O_28
REMARK   10  A    between atoms: O_28  and  C_29
REMARK                            x       y       z     vdW  Elec       q    Type
REMARK                         _______ _______ _______ _____ _____    ______ ____
ROOT
ATOM      1  C   UNL     1      -6.419  -4.964  -1.770  0.00  0.00    +0.116 C 
ENDROOT
BRANCH   1   4
ATOM      2  C   UNL     1      -4.648  -3.654  -0.728  0.00  0.00    +0.215 C 
ATOM      3  O   UNL     1      -5.408  -3.407   0.185  0.00  0.00    -0.276 OA
ATOM      4  N   UNL     1      -5.057  -4.425  -1.755  0.00  0.00    -0.314 N 
ATOM      5  H   UNL     1      -4.449  -4.622  -2.485  0.00  0.00    +0.149 HD
BRANCH   2   6
ATOM      6  C   UNL     1      -3.247  -3.099  -0.713  0.00  0.00    +0.115 C 
BRANCH   6   7
ATOM      7  C   UNL     1      -3.042  -2.266   0.554  0.00  0.00    +0.123 C 
BRANCH   7  12
ATOM      8  C   UNL     1      -0.019   1.526   0.010  0.00  0.00    +0.062 C 
ATOM      9  C   UNL     1       0.002  -0.004   0.002  0.00  0.00    +0.256 C 
ATOM     10  C   UNL     1      -1.413  -0.525   0.011  0.00  0.00    +0.260 C 
ATOM     11  O   UNL     1      -2.306   0.131  -0.480  0.00  0.00    -0.271 OA
ATOM     12  N   UNL     1      -1.680  -1.726   0.568  0.00  0.00    -0.265 N 
ATOM     13  C   UNL     1      -0.635  -2.448   1.161  0.00  0.00    +0.078 A 
ATOM     14  C   UNL     1      -0.781  -3.794   1.454  0.00  0.00    +0.027 A 
ATOM     15  C   UNL     1       0.262  -4.488   2.040  0.00  0.00    +0.002 A 
ATOM     16  C   UNL     1       1.449  -3.842   2.333  0.00  0.00    +0.004 A 
ATOM     17  C   UNL     1       1.602  -2.498   2.042  0.00  0.00    +0.047 A 
ATOM     18  C   UNL     1       0.562  -1.798   1.455  0.00  0.00    +0.143 A 
ATOM     19  O   UNL     1       0.695  -0.477   1.160  0.00  0.00    -0.478 OA
ENDBRANCH   7  12
ENDBRANCH   6   7
ENDBRANCH   2   6
ENDBRANCH   1   4
BRANCH   1  20
ATOM     20  C   UNL     1      -6.624  -5.797  -3.037  0.00  0.00    +0.064 C 
BRANCH  20  21
ATOM     21  C   UNL     1      -6.537  -4.902  -4.246  0.00  0.00    -0.033 C 
ATOM     22  C   UNL     1      -5.659  -5.003  -5.270  0.00  0.00    -0.000 A 
ATOM     23  C   UNL     1      -4.564  -5.939  -5.553  0.00  0.00    +0.010 A 
ATOM     24  C   UNL     1      -3.844  -5.781  -6.687  0.00  0.00    +0.001 A 
ATOM     25  C   UNL     1      -4.115  -4.749  -7.596  0.00  0.00    +0.002 A 
ATOM     26  C   UNL     1      -5.104  -3.851  -7.404  0.00  0.00    +0.026 A 
ATOM     27  C   UNL     1      -5.926  -3.922  -6.246  0.00  0.00    +0.043 A 
ATOM     28  N   UNL     1      -6.929  -3.182  -5.841  0.00  0.00    -0.380 N 
ATOM     29  C   UNL     1      -7.417  -3.714  -4.563  0.00  0.00    +0.145 C 
ATOM     30  H   UNL     1      -7.292  -2.414  -6.309  0.00  0.00    +0.160 HD
ENDBRANCH  20  21
BRANCH  20  31
ATOM     31  C   UNL     1      -7.981  -6.452  -2.993  0.00  0.00    -0.038 A 
ATOM     32  C   UNL     1      -9.121  -5.673  -2.922  0.00  0.00    +0.008 A 
ATOM     33  C   UNL     1     -10.366  -6.271  -2.881  0.00  0.00    +0.046 A 
ATOM     34  C   UNL     1     -10.471  -7.654  -2.912  0.00  0.00    +0.120 A 
ATOM     35  C   UNL     1      -9.325  -8.433  -2.984  0.00  0.00    +0.046 A 
ATOM     36  C   UNL     1      -8.083  -7.830  -3.030  0.00  0.00    +0.008 A 
BRANCH  34  37
ATOM     37  O   UNL     1     -11.694  -8.245  -2.872  0.00  0.00    -0.495 OA
ATOM     38  C   UNL     1     -11.727  -9.673  -2.908  0.00  0.00    +0.277 C 
ENDBRANCH  34  37
ENDBRANCH  20  31
ENDBRANCH   1  20
TORSDOF 8
