REMARK  Name = ZINC05462555
REMARK  4 active torsions:
REMARK  status: ('A' for Active; 'I' for Inactive)
REMARK    1  A    between atoms: C_4  and  C_7
REMARK    2  A    between atoms: C_18  and  C_20
REMARK    3  A    between atoms: C_20  and  S_21
REMARK    4  A    between atoms: S_21  and  C_22
REMARK                            x       y       z     vdW  Elec       q    Type
REMARK                         _______ _______ _______ _____ _____    ______ ____
ROOT
ATOM      1  C   UNL     1      -3.758   1.252   0.559  0.00  0.00    +0.122 C 
ATOM      2  C   UNL     1      -3.297   1.466   2.009  0.00  0.00    +0.102 C 
ATOM      3  S   UNL     1      -2.489   3.092   2.096  0.00  0.00    -0.121 S 
ATOM      4  C   UNL     1      -1.428   3.094   0.686  0.00  0.00    +0.029 A 
ATOM      5  C   UNL     1      -0.416   4.043   0.604  0.00  0.00    +0.016 A 
ATOM      6  C   UNL     1       0.423   4.071  -0.492  0.00  0.00    +0.001 A 
ATOM      7  C   UNL     1       0.255   3.153  -1.513  0.00  0.00    +0.002 A 
ATOM      8  C   UNL     1      -0.747   2.207  -1.438  0.00  0.00    +0.024 A 
ATOM      9  C   UNL     1      -1.600   2.168  -0.338  0.00  0.00    +0.050 A 
ATOM     10  N   UNL     1      -2.580   1.173  -0.300  0.00  0.00    -0.261 N 
ATOM     11  C   UNL     1      -2.436   0.095  -1.096  0.00  0.00    +0.231 C 
ATOM     12  O   UNL     1      -3.410  -0.544  -1.434  0.00  0.00    -0.274 OA
ENDROOT
BRANCH   1  16
ATOM     13  C   UNL     1      -5.978  -2.387   0.284  0.00  0.00    +0.000 A 
ATOM     14  C   UNL     1      -6.446  -1.244  -0.335  0.00  0.00    +0.000 A 
ATOM     15  C   UNL     1      -5.728  -0.066  -0.246  0.00  0.00    +0.005 A 
ATOM     16  C   UNL     1      -4.541  -0.032   0.463  0.00  0.00    -0.026 A 
ATOM     17  C   UNL     1      -4.070  -1.177   1.077  0.00  0.00    +0.005 A 
ATOM     18  C   UNL     1      -4.791  -2.353   0.992  0.00  0.00    +0.000 A 
ENDBRANCH   1  16
BRANCH  11  19
ATOM     19  C   UNL     1      -1.065  -0.317  -1.565  0.00  0.00    +0.172 C 
BRANCH  19  20
ATOM     20  S   UNL     1      -1.071  -2.084  -1.975  0.00  0.00    -0.088 S 
BRANCH  20  21
ATOM     21  C   UNL     1       0.580  -2.406  -2.500  0.00  0.00    +0.160 A 
ATOM     22  N   UNL     1       1.604  -1.579  -2.592  0.00  0.00    -0.133 NA
ATOM     23  N   UNL     1       2.823  -2.046  -3.027  0.00  0.00    -0.125 NA
ATOM     24  C   UNL     1       2.959  -3.314  -3.360  0.00  0.00    +0.180 A 
ATOM     25  S   UNL     1       1.313  -3.937  -3.057  0.00  0.00    -0.025 S 
ATOM     26  N   UNL     1       4.084  -3.987  -3.823  0.00  0.00    -0.336 N 
ATOM     27  H   UNL     1       4.032  -4.934  -4.030  0.00  0.00    +0.144 HD
ATOM     28  H   UNL     1       4.920  -3.511  -3.940  0.00  0.00    +0.144 HD
ENDBRANCH  20  21
ENDBRANCH  19  20
ENDBRANCH  11  19
TORSDOF 4
