REMARK  Name = ZINC12457270
REMARK  9 active torsions:
REMARK  status: ('A' for Active; 'I' for Inactive)
REMARK    1  A    between atoms: C_1  and  C_2
REMARK    2  A    between atoms: C_6  and  C_7
REMARK    3  A    between atoms: N_9  and  C_10
REMARK    4  A    between atoms: N_9  and  C_19
REMARK    5  A    between atoms: C_10  and  C_11
REMARK    6  A    between atoms: C_11  and  C_12
REMARK    7  A    between atoms: C_12  and  N_13
REMARK    8  A    between atoms: C_19  and  C_20
REMARK    9  A    between atoms: C_28  and  N_29
REMARK                            x       y       z     vdW  Elec       q    Type
REMARK                         _______ _______ _______ _____ _____    ______ ____
ROOT
ATOM      1  C   UNL     1       2.709   6.147  -1.639  0.00  0.00    +0.008 A 
ATOM      2  C   UNL     1       3.872   5.839  -2.278  0.00  0.00    +0.018 A 
ATOM      3  C   UNL     1       4.003   6.196  -3.636  0.00  0.00    -0.001 A 
ATOM      4  C   UNL     1       5.170   5.906  -4.357  0.00  0.00    +0.014 A 
ATOM      5  C   UNL     1       5.268   6.267  -5.670  0.00  0.00    -0.043 A 
ATOM      6  C   UNL     1       4.215   6.924  -6.307  0.00  0.00    -0.042 A 
ATOM      7  C   UNL     1       3.067   7.221  -5.631  0.00  0.00    +0.030 A 
ATOM      8  C   UNL     1       2.933   6.865  -4.279  0.00  0.00    +0.048 A 
ATOM      9  C   UNL     1       1.687   6.813  -2.331  0.00  0.00    +0.104 A 
ATOM     10  C   UNL     1       4.590   7.201  -7.748  0.00  0.00    +0.036 C 
ATOM     11  C   UNL     1       5.781   6.266  -8.045  0.00  0.00    +0.009 C 
ATOM     12  C   UNL     1       6.407   6.067  -6.649  0.00  0.00    +0.036 C 
ATOM     13  N   UNL     1       1.759   7.184  -3.633  0.00  0.00    -0.343 N 
ATOM     14  H   UNL     1       0.989   7.670  -4.107  0.00  0.00    +0.167 HD
ENDROOT
BRANCH   9  15
ATOM     15  N   UNL     1       0.511   7.127  -1.665  0.00  0.00    -0.312 N 
ATOM     16  C   UNL     1      -0.656   6.935  -2.538  0.00  0.00    +0.134 C 
ATOM     17  C   UNL     1      -1.932   7.234  -1.747  0.00  0.00    +0.178 C 
ATOM     18  O   UNL     1      -1.861   8.563  -1.222  0.00  0.00    -0.377 OA
ATOM     19  C   UNL     1      -0.736   8.784  -0.366  0.00  0.00    +0.178 C 
ATOM     20  C   UNL     1       0.552   8.500  -1.143  0.00  0.00    +0.134 C 
ENDBRANCH   9  15
BRANCH   1  21
ATOM     21  C   UNL     1       2.524   5.780  -0.189  0.00  0.00    +0.146 C 
BRANCH  21  24
ATOM     22  C   UNL     1       2.464   3.351   0.002  0.00  0.00    +0.254 C 
ATOM     23  O   UNL     1       3.679   3.356   0.081  0.00  0.00    -0.269 OA
ATOM     24  N   UNL     1       1.791   4.515  -0.096  0.00  0.00    -0.293 N 
BRANCH  22  30
ATOM     25  C   UNL     1       3.710   0.515  -0.113  0.00  0.00    +0.045 C 
ATOM     26  C   UNL     1       2.230   0.787  -0.037  0.00  0.00    -0.031 A 
ATOM     27  C   UNL     1       1.314  -0.235  -0.013  0.00  0.00    +0.011 A 
ATOM     28  C   UNL     1      -0.010   0.062   0.057  0.00  0.00    +0.046 A 
ATOM     29  S   UNL     1      -0.025   1.795   0.092  0.00  0.00    -0.092 S 
ATOM     30  C   UNL     1       1.734   2.080   0.012  0.00  0.00    +0.077 A 
ENDBRANCH  22  30
BRANCH  24  31
ATOM     31  C   UNL     1       0.326   4.514  -0.108  0.00  0.00    +0.110 C 
BRANCH  31  32
ATOM     32  C   UNL     1      -0.196   4.451   1.328  0.00  0.00    +0.038 C 
BRANCH  32  33
ATOM     33  C   UNL     1      -1.722   4.332   1.312  0.00  0.00    +0.109 C 
BRANCH  33  34
ATOM     34  N   UNL     1      -2.231   4.391   2.684  0.00  0.00    -0.301 N 
ATOM     35  C   UNL     1      -2.431   3.219   3.544  0.00  0.00    +0.108 C 
ATOM     36  C   UNL     1      -2.544   3.779   4.981  0.00  0.00    +0.028 C 
ATOM     37  C   UNL     1      -3.052   5.215   4.719  0.00  0.00    +0.097 C 
ATOM     38  C   UNL     1      -2.580   5.525   3.315  0.00  0.00    +0.216 C 
ATOM     39  O   UNL     1      -2.526   6.635   2.830  0.00  0.00    -0.276 OA
ENDBRANCH  33  34
ENDBRANCH  32  33
ENDBRANCH  31  32
ENDBRANCH  24  31
ENDBRANCH  21  24
ENDBRANCH   1  21
TORSDOF 8
