REMARK  Name = ZINC63686501
REMARK  8 active torsions:
REMARK  status: ('A' for Active; 'I' for Inactive)
REMARK    1  A    between atoms: C_1  and  C_2
REMARK    2  A    between atoms: C_9  and  C_13
REMARK    3  A    between atoms: C_13  and  S_14
REMARK    4  A    between atoms: S_14  and  C_15
REMARK    5  A    between atoms: C_18  and  N_21
REMARK    6  A    between atoms: C_22  and  C_24
REMARK    7  A    between atoms: C_24  and  C_25
REMARK    8  A    between atoms: C_24  and  C_26
REMARK                            x       y       z     vdW  Elec       q    Type
REMARK                         _______ _______ _______ _____ _____    ______ ____
ROOT
ATOM      1  C   UNL     1       0.084  -4.876   3.693  0.00  0.00    +0.129 C 
ENDROOT
BRANCH   1  10
ATOM      2  C   UNL     1      -0.018   1.503   0.010  0.00  0.00    +0.044 C 
ATOM      3  C   UNL     1       0.002  -0.004   0.002  0.00  0.00    -0.048 A 
ATOM      4  C   UNL     1       0.006  -0.684  -1.208  0.00  0.00    +0.004 A 
ATOM      5  C   UNL     1       0.024  -2.051  -1.237  0.00  0.00    +0.014 A 
ATOM      6  C   UNL     1       0.039  -2.767  -0.040  0.00  0.00    +0.045 A 
ATOM      7  C   UNL     1       0.036  -2.084   1.189  0.00  0.00    +0.051 A 
ATOM      8  C   UNL     1       0.023  -0.692   1.195  0.00  0.00    +0.029 A 
ATOM      9  N   UNL     1       0.051  -2.801   2.364  0.00  0.00    -0.357 N 
ATOM     10  C   UNL     1       0.069  -4.156   2.369  0.00  0.00    +0.030 A 
ATOM     11  C   UNL     1       0.074  -4.886   1.234  0.00  0.00    +0.073 A 
ATOM     12  C   UNL     1       0.059  -4.240  -0.025  0.00  0.00    +0.190 A 
ATOM     13  O   UNL     1       0.062  -4.881  -1.062  0.00  0.00    -0.287 OA
ATOM     14  H   UNL     1       0.049  -2.325   3.209  0.00  0.00    +0.166 HD
ENDBRANCH   1  10
BRANCH   1  15
ATOM     15  S   UNL     1       1.738  -4.754   4.428  0.00  0.00    -0.091 S 
BRANCH  15  16
ATOM     16  C   UNL     1       1.594  -5.632   5.949  0.00  0.00    +0.152 C 
ATOM     17  N   UNL     1       0.549  -6.233   6.429  0.00  0.00    -0.171 NA
ATOM     18  N   UNL     1       0.547  -6.894   7.637  0.00  0.00    -0.237 N 
ATOM     19  C   UNL     1       1.834  -6.878   8.368  0.00  0.00    +0.241 C 
ATOM     20  S   UNL     1       2.855  -5.908   7.184  0.00  0.00    -0.054 S 
ATOM     21  H   UNL     1      -0.242  -7.339   7.984  0.00  0.00    +0.171 HD
BRANCH  19  22
ATOM     22  N   UNL     1       2.366  -8.232   8.541  0.00  0.00    -0.287 N 
ATOM     23  C   UNL     1       3.355  -8.459   9.428  0.00  0.00    +0.218 C 
ATOM     24  O   UNL     1       3.804  -7.543  10.084  0.00  0.00    -0.275 OA
ATOM     25  H   UNL     1       2.007  -8.965   8.017  0.00  0.00    +0.151 HD
BRANCH  23  26
ATOM     26  C   UNL     1       3.903  -9.852   9.606  0.00  0.00    +0.069 C 
ATOM     27  C   UNL     1       4.478 -10.347   8.277  0.00  0.00    +0.017 C 
ATOM     28  C   UNL     1       5.008  -9.834  10.665  0.00  0.00    +0.017 C 
ENDBRANCH  23  26
ENDBRANCH  19  22
ENDBRANCH  15  16
ENDBRANCH   1  15
TORSDOF 5
