REMARK  Name = ZINC13071582
REMARK  9 active torsions:
REMARK  status: ('A' for Active; 'I' for Inactive)
REMARK    1  A    between atoms: C_1  and  C_2
REMARK    2  A    between atoms: C_2  and  N_3
REMARK    3  A    between atoms: N_3  and  C_4
REMARK    4  A    between atoms: N_3  and  C_18
REMARK    5  A    between atoms: C_4  and  C_5
REMARK    6  A    between atoms: C_18  and  N_19
REMARK    7  A    between atoms: N_25  and  C_26
REMARK    8  A    between atoms: C_29  and  C_33
REMARK    9  A    between atoms: C_30  and  C_32
REMARK                            x       y       z     vdW  Elec       q    Type
REMARK                         _______ _______ _______ _____ _____    ______ ____
ROOT
ATOM      1  N   UNL     1       7.682   3.193   1.749  0.00  0.00    -0.277 NA
ENDROOT
BRANCH   1   3
ATOM      2  C   UNL     1       8.811   1.068   1.295  0.00  0.00    +0.020 C 
ATOM      3  C   UNL     1       7.792   1.792   2.177  0.00  0.00    +0.083 C 
ENDBRANCH   1   3
BRANCH   1   4
ATOM      4  C   UNL     1       8.963   3.894   1.910  0.00  0.00    +0.160 C 
BRANCH   4   5
ATOM      5  C   UNL     1       9.220   4.141   3.375  0.00  0.00    +0.125 A 
ATOM      6  N   UNL     1      10.365   4.780   3.730  0.00  0.00    -0.309 N 
ATOM      7  H   UNL     1      11.078   5.101   2.956  0.00  0.00    +0.170 HD
ATOM      8  C   UNL     1      10.642   5.026   5.031  0.00  0.00    +0.259 A 
ATOM      9  O   UNL     1      11.664   5.598   5.363  0.00  0.00    -0.267 OA
ATOM     10  C   UNL     1       9.660   4.578   6.029  0.00  0.00    +0.065 A 
ATOM     11  C   UNL     1       9.849   4.783   7.394  0.00  0.00    +0.017 A 
ATOM     12  C   UNL     1       8.904   4.347   8.281  0.00  0.00    +0.021 A 
ATOM     13  C   UNL     1       7.757   3.701   7.835  0.00  0.00    +0.043 A 
ATOM     14  C   UNL     1       7.546   3.486   6.490  0.00  0.00    +0.048 A 
ATOM     15  C   UNL     1       8.497   3.922   5.566  0.00  0.00    +0.080 A 
ATOM     16  N   UNL     1       8.332   3.739   4.232  0.00  0.00    -0.232 NA
ATOM     17 CL   UNL     1       6.576   3.159   8.986  0.00  0.00    -0.083 Cl
ENDBRANCH   4   5
ENDBRANCH   1   4
BRANCH   1  18
ATOM     18  C   UNL     1       7.203   3.285   0.363  0.00  0.00    +0.232 C 
BRANCH  18  19
ATOM     19  N   UNL     1       5.770   2.984   0.322  0.00  0.00    -0.234 N 
ATOM     20  C   UNL     1       5.332   1.737   0.014  0.00  0.00    +0.146 A 
ATOM     21  S   UNL     1       6.233   0.332  -0.367  0.00  0.00    -0.023 S 
ATOM     22  S   UNL     1       3.563   1.957   0.122  0.00  0.00    -0.026 S 
ATOM     23  C   UNL     1       3.561   3.689   0.557  0.00  0.00    +0.185 A 
ATOM     24  N   UNL     1       4.839   3.961   0.595  0.00  0.00    -0.146 NA
ATOM     25  N   UNL     1       2.481   4.528   0.799  0.00  0.00    -0.292 N 
ATOM     26  H   UNL     1       2.647   5.602   0.969  0.00  0.00    +0.154 HD
BRANCH  25  27
ATOM     27  C   UNL     1       1.184   4.008   0.825  0.00  0.00    +0.033 A 
ATOM     28  C   UNL     1       0.963   2.713   1.277  0.00  0.00    +0.023 A 
ATOM     29  C   UNL     1      -0.320   2.202   1.301  0.00  0.00    +0.005 A 
ATOM     30  C   UNL     1      -1.383   2.976   0.872  0.00  0.00    -0.047 A 
ATOM     31  C   UNL     1      -1.166   4.268   0.427  0.00  0.00    -0.046 A 
ATOM     32  C   UNL     1       0.114   4.785   0.400  0.00  0.00    +0.027 A 
ATOM     33  C   UNL     1      -2.328   5.109  -0.034  0.00  0.00    +0.044 C 
ATOM     34  C   UNL     1      -2.780   2.413   0.894  0.00  0.00    +0.044 C 
ENDBRANCH  25  27
ENDBRANCH  18  19
ENDBRANCH   1  18
TORSDOF 6
