REMARK  Name = ZINC66968625
REMARK  13 active torsions:
REMARK  status: ('A' for Active; 'I' for Inactive)
REMARK    1  A    between atoms: C_1  and  C_2
REMARK    2  A    between atoms: C_2  and  C_3
REMARK    3  A    between atoms: C_3  and  N_4
REMARK    4  A    between atoms: C_10  and  N_13
REMARK    5  A    between atoms: N_13  and  C_14
REMARK    6  A    between atoms: C_14  and  C_16
REMARK    7  A    between atoms: C_14  and  C_17
REMARK    8  A    between atoms: C_17  and  C_19
REMARK    9  A    between atoms: C_20  and  C_30
REMARK   10  A    between atoms: C_21  and  C_26
REMARK   11  A    between atoms: C_22  and  C_25
REMARK   12  A    between atoms: C_26  and  O_28
REMARK   13  A    between atoms: O_28  and  C_29
REMARK                            x       y       z     vdW  Elec       q    Type
REMARK                         _______ _______ _______ _____ _____    ______ ____
ROOT
ATOM      1  C   UNL     1      -5.693  -6.056   0.161  0.00  0.00    +0.140 C 
ATOM      2  C   UNL     1      -5.144  -7.162   1.065  0.00  0.00    +0.036 C 
ENDROOT
BRANCH   1   3
ATOM      3  N   UNL     1      -4.774  -4.915   0.173  0.00  0.00    -0.334 N 
ATOM      4  H   UNL     1      -4.927  -4.176   0.781  0.00  0.00    +0.147 HD
BRANCH   3  11
ATOM      5  N   UNL     1      -1.413  -2.002   0.005  0.00  0.00    +0.385 N 
ATOM      6  C   UNL     1      -0.958  -2.509  -1.310  0.00  0.00    -0.042 C 
ATOM      7  C   UNL     1      -1.721  -3.793  -1.540  0.00  0.00    -0.061 A 
ATOM      8  C   UNL     1      -1.505  -4.849  -2.405  0.00  0.00    +0.002 A 
ATOM      9  C   UNL     1      -2.371  -5.927  -2.417  0.00  0.00    +0.002 A 
ATOM     10  C   UNL     1      -3.457  -5.952  -1.563  0.00  0.00    +0.023 A 
ATOM     11  C   UNL     1      -3.677  -4.893  -0.692  0.00  0.00    +0.029 A 
ATOM     12  C   UNL     1      -2.805  -3.812  -0.682  0.00  0.00    -0.042 A 
ATOM     13  C   UNL     1      -2.786  -2.541   0.136  0.00  0.00    -0.040 C 
ATOM     14  H   UNL     1      -0.824  -2.353   0.745  0.00  0.00    -0.081 HD
BRANCH   5  15
ATOM     15  C   UNL     1      -1.433  -0.534   0.013  0.00  0.00    -0.078 C 
BRANCH  15  17
ATOM     16  C   UNL     1      -0.019   1.526   0.010  0.00  0.00    +0.002 C 
ATOM     17  C   UNL     1       0.002  -0.004   0.002  0.00  0.00    -0.022 C 
ENDBRANCH  15  17
ENDBRANCH   5  15
ENDBRANCH   3  11
ENDBRANCH   1   3
BRANCH   1  18
ATOM     18  C   UNL     1      -7.043  -5.618   0.667  0.00  0.00    +0.199 C 
ATOM     19  O   UNL     1      -7.159  -4.562   1.253  0.00  0.00    -0.289 OA
BRANCH  18  20
ATOM     20  C   UNL     1      -8.178  -6.439   0.458  0.00  0.00    +0.088 A 
ATOM     21  C   UNL     1      -9.465  -6.159   0.860  0.00  0.00    -0.008 A 
ATOM     22  C   UNL     1     -10.268  -7.243   0.446  0.00  0.00    +0.083 A 
ATOM     23  C   UNL     1      -9.437  -8.146  -0.195  0.00  0.00    +0.028 A 
ATOM     24  N   UNL     1      -8.188  -7.658  -0.191  0.00  0.00    -0.355 N 
ATOM     25  H   UNL     1      -7.414  -8.093  -0.580  0.00  0.00    +0.166 HD
ATOM     26  C   UNL     1      -9.866  -9.457  -0.802  0.00  0.00    +0.064 C 
ATOM     27  C   UNL     1      -9.928  -4.930   1.601  0.00  0.00    +0.047 C 
BRANCH  22  28
ATOM     28  C   UNL     1     -11.719  -7.387   0.657  0.00  0.00    +0.341 C 
ATOM     29  O   UNL     1     -12.498  -6.963  -0.173  0.00  0.00    -0.245 OA
BRANCH  28  30
ATOM     30  O   UNL     1     -12.181  -7.990   1.770  0.00  0.00    -0.464 OA
ATOM     31  C   UNL     1     -13.600  -8.095   1.908  0.00  0.00    +0.280 C 
ENDBRANCH  28  30
ENDBRANCH  22  28
ENDBRANCH  18  20
ENDBRANCH   1  18
TORSDOF 8
