REMARK  Name = ZINC58966454
REMARK  9 active torsions:
REMARK  status: ('A' for Active; 'I' for Inactive)
REMARK    1  A    between atoms: C_1  and  C_2
REMARK    2  A    between atoms: C_9  and  N_14
REMARK    3  A    between atoms: C_10  and  C_11
REMARK    4  A    between atoms: C_15  and  C_17
REMARK    5  A    between atoms: C_17  and  C_19
REMARK    6  A    between atoms: C_17  and  S_20
REMARK    7  A    between atoms: S_20  and  C_21
REMARK    8  A    between atoms: C_23  and  C_31
REMARK    9  A    between atoms: C_25  and  C_27
REMARK                            x       y       z     vdW  Elec       q    Type
REMARK                         _______ _______ _______ _____ _____    ______ ____
ROOT
ATOM      1  N   UNL     1       0.696  -5.847   2.434  0.00  0.00    -0.278 N 
ATOM      2  C   UNL     1       1.677  -6.096   3.324  0.00  0.00    +0.231 C 
ATOM      3  O   UNL     1       2.383  -5.191   3.716  0.00  0.00    -0.274 OA
ATOM      4  H   UNL     1       0.131  -6.571   2.120  0.00  0.00    +0.155 HD
ENDROOT
BRANCH   1  12
ATOM      5  C   UNL     1      -0.019   1.526   0.010  0.00  0.00    +0.008 C 
ATOM      6  C   UNL     1       0.002  -0.004   0.002  0.00  0.00    -0.009 C 
ATOM      7  C   UNL     1      -1.434  -0.537   0.019  0.00  0.00    +0.008 C 
ATOM      8  C   UNL     1      -1.433  -2.045  -0.237  0.00  0.00    +0.037 C 
ATOM      9  C   UNL     1      -0.464  -2.704   0.734  0.00  0.00    -0.023 A 
ATOM     10  C   UNL     1       0.485  -1.986   1.374  0.00  0.00    -0.004 A 
ATOM     11  S   UNL     1       1.343  -3.167   2.373  0.00  0.00    -0.077 S 
ATOM     12  C   UNL     1       0.492  -4.557   1.968  0.00  0.00    +0.084 A 
ATOM     13  C   UNL     1      -0.459  -4.119   1.061  0.00  0.00    +0.068 A 
ATOM     14  C   UNL     1       0.739  -0.515   1.248  0.00  0.00    +0.046 C 
BRANCH  13  15
ATOM     15  C   UNL     1      -1.421  -5.045   0.456  0.00  0.00    +0.244 C 
ATOM     16  O   UNL     1      -1.149  -5.611  -0.587  0.00  0.00    -0.270 OA
ATOM     17  N   UNL     1      -2.608  -5.271   1.055  0.00  0.00    -0.325 N 
ATOM     18  H   UNL     1      -2.825  -4.821   1.886  0.00  0.00    +0.145 HD
ATOM     19  H   UNL     1      -3.244  -5.884   0.655  0.00  0.00    +0.145 HD
ENDBRANCH  13  15
ENDBRANCH   1  12
BRANCH   2  20
ATOM     20  C   UNL     1       1.898  -7.498   3.830  0.00  0.00    +0.137 C 
ATOM     21  C   UNL     1       0.878  -7.810   4.926  0.00  0.00    +0.029 C 
BRANCH  20  22
ATOM     22  S   UNL     1       3.575  -7.639   4.507  0.00  0.00    -0.074 S 
BRANCH  22  23
ATOM     23  C   UNL     1       3.728  -9.346   4.914  0.00  0.00    +0.190 A 
ATOM     24  N   UNL     1       4.859  -9.784   5.446  0.00  0.00    -0.219 NA
ATOM     25  C   UNL     1       5.006 -11.070   5.765  0.00  0.00    +0.111 A 
ATOM     26  C   UNL     1       3.943 -11.952   5.529  0.00  0.00    +0.064 A 
ATOM     27  C   UNL     1       2.782 -11.450   4.972  0.00  0.00    +0.149 A 
ATOM     28  N   UNL     1       2.706 -10.159   4.685  0.00  0.00    -0.218 NA
BRANCH  25  29
ATOM     29  C   UNL     1       6.266 -11.557   6.357  0.00  0.00    +0.153 A 
ATOM     30  C   UNL     1       7.362 -10.800   6.638  0.00  0.00    +0.051 A 
ATOM     31  C   UNL     1       8.324 -11.667   7.188  0.00  0.00    +0.042 A 
ATOM     32  C   UNL     1       7.775 -12.899   7.217  0.00  0.00    +0.196 A 
ATOM     33  O   UNL     1       6.531 -12.827   6.720  0.00  0.00    -0.461 OA
ENDBRANCH  25  29
BRANCH  27  34
ATOM     34  C   UNL     1       1.613 -12.360   4.699  0.00  0.00    +0.434 C 
ATOM     35  F   UNL     1       0.778 -12.397   5.821  0.00  0.00    -0.164 F 
ATOM     36  F   UNL     1       0.895 -11.880   3.599  0.00  0.00    -0.164 F 
ATOM     37  F   UNL     1       2.080 -13.650   4.423  0.00  0.00    -0.164 F 
ENDBRANCH  27  34
ENDBRANCH  22  23
ENDBRANCH  20  22
ENDBRANCH   2  20
TORSDOF 7
