REMARK  Name = ZINC04631164
REMARK  7 active torsions:
REMARK  status: ('A' for Active; 'I' for Inactive)
REMARK    1  A    between atoms: C_1  and  C_2
REMARK    2  A    between atoms: N_7  and  C_8
REMARK    3  A    between atoms: C_8  and  C_10
REMARK    4  A    between atoms: C_8  and  C_19
REMARK    5  A    between atoms: C_15  and  N_16
REMARK    6  A    between atoms: C_25  and  C_30
REMARK    7  A    between atoms: C_28  and  O_29
REMARK                            x       y       z     vdW  Elec       q    Type
REMARK                         _______ _______ _______ _____ _____    ______ ____
ROOT
ATOM      1  C   UNL     1      -0.072   4.183   0.024  0.00  0.00    +0.138 C 
ENDROOT
BRANCH   1   2
ATOM      2  C   UNL     1       0.215   5.526   0.643  0.00  0.00    +0.021 A 
ATOM      3  C   UNL     1       0.234   6.662  -0.162  0.00  0.00    +0.010 A 
ATOM      4  C   UNL     1       0.486   7.891   0.367  0.00  0.00    +0.010 A 
ATOM      5  C   UNL     1       0.740   8.019   1.742  0.00  0.00    +0.004 A 
ATOM      6  C   UNL     1       1.010   9.272   2.325  0.00  0.00    +0.012 A 
ATOM      7  C   UNL     1       1.248   9.320   3.668  0.00  0.00    +0.023 A 
ATOM      8  C   UNL     1       1.221   8.148   4.422  0.00  0.00    +0.039 A 
ATOM      9  N   UNL     1       0.971   6.983   3.875  0.00  0.00    -0.248 NA
ATOM     10  C   UNL     1       0.728   6.867   2.567  0.00  0.00    +0.113 A 
ATOM     11  C   UNL     1       0.459   5.611   1.984  0.00  0.00    +0.148 A 
ATOM     12  C   UNL     1       1.487   8.222   5.903  0.00  0.00    +0.065 C 
BRANCH  11  13
ATOM     13  O   UNL     1       0.441   4.491   2.753  0.00  0.00    -0.504 OA
ATOM     14  H   UNL     1       1.311   4.094   2.890  0.00  0.00    +0.292 HD
ENDBRANCH  11  13
ENDBRANCH   1   2
BRANCH   1  21
ATOM     15  C   UNL     1       3.623  -0.681  -0.333  0.00  0.00    +0.063 C 
ATOM     16  C   UNL     1       2.308   0.042  -0.196  0.00  0.00    +0.014 A 
ATOM     17  C   UNL     1       1.142  -0.684  -0.061  0.00  0.00    +0.021 A 
ATOM     18  C   UNL     1      -0.067  -0.013   0.065  0.00  0.00    +0.005 A 
ATOM     19  C   UNL     1      -0.059   1.370   0.050  0.00  0.00    +0.041 A 
ATOM     20  C   UNL     1       1.154   2.038  -0.089  0.00  0.00    +0.097 A 
ATOM     21  N   UNL     1       1.177   3.428  -0.105  0.00  0.00    -0.319 N 
ATOM     22  H   UNL     1       2.020   3.898  -0.202  0.00  0.00    +0.148 HD
ATOM     23  N   UNL     1       2.354   1.401  -0.215  0.00  0.00    -0.347 N 
ATOM     24  H   UNL     1       3.236   1.915  -0.318  0.00  0.00    +0.167 HD
ENDBRANCH   1  21
BRANCH   1  25
ATOM     25  C   UNL     1      -0.685   4.378  -1.339  0.00  0.00    +0.007 A 
ATOM     26  C   UNL     1       0.087   4.212  -2.474  0.00  0.00    +0.008 A 
ATOM     27  C   UNL     1      -0.475   4.391  -3.724  0.00  0.00    +0.000 A 
ATOM     28  C   UNL     1      -1.809   4.736  -3.839  0.00  0.00    +0.002 A 
ATOM     29  C   UNL     1      -2.580   4.901  -2.704  0.00  0.00    +0.033 A 
ATOM     30  C   UNL     1      -2.019   4.717  -1.454  0.00  0.00    +0.131 A 
BRANCH  30  31
ATOM     31  N   UNL     1      -2.847   4.888  -0.239  0.00  0.00    +0.057 N 
ATOM     32  O   UNL     1      -3.998   5.275  -0.336  0.00  0.00    -0.126 OA
ATOM     33  O   UNL     1      -2.378   4.643   0.857  0.00  0.00    -0.126 OA
ENDBRANCH  30  31
ENDBRANCH   1  25
TORSDOF 5
