REMARK  Name = ZINC09608756
REMARK  12 active torsions:
REMARK  status: ('A' for Active; 'I' for Inactive)
REMARK    1  A    between atoms: C_1  and  C_2
REMARK    2  A    between atoms: C_2  and  C_3
REMARK    3  A    between atoms: C_2  and  C_4
REMARK    4  A    between atoms: C_4  and  S_5
REMARK    5  A    between atoms: S_5  and  C_6
REMARK    6  A    between atoms: C_17  and  C_19
REMARK    7  A    between atoms: C_23  and  O_27
REMARK    8  A    between atoms: C_24  and  O_25
REMARK    9  A    between atoms: O_25  and  C_26
REMARK   10  A    between atoms: O_27  and  C_28
REMARK   11  A    between atoms: C_32  and  C_34
REMARK   12  A    between atoms: C_32  and  C_35
REMARK                            x       y       z     vdW  Elec       q    Type
REMARK                         _______ _______ _______ _____ _____    ______ ____
ROOT
ATOM      1  C   UNL     1       6.556  -0.227   2.525  0.00  0.00    +0.171 A 
ATOM      2  N   UNL     1       5.619  -1.215   2.524  0.00  0.00    -0.302 N 
ATOM      3  H   UNL     1       5.580  -1.847   3.259  0.00  0.00    +0.171 HD
ATOM      4  C   UNL     1       4.742  -1.316   1.502  0.00  0.00    +0.258 A 
ATOM      5  O   UNL     1       3.896  -2.196   1.493  0.00  0.00    -0.267 OA
ATOM      6  C   UNL     1       4.822  -0.393   0.453  0.00  0.00    +0.069 A 
ATOM      7  C   UNL     1       5.796   0.589   0.500  0.00  0.00    +0.135 A 
ATOM      8  N   UNL     1       6.636   0.644   1.540  0.00  0.00    -0.208 NA
ATOM      9  N   UNL     1       5.897   1.503  -0.530  0.00  0.00    -0.302 N 
ATOM     10  C   UNL     1       5.340   1.239  -1.751  0.00  0.00    +0.017 C 
ATOM     11  C   UNL     1       4.370   0.311  -1.886  0.00  0.00    +0.024 C 
ATOM     12  C   UNL     1       3.865  -0.469  -0.699  0.00  0.00    +0.096 C 
ATOM     13  C   UNL     1       3.794   0.041  -3.140  0.00  0.00    +0.162 C 
ATOM     14  O   UNL     1       2.936  -0.814  -3.230  0.00  0.00    -0.292 OA
ATOM     15  C   UNL     1       4.221   0.790  -4.373  0.00  0.00    +0.086 C 
ATOM     16  C   UNL     1       4.714   2.181  -3.963  0.00  0.00    -0.023 C 
ATOM     17  C   UNL     1       5.844   2.014  -2.945  0.00  0.00    +0.058 C 
ATOM     18  C   UNL     1       3.565   2.969  -3.331  0.00  0.00    +0.011 C 
ATOM     19  C   UNL     1       5.236   2.929  -5.192  0.00  0.00    +0.011 C 
ATOM     20  H   UNL     1       6.366   2.340  -0.386  0.00  0.00    +0.153 HD
ENDROOT
BRANCH  12  21
ATOM     21  C   UNL     1       2.533   0.091  -0.271  0.00  0.00    +0.010 A 
ATOM     22  C   UNL     1       1.369  -0.603  -0.550  0.00  0.00    +0.008 A 
ATOM     23  C   UNL     1       0.146  -0.092  -0.159  0.00  0.00    +0.004 A 
ATOM     24  C   UNL     1       0.080   1.115   0.513  0.00  0.00    +0.049 A 
ATOM     25  C   UNL     1       1.242   1.815   0.796  0.00  0.00    +0.162 A 
ATOM     26  C   UNL     1       2.474   1.300   0.402  0.00  0.00    +0.166 A 
BRANCH  26  27
ATOM     27  O   UNL     1       3.617   1.983   0.677  0.00  0.00    -0.491 OA
ATOM     28  C   UNL     1       4.065   1.978   2.034  0.00  0.00    +0.277 C 
ENDBRANCH  26  27
BRANCH  25  29
ATOM     29  O   UNL     1       1.179   3.002   1.456  0.00  0.00    -0.491 OA
ATOM     30  C   UNL     1      -0.119   3.468   1.830  0.00  0.00    +0.277 C 
ENDBRANCH  25  29
ENDBRANCH  12  21
BRANCH   1  31
ATOM     31  S   UNL     1       7.687  -0.112   3.872  0.00  0.00    -0.088 S 
BRANCH  31  32
ATOM     32  C   UNL     1       8.655   1.325   3.348  0.00  0.00    +0.080 C 
BRANCH  32  34
ATOM     33  C   UNL     1      10.627   2.758   3.893  0.00  0.00    +0.008 C 
ATOM     34  C   UNL     1       9.731   1.624   4.394  0.00  0.00    -0.007 C 
ATOM     35  C   UNL     1       9.065   2.041   5.707  0.00  0.00    +0.008 C 
ENDBRANCH  32  34
ENDBRANCH  31  32
ENDBRANCH   1  31
TORSDOF 6
