REMARK  Name = ZINC03408405
REMARK  11 active torsions:
REMARK  status: ('A' for Active; 'I' for Inactive)
REMARK    1  A    between atoms: C_1  and  C_2
REMARK    2  A    between atoms: C_2  and  C_3
REMARK    3  A    between atoms: C_11  and  S_12
REMARK    4  A    between atoms: S_12  and  C_13
REMARK    5  A    between atoms: C_13  and  C_14
REMARK    6  A    between atoms: N_16  and  C_17
REMARK    7  A    between atoms: N_16  and  C_19
REMARK    8  A    between atoms: C_17  and  C_18
REMARK    9  A    between atoms: C_20  and  N_35
REMARK   10  A    between atoms: N_21  and  C_28
REMARK   11  A    between atoms: C_28  and  C_29
REMARK                            x       y       z     vdW  Elec       q    Type
REMARK                         _______ _______ _______ _____ _____    ______ ____
ROOT
ATOM      1  C   UNL     1      -3.423  -2.454   9.820  0.00  0.00    +0.140 A 
ATOM      2  C   UNL     1      -4.229  -1.339   9.713  0.00  0.00    +0.128 A 
ATOM      3  N   UNL     1      -5.525  -1.400  10.170  0.00  0.00    -0.276 N 
ATOM      4  C   UNL     1      -6.001  -2.534  10.717  0.00  0.00    +0.331 A 
ATOM      5  O   UNL     1      -7.149  -2.568  11.115  0.00  0.00    -0.246 OA
ATOM      6  N   UNL     1      -5.230  -3.630  10.829  0.00  0.00    -0.273 N 
ATOM      7  H   UNL     1      -5.597  -4.435  11.227  0.00  0.00    +0.173 HD
ATOM      8  C   UNL     1      -3.956  -3.624  10.392  0.00  0.00    +0.277 A 
ATOM      9  O   UNL     1      -3.267  -4.625  10.495  0.00  0.00    -0.266 OA
ENDROOT
BRANCH   1  12
ATOM     10  C   UNL     1      -1.834  -2.247   8.046  0.00  0.00    +0.230 C 
ATOM     11  O   UNL     1      -2.748  -2.199   7.251  0.00  0.00    -0.274 OA
ATOM     12  N   UNL     1      -2.090  -2.423   9.360  0.00  0.00    -0.264 N 
BRANCH  12  13
ATOM     13  C   UNL     1      -0.984  -2.581  10.307  0.00  0.00    +0.110 C 
ATOM     14  C   UNL     1      -0.554  -1.207  10.824  0.00  0.00    +0.025 C 
ENDBRANCH  12  13
BRANCH  10  15
ATOM     15  C   UNL     1      -0.411  -2.110   7.568  0.00  0.00    +0.172 C 
BRANCH  15  16
ATOM     16  S   UNL     1      -0.398  -1.887   5.768  0.00  0.00    -0.096 S 
BRANCH  16  25
ATOM     17  C   UNL     1       1.542  -1.273   1.633  0.00  0.00    -0.008 A 
ATOM     18  C   UNL     1       0.926  -1.451   2.811  0.00  0.00    +0.024 A 
ATOM     19  C   UNL     1       1.724  -1.556   4.020  0.00  0.00    +0.040 A 
ATOM     20  C   UNL     1       3.119  -1.454   3.822  0.00  0.00    +0.113 A 
ATOM     21  S   UNL     1       3.271  -1.238   2.068  0.00  0.00    -0.074 S 
ATOM     22  N   UNL     1       3.964  -1.531   4.830  0.00  0.00    -0.228 NA
ATOM     23  C   UNL     1       3.522  -1.707   6.061  0.00  0.00    +0.223 A 
ATOM     24  N   UNL     1       2.231  -1.810   6.321  0.00  0.00    -0.229 NA
ATOM     25  C   UNL     1       1.313  -1.744   5.369  0.00  0.00    +0.109 A 
BRANCH  17  27
ATOM     26  C   UNL     1       0.639   0.336  -0.024  0.00  0.00    +0.009 C 
ATOM     27  C   UNL     1       0.921  -1.139   0.267  0.00  0.00    +0.039 C 
ENDBRANCH  17  27
ENDBRANCH  16  25
ENDBRANCH  15  16
ENDBRANCH  10  15
ENDBRANCH   1  12
BRANCH   2  28
ATOM     28  N   UNL     1      -3.743  -0.181   9.155  0.00  0.00    -0.343 N 
ATOM     29  H   UNL     1      -2.838  -0.153   8.806  0.00  0.00    +0.144 HD
ATOM     30  H   UNL     1      -4.304   0.609   9.111  0.00  0.00    +0.144 HD
ENDBRANCH   2  28
BRANCH   3  31
ATOM     31  C   UNL     1      -6.391  -0.224  10.063  0.00  0.00    +0.163 C 
BRANCH  31  32
ATOM     32  C   UNL     1      -7.121  -0.256   8.745  0.00  0.00    -0.028 A 
ATOM     33  C   UNL     1      -6.559   0.336   7.629  0.00  0.00    +0.005 A 
ATOM     34  C   UNL     1      -7.228   0.307   6.420  0.00  0.00    +0.000 A 
ATOM     35  C   UNL     1      -8.458  -0.315   6.326  0.00  0.00    +0.000 A 
ATOM     36  C   UNL     1      -9.020  -0.908   7.441  0.00  0.00    +0.000 A 
ATOM     37  C   UNL     1      -8.349  -0.883   8.649  0.00  0.00    +0.005 A 
ENDBRANCH  31  32
ENDBRANCH   3  31
TORSDOF 9
