REMARK  Name = ZINC36597707
REMARK  14 active torsions:
REMARK  status: ('A' for Active; 'I' for Inactive)
REMARK    1  A    between atoms: C_1  and  C_2
REMARK    2  A    between atoms: C_5  and  C_7
REMARK    3  A    between atoms: C_7  and  N_8
REMARK    4  A    between atoms: N_8  and  C_9
REMARK    5  A    between atoms: C_9  and  C_11
REMARK    6  A    between atoms: C_9  and  C_18
REMARK    7  A    between atoms: C_16  and  O_17
REMARK    8  A    between atoms: N_20  and  C_21
REMARK    9  A    between atoms: C_21  and  C_22
REMARK   10  A    between atoms: C_21  and  C_23
REMARK   11  A    between atoms: C_21  and  C_24
REMARK   12  A    between atoms: C_25  and  C_27
REMARK   13  A    between atoms: C_31  and  O_34
REMARK   14  A    between atoms: C_32  and  O_33
REMARK                            x       y       z     vdW  Elec       q    Type
REMARK                         _______ _______ _______ _____ _____    ______ ____
ROOT
ATOM      1  N   UNL     1       1.913  -3.643  -2.180  0.00  0.00    -0.274 N 
ATOM      2  C   UNL     1       1.831  -4.677  -3.041  0.00  0.00    +0.252 C 
ATOM      3  O   UNL     1       2.712  -4.857  -3.859  0.00  0.00    -0.270 OA
ENDROOT
BRANCH   2   4
ATOM      4  C   UNL     1       0.673  -5.589  -2.990  0.00  0.00    +0.082 A 
ATOM      5  C   UNL     1      -0.208  -5.547  -1.905  0.00  0.00    +0.017 A 
ATOM      6  C   UNL     1      -1.288  -6.400  -1.861  0.00  0.00    +0.005 A 
ATOM      7  C   UNL     1      -1.509  -7.303  -2.888  0.00  0.00    +0.049 A 
ATOM      8  C   UNL     1      -0.645  -7.358  -3.969  0.00  0.00    +0.159 A 
ATOM      9  C   UNL     1       0.448  -6.498  -4.030  0.00  0.00    +0.171 A 
BRANCH   9  10
ATOM     10  O   UNL     1       1.293  -6.545  -5.091  0.00  0.00    -0.503 OA
ATOM     11  H   UNL     1       2.031  -7.160  -4.979  0.00  0.00    +0.292 HD
ENDBRANCH   9  10
BRANCH   8  12
ATOM     12  O   UNL     1      -0.868  -8.248  -4.973  0.00  0.00    -0.503 OA
ATOM     13  H   UNL     1      -1.423  -7.905  -5.686  0.00  0.00    +0.292 HD
ENDBRANCH   8  12
ENDBRANCH   2   4
BRANCH   1  14
ATOM     14  C   UNL     1       0.700  -3.119  -1.547  0.00  0.00    +0.183 C 
BRANCH  14  19
ATOM     15  C   UNL     1       1.102  -5.762   2.730  0.00  0.00    +0.086 C 
ATOM     16  C   UNL     1       0.884  -4.612   1.780  0.00  0.00    +0.102 A 
ATOM     17  C   UNL     1       0.580  -3.349   2.129  0.00  0.00    +0.045 A 
ATOM     18  C   UNL     1       0.468  -2.609   0.930  0.00  0.00    +0.046 A 
ATOM     19  C   UNL     1       0.710  -3.463  -0.080  0.00  0.00    +0.122 A 
ATOM     20  O   UNL     1       0.967  -4.674   0.441  0.00  0.00    -0.463 OA
ENDBRANCH  14  19
ENDBRANCH   1  14
BRANCH   1  21
ATOM     21  C   UNL     1       3.215  -3.042  -1.878  0.00  0.00    +0.196 C 
BRANCH  21  22
ATOM     22  C   UNL     1       3.534  -3.244  -0.419  0.00  0.00    +0.023 A 
ATOM     23  C   UNL     1       3.519  -2.168   0.448  0.00  0.00    +0.009 A 
ATOM     24  C   UNL     1       3.813  -2.353   1.786  0.00  0.00    +0.001 A 
ATOM     25  C   UNL     1       4.121  -3.614   2.261  0.00  0.00    +0.004 A 
ATOM     26  C   UNL     1       4.136  -4.693   1.399  0.00  0.00    +0.046 A 
ATOM     27  C   UNL     1       3.837  -4.512   0.056  0.00  0.00    +0.122 A 
BRANCH  27  28
ATOM     28  O   UNL     1       3.846  -5.573  -0.792  0.00  0.00    -0.506 OA
ATOM     29  H   UNL     1       4.720  -5.787  -1.146  0.00  0.00    +0.292 HD
ENDBRANCH  27  28
ENDBRANCH  21  22
BRANCH  21  30
ATOM     30  C   UNL     1       3.171  -1.567  -2.183  0.00  0.00    +0.239 C 
ATOM     31  O   UNL     1       2.117  -0.969  -2.134  0.00  0.00    -0.273 OA
ATOM     32  N   UNL     1       4.302  -0.913  -2.510  0.00  0.00    -0.309 N 
ATOM     33  H   UNL     1       5.142  -1.395  -2.567  0.00  0.00    +0.149 HD
BRANCH  32  34
ATOM     34  C   UNL     1       4.264   0.527  -2.779  0.00  0.00    +0.026 C 
ATOM     35  C   UNL     1       3.756   1.264  -1.538  0.00  0.00    +0.031 C 
ATOM     36  C   UNL     1       5.672   1.019  -3.124  0.00  0.00    +0.031 C 
ATOM     37  C   UNL     1       3.325   0.801  -3.955  0.00  0.00    +0.031 C 
ENDBRANCH  32  34
ENDBRANCH  21  30
ENDBRANCH   1  21
TORSDOF 10
