REMARK  Name = ZINC36609559
REMARK  13 active torsions:
REMARK  status: ('A' for Active; 'I' for Inactive)
REMARK    1  A    between atoms: C_1  and  C_2
REMARK    2  A    between atoms: C_2  and  C_3
REMARK    3  A    between atoms: C_3  and  C_4
REMARK    4  A    between atoms: C_4  and  N_5
REMARK    5  A    between atoms: C_6  and  C_8
REMARK    6  A    between atoms: C_8  and  C_10
REMARK    7  A    between atoms: C_8  and  N_19
REMARK    8  A    between atoms: C_11  and  O_18
REMARK    9  A    between atoms: C_13  and  O_17
REMARK   10  A    between atoms: C_15  and  O_16
REMARK   11  A    between atoms: N_19  and  C_20
REMARK   12  A    between atoms: C_26  and  C_28
REMARK   13  A    between atoms: C_29  and  C_30
REMARK                            x       y       z     vdW  Elec       q    Type
REMARK                         _______ _______ _______ _____ _____    ______ ____
ROOT
ATOM      1  C   UNL     1      -4.432  -4.588   0.310  0.00  0.00    +0.205 C 
ENDROOT
BRANCH   1   2
ATOM      2  C   UNL     1      -5.104  -4.298   1.628  0.00  0.00    +0.065 A 
ATOM      3  C   UNL     1      -4.917  -5.152   2.704  0.00  0.00    +0.129 A 
ATOM      4  C   UNL     1      -5.535  -4.885   3.917  0.00  0.00    +0.091 A 
ATOM      5  C   UNL     1      -6.339  -3.764   4.053  0.00  0.00    +0.124 A 
ATOM      6  C   UNL     1      -6.525  -2.909   2.977  0.00  0.00    +0.091 A 
ATOM      7  C   UNL     1      -5.904  -3.174   1.766  0.00  0.00    +0.129 A 
BRANCH   7   8
ATOM      8  O   UNL     1      -6.083  -2.334   0.712  0.00  0.00    -0.506 OA
ATOM      9  H   UNL     1      -6.838  -2.561   0.152  0.00  0.00    +0.292 HD
ENDBRANCH   7   8
BRANCH   5  10
ATOM     10  O   UNL     1      -6.945  -3.502   5.241  0.00  0.00    -0.507 OA
ATOM     11  H   UNL     1      -6.419  -2.954   5.839  0.00  0.00    +0.292 HD
ENDBRANCH   5  10
BRANCH   3  12
ATOM     12  O   UNL     1      -4.129  -6.251   2.571  0.00  0.00    -0.506 OA
ATOM     13  H   UNL     1      -3.216  -6.118   2.861  0.00  0.00    +0.292 HD
ENDBRANCH   3  12
ENDBRANCH   1   2
BRANCH   1  15
ATOM     14  N   UNL     1      -2.320  -3.466   0.937  0.00  0.00    -0.313 N 
ATOM     15  C   UNL     1      -2.937  -4.579   0.496  0.00  0.00    +0.239 C 
ATOM     16  O   UNL     1      -2.289  -5.574   0.248  0.00  0.00    -0.273 OA
ATOM     17  H   UNL     1      -2.838  -2.670   1.136  0.00  0.00    +0.149 HD
BRANCH  14  18
ATOM     18  C   UNL     1      -0.866  -3.457   1.118  0.00  0.00    +0.104 C 
BRANCH  18  19
ATOM     19  C   UNL     1      -0.423  -2.082   1.624  0.00  0.00    +0.018 C 
BRANCH  19  21
ATOM     20  C   UNL     1       1.538  -0.698   2.318  0.00  0.00    +0.004 C 
ATOM     21  C   UNL     1       1.095  -2.073   1.812  0.00  0.00    -0.002 C 
ENDBRANCH  19  21
ENDBRANCH  18  19
ENDBRANCH  14  18
ENDBRANCH   1  15
BRANCH   1  22
ATOM     22  N   UNL     1      -4.856  -5.904  -0.174  0.00  0.00    -0.244 N 
ATOM     23  C   UNL     1      -4.419  -6.357  -1.366  0.00  0.00    +0.297 C 
ATOM     24  O   UNL     1      -3.608  -5.709  -2.002  0.00  0.00    -0.260 OA
BRANCH  22  25
ATOM     25  C   UNL     1      -5.715  -6.691   0.600  0.00  0.00    +0.038 A 
ATOM     26  C   UNL     1      -7.007  -6.257   0.866  0.00  0.00    +0.023 A 
ATOM     27  C   UNL     1      -7.853  -7.037   1.630  0.00  0.00    +0.002 A 
ATOM     28  C   UNL     1      -7.414  -8.248   2.131  0.00  0.00    +0.000 A 
ATOM     29  C   UNL     1      -6.128  -8.684   1.869  0.00  0.00    +0.002 A 
ATOM     30  C   UNL     1      -5.279  -7.912   1.100  0.00  0.00    +0.023 A 
ENDBRANCH  22  25
BRANCH  23  31
ATOM     31  C   UNL     1      -4.907  -7.599  -1.883  0.00  0.00    -0.002 C 
ATOM     32  C   UNL     1      -5.308  -8.618  -2.308  0.00  0.00    -0.057 C 
BRANCH  32  33
ATOM     33  C   UNL     1      -5.797  -9.861  -2.825  0.00  0.00    +0.025 A 
ATOM     34  C   UNL     1      -6.732 -10.605  -2.100  0.00  0.00    +0.017 A 
ATOM     35  C   UNL     1      -7.198 -11.800  -2.605  0.00  0.00    +0.001 A 
ATOM     36  C   UNL     1      -6.742 -12.264  -3.826  0.00  0.00    +0.000 A 
ATOM     37  C   UNL     1      -5.816 -11.533  -4.551  0.00  0.00    +0.001 A 
ATOM     38  C   UNL     1      -5.345 -10.333  -4.061  0.00  0.00    +0.017 A 
ENDBRANCH  32  33
ENDBRANCH  23  31
ENDBRANCH   1  22
TORSDOF 12
