REMARK  Name = ZINC39609789
REMARK  8 active torsions:
REMARK  status: ('A' for Active; 'I' for Inactive)
REMARK    1  A    between atoms: C_1  and  C_2
REMARK    2  A    between atoms: C_2  and  C_3
REMARK    3  A    between atoms: C_3  and  C_5
REMARK    4  A    between atoms: C_3  and  C_6
REMARK    5  A    between atoms: C_6  and  C_7
REMARK    6  A    between atoms: C_11  and  C_20
REMARK    7  A    between atoms: N_22  and  C_23
REMARK    8  A    between atoms: C_23  and  C_24
REMARK                            x       y       z     vdW  Elec       q    Type
REMARK                         _______ _______ _______ _____ _____    ______ ____
ROOT
ATOM      1  C   UNL     1       1.600  -2.525  -2.075  0.00  0.00    +0.216 C 
ATOM      2  O   UNL     1       2.018  -1.650  -2.803  0.00  0.00    -0.276 OA
ATOM      3  N   UNL     1       1.869  -3.816  -2.349  0.00  0.00    -0.300 N 
ATOM      4  C   UNL     1       1.444  -5.015  -1.588  0.00  0.00    +0.121 C 
ATOM      5  C   UNL     1       1.094  -6.061  -2.670  0.00  0.00    +0.100 C 
ATOM      6  C   UNL     1       1.895  -5.627  -3.909  0.00  0.00    -0.004 C 
ATOM      7  C   UNL     1       2.652  -4.360  -3.485  0.00  0.00    +0.115 C 
ATOM      8  C   UNL     1       0.950  -5.307  -5.063  0.00  0.00    -0.010 C 
ATOM      9  C   UNL     1       1.771  -4.933  -6.300  0.00  0.00    -0.082 C 
ATOM     10  N   UNL     1       2.655  -6.049  -6.659  0.00  0.00    +0.379 N 
ATOM     11  C   UNL     1       3.621  -6.289  -5.581  0.00  0.00    -0.082 C 
ATOM     12  C   UNL     1       2.878  -6.721  -4.313  0.00  0.00    -0.010 C 
ATOM     13  H   UNL     1       2.102  -6.881  -6.805  0.00  0.00    -0.086 HD
ATOM     14  H   UNL     1       3.150  -5.825  -7.509  0.00  0.00    -0.086 HD
ENDROOT
BRANCH   5  15
ATOM     15  C   UNL     1      -0.384  -6.039  -2.963  0.00  0.00    +0.218 C 
ATOM     16  O   UNL     1      -1.010  -5.008  -2.842  0.00  0.00    -0.275 OA
ATOM     17  N   UNL     1      -1.009  -7.165  -3.359  0.00  0.00    -0.311 N 
ATOM     18  H   UNL     1      -0.508  -7.990  -3.456  0.00  0.00    +0.149 HD
BRANCH  17  19
ATOM     19  C   UNL     1      -2.446  -7.143  -3.644  0.00  0.00    +0.139 C 
BRANCH  19  20
ATOM     20  C   UNL     1      -2.895  -8.519  -4.065  0.00  0.00    -0.029 A 
ATOM     21  C   UNL     1      -2.865  -8.877  -5.400  0.00  0.00    +0.007 A 
ATOM     22  C   UNL     1      -3.277 -10.138  -5.787  0.00  0.00    +0.022 A 
ATOM     23  C   UNL     1      -3.720 -11.043  -4.839  0.00  0.00    +0.059 A 
ATOM     24  C   UNL     1      -3.750 -10.684  -3.502  0.00  0.00    +0.060 A 
ATOM     25  C   UNL     1      -3.332  -9.423  -3.115  0.00  0.00    +0.026 A 
ATOM     26 CL   UNL     1      -4.305 -11.818  -2.311  0.00  0.00    -0.082 Cl
ATOM     27 CL   UNL     1      -4.239 -12.627  -5.325  0.00  0.00    -0.082 Cl
ENDBRANCH  19  20
ENDBRANCH  17  19
ENDBRANCH   5  15
BRANCH   1  28
ATOM     28  C   UNL     1       0.779  -2.167  -0.862  0.00  0.00    +0.099 C 
BRANCH  28  29
ATOM     29  C   UNL     1       0.622  -0.648  -0.782  0.00  0.00    -0.006 C 
ATOM     30  C   UNL     1      -0.192  -0.155  -1.981  0.00  0.00    +0.008 C 
BRANCH  29  32
ATOM     31  C   UNL     1      -0.150   1.246   0.653  0.00  0.00    +0.004 C 
ATOM     32  C   UNL     1      -0.103  -0.277   0.513  0.00  0.00    +0.000 C 
ENDBRANCH  29  32
ENDBRANCH  28  29
ENDBRANCH   1  28
TORSDOF 6
