REMARK  Name = ZINC07487377
REMARK  8 active torsions:
REMARK  status: ('A' for Active; 'I' for Inactive)
REMARK    1  A    between atoms: C_1  and  C_2
REMARK    2  A    between atoms: C_2  and  N_50
REMARK    3  A    between atoms: C_3  and  C_4
REMARK    4  A    between atoms: C_3  and  N_50
REMARK    5  A    between atoms: C_16  and  C_17
REMARK    6  A    between atoms: C_16  and  N_50
REMARK    7  A    between atoms: N_19  and  C_20
REMARK    8  A    between atoms: C_21  and  C_28
REMARK                            x       y       z     vdW  Elec       q    Type
REMARK                         _______ _______ _______ _____ _____    ______ ____
ROOT
ATOM      1  N   UNL     1       2.147   3.699   0.064  0.00  0.00    +0.390 N 
ATOM      2  H   UNL     1       2.571   3.120  -0.670  0.00  0.00    -0.081 HD
ENDROOT
BRANCH   1   4
ATOM      3  C   UNL     1       4.453   3.825   0.869  0.00  0.00    -0.017 C 
ATOM      4  C   UNL     1       2.991   3.630   1.276  0.00  0.00    -0.081 C 
ENDBRANCH   1   4
BRANCH   1   5
ATOM      5  C   UNL     1       2.064   5.095  -0.414  0.00  0.00    -0.003 C 
BRANCH   5   6
ATOM      6  C   UNL     1       1.616   5.086  -1.853  0.00  0.00    +0.094 A 
ATOM      7  N   UNL     1       1.383   6.278  -2.463  0.00  0.00    -0.312 N 
ATOM      8  H   UNL     1       1.510   7.128  -1.953  0.00  0.00    +0.170 HD
ATOM      9  C   UNL     1       0.980   6.324  -3.754  0.00  0.00    +0.259 A 
ATOM     10  O   UNL     1       0.767   7.384  -4.313  0.00  0.00    -0.267 OA
ATOM     11  C   UNL     1       0.809   5.043  -4.456  0.00  0.00    +0.065 A 
ATOM     12  C   UNL     1       0.398   4.980  -5.786  0.00  0.00    +0.015 A 
ATOM     13  C   UNL     1       0.255   3.752  -6.395  0.00  0.00    +0.001 A 
ATOM     14  C   UNL     1       0.516   2.582  -5.695  0.00  0.00    +0.002 A 
ATOM     15  C   UNL     1       0.923   2.622  -4.380  0.00  0.00    +0.028 A 
ATOM     16  C   UNL     1       1.075   3.854  -3.741  0.00  0.00    +0.078 A 
ATOM     17  N   UNL     1       1.479   3.940  -2.449  0.00  0.00    -0.236 NA
ENDBRANCH   5   6
ENDBRANCH   1   5
BRANCH   1  18
ATOM     18  C   UNL     1       0.794   3.184   0.360  0.00  0.00    +0.019 C 
BRANCH  18  19
ATOM     19  C   UNL     1       0.885   1.705   0.631  0.00  0.00    +0.201 C 
ATOM     20  O   UNL     1       1.962   1.147   0.598  0.00  0.00    -0.278 OA
ATOM     21  N   UNL     1      -0.230   1.001   0.911  0.00  0.00    -0.281 N 
ATOM     22  H   UNL     1      -1.091   1.446   0.934  0.00  0.00    +0.155 HD
BRANCH  21  23
ATOM     23  C   UNL     1      -0.146  -0.362   1.161  0.00  0.00    +0.090 A 
ATOM     24  C   UNL     1      -1.167  -1.244   1.468  0.00  0.00    +0.084 A 
ATOM     25  C   UNL     1      -0.809  -2.645   1.684  0.00  0.00    -0.018 A 
ATOM     26  C   UNL     1       0.502  -2.925   1.567  0.00  0.00    -0.004 A 
ATOM     27  S   UNL     1       1.262  -1.369   1.171  0.00  0.00    -0.077 S 
ATOM     28  C   UNL     1       0.791  -4.382   1.805  0.00  0.00    +0.043 C 
ATOM     29  C   UNL     1      -0.581  -5.078   1.667  0.00  0.00    +0.010 C 
ATOM     30  C   UNL     1      -1.551  -3.937   2.029  0.00  0.00    +0.037 C 
BRANCH  24  31
ATOM     31  C   UNL     1      -2.525  -0.801   1.567  0.00  0.00    +0.102 C 
ATOM     32  N   UNL     1      -3.602  -0.450   1.645  0.00  0.00    -0.191 NA
ENDBRANCH  24  31
ENDBRANCH  21  23
ENDBRANCH  18  19
ENDBRANCH   1  18
TORSDOF 7
