REMARK  Name = ZINC01652951
REMARK  1 active torsions:
REMARK  status: ('A' for Active; 'I' for Inactive)
REMARK    1  A    between atoms: C_3  and  C_9
REMARK                            x       y       z     vdW  Elec       q    Type
REMARK                         _______ _______ _______ _____ _____    ______ ____
ROOT
ATOM      1  C   UNL     1      -0.013   1.076   0.008  0.00  0.00    +0.016 C 
ATOM      2  C   UNL     1      -1.177   1.727   0.017  0.00  0.00    +0.002 C 
ATOM      3  C   UNL     1      -2.548   1.089   0.020  0.00  0.00    +0.135 C 
ATOM      4  C   UNL     1      -3.571   2.238   0.052  0.00  0.00    +0.027 C 
ATOM      5  C   UNL     1      -2.755   3.467   0.505  0.00  0.00    +0.080 C 
ATOM      6  C   UNL     1      -1.345   3.184   0.032  0.00  0.00    +0.160 C 
ATOM      7  O   UNL     1      -0.511   4.009  -0.278  0.00  0.00    -0.292 OA
ENDROOT
BRANCH   3   8
ATOM      8  C   UNL     1      -2.736   0.265  -1.228  0.00  0.00    +0.363 C 
ATOM      9  O   UNL     1      -3.614   0.545  -2.009  0.00  0.00    -0.246 OA
ATOM     10  O   UNL     1      -1.927  -0.778  -1.472  0.00  0.00    -0.246 OA
ENDBRANCH   3   8
TORSDOF 1
