REMARK  Name = ZINC13487340
REMARK  9 active torsions:
REMARK  status: ('A' for Active; 'I' for Inactive)
REMARK    1  A    between atoms: C_1  and  C_2
REMARK    2  A    between atoms: C_2  and  C_3
REMARK    3  A    between atoms: C_3  and  N_4
REMARK    4  A    between atoms: N_4  and  C_5
REMARK    5  A    between atoms: N_4  and  C_10
REMARK    6  A    between atoms: C_15  and  C_16
REMARK    7  A    between atoms: C_15  and  N_81
REMARK    8  A    between atoms: C_21  and  C_23
REMARK    9  A    between atoms: C_29  and  C_31
REMARK                            x       y       z     vdW  Elec       q    Type
REMARK                         _______ _______ _______ _____ _____    ______ ____
ROOT
ATOM      1  C   UNL     1      -0.591   0.924   7.327  0.00  0.00    -0.073 C 
ENDROOT
BRANCH   1   7
ATOM      2  C   UNL     1       2.618   1.037  10.151  0.00  0.00    +0.071 C 
ATOM      3  C   UNL     1       2.556   2.086   9.037  0.00  0.00    +0.004 C 
ATOM      4  C   UNL     1       1.127   2.166   8.497  0.00  0.00    -0.077 C 
ATOM      5  C   UNL     1       0.729  -0.162   9.041  0.00  0.00    -0.077 C 
ATOM      6  C   UNL     1       2.147  -0.311   9.598  0.00  0.00    +0.004 C 
ATOM      7  N   UNL     1       0.743   0.844   7.958  0.00  0.00    +0.380 N 
ATOM      8  H   UNL     1       1.430   0.561   7.249  0.00  0.00    -0.082 HD
BRANCH   2   9
ATOM      9  N   UNL     1       3.996   0.914  10.632  0.00  0.00    -0.314 N 
BRANCH   9  10
ATOM     10  C   UNL     1       4.273   1.046  11.988  0.00  0.00    +0.099 A 
ATOM     11  C   UNL     1       3.229   1.053  12.908  0.00  0.00    +0.042 A 
ATOM     12  C   UNL     1       3.519   1.185  14.253  0.00  0.00    +0.005 A 
ATOM     13  C   UNL     1       4.849   1.306  14.636  0.00  0.00    +0.018 A 
ATOM     14  C   UNL     1       5.834   1.292  13.670  0.00  0.00    +0.084 A 
ATOM     15  N   UNL     1       5.587   1.158  12.339  0.00  0.00    -0.350 N 
ATOM     16  H   UNL     1       6.341   1.142  11.643  0.00  0.00    +0.166 HD
ENDBRANCH   9  10
BRANCH   9  17
ATOM     17  C   UNL     1       5.082   0.652   9.684  0.00  0.00    +0.106 C 
BRANCH  17  19
ATOM     18  C   UNL     1       6.783   1.706   8.188  0.00  0.00    +0.005 C 
ATOM     19  C   UNL     1       5.649   1.980   9.178  0.00  0.00    +0.016 C 
ENDBRANCH  17  19
ENDBRANCH   9  17
ENDBRANCH   2   9
ENDBRANCH   1   7
BRANCH   1  20
ATOM     20  C   UNL     1      -0.477   1.738   6.037  0.00  0.00    -0.001 C 
ATOM     21  C   UNL     1       0.461   1.038   5.031  0.00  0.00    +0.110 C 
ATOM     22  N   UNL     1      -0.130   1.204   3.695  0.00  0.00    -0.300 N 
ATOM     23  C   UNL     1      -1.367   1.997   3.820  0.00  0.00    +0.116 C 
ATOM     24  C   UNL     1      -1.832   1.773   5.283  0.00  0.00    +0.039 C 
ATOM     25  C   UNL     1       0.378   0.718   2.545  0.00  0.00    +0.219 C 
ATOM     26  O   UNL     1       1.361   0.008   2.569  0.00  0.00    -0.275 OA
BRANCH  24  27
ATOM     27  C   UNL     1      -2.685   2.920   5.758  0.00  0.00    -0.043 A 
ATOM     28  C   UNL     1      -2.225   4.219   5.640  0.00  0.00    +0.004 A 
ATOM     29  C   UNL     1      -3.010   5.272   6.071  0.00  0.00    +0.000 A 
ATOM     30  C   UNL     1      -4.250   5.026   6.630  0.00  0.00    +0.000 A 
ATOM     31  C   UNL     1      -4.708   3.728   6.753  0.00  0.00    +0.000 A 
ATOM     32  C   UNL     1      -3.926   2.675   6.317  0.00  0.00    +0.004 A 
ENDBRANCH  24  27
BRANCH  25  33
ATOM     33  C   UNL     1      -0.276   1.056   1.230  0.00  0.00    +0.075 C 
ATOM     34  C   UNL     1       0.796   1.186   0.146  0.00  0.00    +0.013 C 
ATOM     35  C   UNL     1       0.132   1.529  -1.189  0.00  0.00    +0.001 C 
ATOM     36  C   UNL     1      -0.848   0.418  -1.572  0.00  0.00    +0.000 C 
ATOM     37  C   UNL     1      -1.920   0.288  -0.488  0.00  0.00    +0.001 C 
ATOM     38  C   UNL     1      -1.256  -0.055   0.848  0.00  0.00    +0.013 C 
ENDBRANCH  25  33
ENDBRANCH   1  20
TORSDOF 8
