REMARK  Name = ZINC05206019
REMARK  5 active torsions:
REMARK  status: ('A' for Active; 'I' for Inactive)
REMARK    1  A    between atoms: N_9  and  N_18
REMARK    2  A    between atoms: C_10  and  C_12
REMARK    3  A    between atoms: C_19  and  C_21
REMARK    4  A    between atoms: C_22  and  C_23
REMARK    5  A    between atoms: C_27  and  N_29
REMARK                            x       y       z     vdW  Elec       q    Type
REMARK                         _______ _______ _______ _____ _____    ______ ____
ROOT
ATOM      1  C   UNL     1      -1.946  13.790   2.179  0.00  0.00    +0.001 A 
ATOM      2  C   UNL     1      -2.288  14.398   0.979  0.00  0.00    +0.002 A 
ATOM      3  C   UNL     1      -2.585  13.645  -0.134  0.00  0.00    +0.028 A 
ATOM      4  C   UNL     1      -2.542  12.251  -0.057  0.00  0.00    +0.078 A 
ATOM      5  C   UNL     1      -2.193  11.636   1.165  0.00  0.00    +0.066 A 
ATOM      6  C   UNL     1      -1.896  12.417   2.280  0.00  0.00    +0.015 A 
ATOM      7  C   UNL     1      -2.162  10.166   1.215  0.00  0.00    +0.279 A 
ATOM      8  O   UNL     1      -1.874   9.574   2.239  0.00  0.00    -0.265 OA
ATOM      9  N   UNL     1      -2.462   9.498   0.077  0.00  0.00    -0.209 N 
ATOM     10  C   UNL     1      -2.786  10.174  -1.057  0.00  0.00    +0.134 A 
ATOM     11  N   UNL     1      -2.827  11.470  -1.129  0.00  0.00    -0.232 NA
ENDROOT
BRANCH  10  12
ATOM     12  C   UNL     1      -3.117   9.378  -2.293  0.00  0.00    +0.057 C 
ATOM     13  C   UNL     1      -1.826   9.023  -3.032  0.00  0.00    +0.011 C 
ATOM     14  C   UNL     1      -2.162   8.215  -4.287  0.00  0.00    +0.001 C 
ATOM     15  C   UNL     1      -3.061   9.047  -5.203  0.00  0.00    +0.000 C 
ATOM     16  C   UNL     1      -4.353   9.402  -4.464  0.00  0.00    +0.001 C 
ATOM     17  C   UNL     1      -4.017  10.210  -3.209  0.00  0.00    +0.011 C 
ENDBRANCH  10  12
BRANCH   9  18
ATOM     18  N   UNL     1      -2.443   8.098   0.069  0.00  0.00    -0.215 N 
ATOM     19  C   UNL     1      -1.266   7.440   0.054  0.00  0.00    +0.255 C 
ATOM     20  O   UNL     1      -0.221   8.062   0.048  0.00  0.00    -0.269 OA
ATOM     21  H   UNL     1      -3.276   7.601   0.073  0.00  0.00    +0.176 HD
BRANCH  19  22
ATOM     22  C   UNL     1      -1.247   5.976   0.046  0.00  0.00    +0.069 C 
ATOM     23  C   UNL     1      -0.070   5.317   0.031  0.00  0.00    +0.013 C 
BRANCH  23  24
ATOM     24  C   UNL     1      -0.050   3.846   0.023  0.00  0.00    -0.023 A 
ATOM     25  C   UNL     1      -1.250   3.126   0.030  0.00  0.00    +0.008 A 
ATOM     26  C   UNL     1      -1.223   1.748   0.017  0.00  0.00    +0.003 A 
ATOM     27  C   UNL     1      -0.013   1.076   0.008  0.00  0.00    +0.033 A 
ATOM     28  C   UNL     1       1.178   1.780   0.000  0.00  0.00    +0.127 A 
ATOM     29  C   UNL     1       1.168   3.159   0.008  0.00  0.00    +0.040 A 
BRANCH  28  30
ATOM     30  N   UNL     1       2.467   1.052  -0.015  0.00  0.00    +0.056 N 
ATOM     31  O   UNL     1       2.478  -0.166  -0.022  0.00  0.00    -0.126 OA
ATOM     32  O   UNL     1       3.516   1.671  -0.022  0.00  0.00    -0.126 OA
ENDBRANCH  28  30
ENDBRANCH  23  24
ENDBRANCH  19  22
ENDBRANCH   9  18
TORSDOF 5
