REMARK  Name = ZINC06193252
REMARK  14 active torsions:
REMARK  status: ('A' for Active; 'I' for Inactive)
REMARK    1  A    between atoms: C_1  and  C_2
REMARK    2  A    between atoms: C_2  and  N_3
REMARK    3  A    between atoms: N_3  and  C_4
REMARK    4  A    between atoms: N_3  and  C_6
REMARK    5  A    between atoms: C_4  and  C_5
REMARK    6  A    between atoms: C_6  and  C_7
REMARK    7  A    between atoms: C_7  and  C_8
REMARK    8  A    between atoms: C_8  and  N_9
REMARK    9  A    between atoms: N_9  and  C_10
REMARK   10  A    between atoms: C_10  and  N_12
REMARK   11  A    between atoms: N_12  and  C_13
REMARK   12  A    between atoms: N_12  and  C_19
REMARK   13  A    between atoms: C_13  and  C_14
REMARK   14  A    between atoms: C_19  and  C_20
REMARK                            x       y       z     vdW  Elec       q    Type
REMARK                         _______ _______ _______ _____ _____    ______ ____
ROOT
ATOM      1  N   UNL     1      -3.725  -7.029  -0.555  0.00  0.00    -0.303 N 
ENDROOT
BRANCH   1   2
ATOM      2  C   UNL     1      -2.833  -6.128  -1.013  0.00  0.00    +0.133 C 
ATOM      3  S   UNL     1      -1.209  -6.594  -1.287  0.00  0.00    -0.019 S 
BRANCH   2   4
ATOM      4  N   UNL     1      -3.221  -4.860  -1.255  0.00  0.00    -0.326 N 
ATOM      5  H   UNL     1      -4.141  -4.596  -1.100  0.00  0.00    +0.148 HD
BRANCH   4   6
ATOM      6  C   UNL     1      -2.252  -3.880  -1.753  0.00  0.00    +0.101 C 
BRANCH   6   7
ATOM      7  C   UNL     1      -2.944  -2.529  -1.943  0.00  0.00    +0.000 C 
BRANCH   7   8
ATOM      8  C   UNL     1      -1.932  -1.506  -2.463  0.00  0.00    -0.077 C 
BRANCH   8   9
ATOM      9  N   UNL     1      -2.622  -0.246  -2.767  0.00  0.00    +0.379 N 
ATOM     10  H   UNL     1      -3.380  -0.423  -3.410  0.00  0.00    -0.082 HD
BRANCH   9  12
ATOM     11  C   UNL     1      -3.982   1.576  -1.857  0.00  0.00    -0.017 C 
ATOM     12  C   UNL     1      -3.158   0.331  -1.526  0.00  0.00    -0.082 C 
ENDBRANCH   9  12
BRANCH   9  13
ATOM     13  C   UNL     1      -1.675   0.697  -3.376  0.00  0.00    -0.082 C 
ATOM     14  C   UNL     1      -1.225   0.162  -4.737  0.00  0.00    -0.017 C 
ENDBRANCH   9  13
ENDBRANCH   8   9
ENDBRANCH   7   8
ENDBRANCH   6   7
ENDBRANCH   4   6
ENDBRANCH   2   4
ENDBRANCH   1   2
BRANCH   1  15
ATOM     15  C   UNL     1      -5.138  -6.664  -0.434  0.00  0.00    +0.149 C 
BRANCH  15  16
ATOM     16  C   UNL     1      -5.853  -6.988  -1.721  0.00  0.00    +0.007 A 
ATOM     17  C   UNL     1      -6.479  -8.133  -2.084  0.00  0.00    +0.013 A 
ATOM     18  C   UNL     1      -7.074  -8.206  -3.330  0.00  0.00    +0.008 A 
ATOM     19  C   UNL     1      -7.013  -7.129  -4.151  0.00  0.00    +0.045 A 
ATOM     20  S   UNL     1      -6.099  -5.959  -3.159  0.00  0.00    -0.100 S 
ENDBRANCH  15  16
ENDBRANCH   1  15
BRANCH   1  21
ATOM     21  C   UNL     1      -3.280  -8.373  -0.178  0.00  0.00    +0.147 C 
BRANCH  21  22
ATOM     22  C   UNL     1      -3.049  -8.427   1.310  0.00  0.00    +0.035 A 
ATOM     23  C   UNL     1      -4.041  -8.854   2.133  0.00  0.00    +0.020 A 
ATOM     24  C   UNL     1      -3.786  -8.896   3.572  0.00  0.00    +0.003 A 
ATOM     25  C   UNL     1      -4.772  -9.326   4.469  0.00  0.00    +0.059 A 
ATOM     26  C   UNL     1      -4.502  -9.356   5.821  0.00  0.00    +0.163 A 
ATOM     27  C   UNL     1      -3.249  -8.959   6.298  0.00  0.00    +0.164 A 
ATOM     28  C   UNL     1      -2.270  -8.530   5.419  0.00  0.00    +0.075 A 
ATOM     29  C   UNL     1      -2.525  -8.493   4.054  0.00  0.00    +0.053 A 
ATOM     30  N   UNL     1      -1.560  -8.068   3.164  0.00  0.00    -0.322 N 
ATOM     31  H   UNL     1      -0.692  -7.791   3.497  0.00  0.00    +0.169 HD
ATOM     32  C   UNL     1      -1.803  -8.039   1.842  0.00  0.00    +0.254 A 
ATOM     33  O   UNL     1      -0.925  -7.662   1.085  0.00  0.00    -0.268 OA
ATOM     34  O   UNL     1      -2.973  -8.993   7.630  0.00  0.00    -0.485 OA
ATOM     35  C   UNL     1      -4.093  -9.071   8.518  0.00  0.00    +0.270 C 
ATOM     36  C   UNL     1      -5.049 -10.151   7.995  0.00  0.00    +0.270 C 
ATOM     37  O   UNL     1      -5.473  -9.775   6.680  0.00  0.00    -0.485 OA
ENDBRANCH  21  22
ENDBRANCH   1  21
TORSDOF 12
