REMARK  Name = ZINC08919605
REMARK  8 active torsions:
REMARK  status: ('A' for Active; 'I' for Inactive)
REMARK    1  A    between atoms: C_1  and  C_2
REMARK    2  A    between atoms: C_2  and  C_3
REMARK    3  A    between atoms: C_3  and  C_4
REMARK    4  A    between atoms: C_3  and  C_5
REMARK    5  A    between atoms: C_3  and  C_6
REMARK    6  A    between atoms: C_15  and  O_33
REMARK    7  A    between atoms: C_17  and  C_20
REMARK    8  A    between atoms: C_23  and  C_25
REMARK                            x       y       z     vdW  Elec       q    Type
REMARK                         _______ _______ _______ _____ _____    ______ ____
ROOT
ATOM      1  C   UNL     1      -1.429   5.142  -6.937  0.00  0.00    -0.000 C 
ATOM      2  C   UNL     1      -2.875   5.236  -6.443  0.00  0.00    +0.009 C 
ATOM      3  C   UNL     1      -3.008   4.546  -5.085  0.00  0.00    +0.037 C 
ATOM      4  C   UNL     1      -1.951   5.109  -4.142  0.00  0.00    -0.023 A 
ATOM      5  C   UNL     1      -0.874   5.770  -4.624  0.00  0.00    -0.004 A 
ATOM      6  S   UNL     1       0.059   6.233  -3.188  0.00  0.00    -0.078 S 
ATOM      7  C   UNL     1      -0.956   5.563  -1.985  0.00  0.00    +0.080 A 
ATOM      8  C   UNL     1      -2.016   4.986  -2.696  0.00  0.00    +0.068 A 
ATOM      9  C   UNL     1      -3.082   4.320  -1.904  0.00  0.00    +0.220 C 
ATOM     10  N   UNL     1      -2.850   4.101  -0.639  0.00  0.00    -0.220 NA
ATOM     11  C   UNL     1      -1.596   4.403   0.040  0.00  0.00    +0.260 C 
ATOM     12  N   UNL     1      -0.879   5.514  -0.614  0.00  0.00    -0.311 N 
ATOM     13  C   UNL     1      -0.549   6.045  -6.059  0.00  0.00    +0.046 C 
ATOM     14  H   UNL     1      -0.381   6.173  -0.105  0.00  0.00    +0.149 HD
ENDROOT
BRANCH  11  15
ATOM     15  C   UNL     1      -0.720   3.176   0.025  0.00  0.00    +0.148 A 
ATOM     16  C   UNL     1      -1.155   1.901   0.017  0.00  0.00    +0.049 A 
ATOM     17  C   UNL     1      -0.013   1.076   0.008  0.00  0.00    +0.050 A 
ATOM     18  C   UNL     1       1.067   1.902   0.002  0.00  0.00    +0.137 A 
ATOM     19  O   UNL     1       0.623   3.173   0.013  0.00  0.00    -0.456 OA
BRANCH  18  20
ATOM     20  C   UNL     1       2.483   1.478  -0.013  0.00  0.00    +0.037 A 
ATOM     21  C   UNL     1       3.369   2.025  -0.944  0.00  0.00    +0.013 A 
ATOM     22  C   UNL     1       4.689   1.626  -0.953  0.00  0.00    +0.002 A 
ATOM     23  C   UNL     1       5.138   0.685  -0.043  0.00  0.00    +0.021 A 
ATOM     24  C   UNL     1       4.266   0.137   0.882  0.00  0.00    +0.060 A 
ATOM     25  C   UNL     1       2.942   0.533   0.906  0.00  0.00    +0.070 A 
ATOM     26 CL   UNL     1       1.851  -0.149   2.072  0.00  0.00    -0.081 Cl
ATOM     27 CL   UNL     1       4.839  -1.043   2.019  0.00  0.00    -0.082 Cl
ENDBRANCH  18  20
ENDBRANCH  11  15
BRANCH   1  28
ATOM     28  C   UNL     1      -1.349   5.606  -8.393  0.00  0.00    -0.032 C 
ATOM     29  C   UNL     1      -2.226   4.705  -9.264  0.00  0.00    +0.011 C 
ATOM     30  C   UNL     1      -1.841   7.051  -8.495  0.00  0.00    +0.011 C 
BRANCH  28  32
ATOM     31  C   UNL     1       0.181   5.990 -10.330  0.00  0.00    +0.004 C 
ATOM     32  C   UNL     1       0.101   5.526  -8.874  0.00  0.00    +0.003 C 
ENDBRANCH  28  32
ENDBRANCH   1  28
BRANCH   9  33
ATOM     33  O   UNL     1      -4.253   3.953  -2.475  0.00  0.00    -0.492 OA
ATOM     34  H   UNL     1      -4.872   3.527  -1.865  0.00  0.00    +0.294 HD
ENDBRANCH   9  33
TORSDOF 5
