REMARK  Name = ZINC19236913
REMARK  9 active torsions:
REMARK  status: ('A' for Active; 'I' for Inactive)
REMARK    1  A    between atoms: C_1  and  C_2
REMARK    2  A    between atoms: C_7  and  C_8
REMARK    3  A    between atoms: C_8  and  O_32
REMARK    4  A    between atoms: N_11  and  C_14
REMARK    5  A    between atoms: C_14  and  C_15
REMARK    6  A    between atoms: C_15  and  C_17
REMARK    7  A    between atoms: C_15  and  O_31
REMARK    8  A    between atoms: N_26  and  S_27
REMARK    9  A    between atoms: S_27  and  C_30
REMARK                            x       y       z     vdW  Elec       q    Type
REMARK                         _______ _______ _______ _____ _____    ______ ____
ROOT
ATOM      1  C   UNL     1      -0.920   7.601  -1.683  0.00  0.00    -0.042 C 
ENDROOT
BRANCH   1   5
ATOM      2  C   UNL     1      -0.976  11.810  -0.935  0.00  0.00    +0.088 C 
ATOM      3  C   UNL     1      -1.938  10.896  -0.171  0.00  0.00    +0.021 C 
ATOM      4  C   UNL     1      -1.410   9.460  -0.212  0.00  0.00    -0.076 C 
ATOM      5  N   UNL     1      -1.292   9.020  -1.608  0.00  0.00    +0.382 N 
ATOM      6  C   UNL     1      -0.338   9.854  -2.349  0.00  0.00    -0.076 C 
ATOM      7  C   UNL     1      -0.834  11.302  -2.372  0.00  0.00    +0.021 C 
ATOM      8  H   UNL     1      -2.279   9.138  -2.080  0.00  0.00    -0.082 HD
BRANCH   2  15
ATOM      9  C   UNL     1       0.345  13.857  -2.489  0.00  0.00    +0.044 C 
ATOM     10  C   UNL     1      -0.889  14.194  -1.693  0.00  0.00    -0.045 A 
ATOM     11  C   UNL     1      -1.392  15.482  -1.709  0.00  0.00    +0.004 A 
ATOM     12  C   UNL     1      -2.521  15.793  -0.976  0.00  0.00    +0.000 A 
ATOM     13  C   UNL     1      -3.151  14.815  -0.228  0.00  0.00    +0.000 A 
ATOM     14  C   UNL     1      -2.651  13.526  -0.215  0.00  0.00    +0.007 A 
ATOM     15  C   UNL     1      -1.522  13.215  -0.950  0.00  0.00    -0.013 A 
ENDBRANCH   2  15
BRANCH   2  16
ATOM     16  O   UNL     1       0.302  11.800  -0.296  0.00  0.00    -0.384 OA
ATOM     17  H   UNL     1       0.857  10.856  -0.192  0.00  0.00    +0.211 HD
ENDBRANCH   2  16
ENDBRANCH   1   5
BRANCH   1  18
ATOM     18  C   UNL     1      -2.140   6.736  -1.360  0.00  0.00    +0.128 C 
BRANCH  18  19
ATOM     19  C   UNL     1      -1.745   5.282  -1.381  0.00  0.00    -0.021 A 
ATOM     20  C   UNL     1      -1.633   4.615  -2.587  0.00  0.00    +0.008 A 
ATOM     21  C   UNL     1      -1.272   3.283  -2.606  0.00  0.00    +0.025 A 
ATOM     22  C   UNL     1      -1.023   2.612  -1.413  0.00  0.00    +0.054 A 
ATOM     23  C   UNL     1      -1.132   3.282  -0.205  0.00  0.00    -0.024 A 
ATOM     24  C   UNL     1      -1.496   4.619  -0.195  0.00  0.00    +0.011 A 
ATOM     25  C   UNL     1      -0.860   2.592   1.105  0.00  0.00    +0.038 C 
ATOM     26  C   UNL     1      -0.977   1.076   0.947  0.00  0.00    +0.025 C 
ATOM     27  C   UNL     1      -0.115   0.634  -0.243  0.00  0.00    +0.131 C 
ATOM     28  N   UNL     1      -0.663   1.260  -1.454  0.00  0.00    -0.207 N 
BRANCH  28  29
ATOM     29  S   UNL     1      -0.853   0.381  -2.844  0.00  0.00    +0.043 S 
ATOM     30  O   UNL     1      -0.825  -0.976  -2.421  0.00  0.00    -0.155 OA
ATOM     31  O   UNL     1      -2.011   0.924  -3.461  0.00  0.00    -0.155 OA
ATOM     32  C   UNL     1       0.619   0.755  -3.837  0.00  0.00    +0.218 C 
ENDBRANCH  28  29
ENDBRANCH  18  19
BRANCH  18  33
ATOM     33  O   UNL     1      -3.159   6.967  -2.336  0.00  0.00    -0.389 OA
ATOM     34  H   UNL     1      -4.117   6.430  -2.269  0.00  0.00    +0.210 HD
ENDBRANCH  18  33
ENDBRANCH   1  18
TORSDOF 7
