REMARK  Name = ZINC38740488
REMARK  5 active torsions:
REMARK  status: ('A' for Active; 'I' for Inactive)
REMARK    1  A    between atoms: C_7  and  C_11
REMARK    2  A    between atoms: C_11  and  C_12
REMARK    3  A    between atoms: C_12  and  N_13
REMARK    4  A    between atoms: C_14  and  C_16
REMARK    5  A    between atoms: C_22  and  C_24
REMARK                            x       y       z     vdW  Elec       q    Type
REMARK                         _______ _______ _______ _____ _____    ______ ____
ROOT
ATOM      1  C   UNL     1      -2.124  -6.341  -2.599  0.00  0.00    +0.091 C 
ATOM      2  C   UNL     1      -1.390  -7.546  -2.007  0.00  0.00    +0.040 C 
ATOM      3  C   UNL     1      -2.180  -8.800  -2.242  0.00  0.00    -0.030 C 
ATOM      4  C   UNL     1      -3.134  -8.904  -3.112  0.00  0.00    -0.030 C 
ATOM      5  C   UNL     1      -3.588  -7.782  -3.999  0.00  0.00    +0.040 C 
ATOM      6  C   UNL     1      -2.532  -6.676  -4.040  0.00  0.00    +0.091 C 
ENDROOT
BRANCH   6   7
ATOM      7  C   UNL     1      -3.103  -5.449  -4.703  0.00  0.00    +0.220 C 
ATOM      8  O   UNL     1      -3.752  -4.656  -4.054  0.00  0.00    -0.275 OA
ATOM      9  N   UNL     1      -2.893  -5.234  -6.016  0.00  0.00    -0.298 N 
ATOM     10  C   UNL     1      -2.219  -6.246  -6.842  0.00  0.00    +0.126 C 
ATOM     11  C   UNL     1      -3.125  -6.590  -8.031  0.00  0.00    +0.125 C 
ATOM     12  N   UNL     1      -3.565  -5.339  -8.664  0.00  0.00    -0.314 N 
ATOM     13  C   UNL     1      -4.238  -4.326  -7.838  0.00  0.00    +0.125 C 
ATOM     14  C   UNL     1      -3.338  -3.985  -6.650  0.00  0.00    +0.126 C 
ATOM     15  C   UNL     1      -3.348  -5.116 -10.019  0.00  0.00    +0.099 A 
ATOM     16  C   UNL     1      -2.819  -6.133 -10.808  0.00  0.00    +0.042 A 
ATOM     17  C   UNL     1      -2.608  -5.898 -12.155  0.00  0.00    +0.005 A 
ATOM     18  C   UNL     1      -2.934  -4.649 -12.669  0.00  0.00    +0.018 A 
ATOM     19  C   UNL     1      -3.455  -3.687 -11.828  0.00  0.00    +0.084 A 
ATOM     20  N   UNL     1      -3.651  -3.941 -10.547  0.00  0.00    -0.350 N 
ATOM     21  H   UNL     1      -4.022  -3.248  -9.979  0.00  0.00    +0.166 HD
ENDBRANCH   6   7
BRANCH   1  23
ATOM     22  N   UNL     1      -0.721  -4.671  -1.434  0.00  0.00    -0.315 N 
ATOM     23  C   UNL     1      -1.213  -5.141  -2.597  0.00  0.00    +0.217 C 
ATOM     24  O   UNL     1      -0.922  -4.599  -3.642  0.00  0.00    -0.275 OA
ATOM     25  H   UNL     1      -0.953  -5.105  -0.598  0.00  0.00    +0.149 HD
BRANCH  22  26
ATOM     26  C   UNL     1       0.166  -3.504  -1.432  0.00  0.00    +0.109 C 
BRANCH  26  27
ATOM     27  C   UNL     1       0.578  -3.180   0.005  0.00  0.00    +0.056 C 
BRANCH  27  34
ATOM     28  C   UNL     1      -0.204   1.442   0.025  0.00  0.00    +0.001 A 
ATOM     29  C   UNL     1       0.966   2.189   0.026  0.00  0.00    +0.002 A 
ATOM     30  C   UNL     1       2.196   1.568   0.020  0.00  0.00    +0.026 A 
ATOM     31  C   UNL     1       2.268   0.178   0.014  0.00  0.00    +0.047 A 
ATOM     32  C   UNL     1       1.079  -0.574   0.014  0.00  0.00    +0.003 A 
ATOM     33  C   UNL     1      -0.156   0.076   0.019  0.00  0.00    +0.010 A 
ATOM     34  C   UNL     1       1.490  -1.980   0.007  0.00  0.00    -0.021 A 
ATOM     35  C   UNL     1       2.832  -1.997   0.004  0.00  0.00    +0.087 A 
ATOM     36  N   UNL     1       3.315  -0.716   0.008  0.00  0.00    -0.360 N 
ATOM     37  H   UNL     1       4.254  -0.475   0.007  0.00  0.00    +0.165 HD
ENDBRANCH  27  34
ENDBRANCH  26  27
ENDBRANCH  22  26
ENDBRANCH   1  23
TORSDOF 5
