REMARK  Name = ZINC24425416
REMARK  3 active torsions:
REMARK  status: ('A' for Active; 'I' for Inactive)
REMARK    1  A    between atoms: C_9  and  N_11
REMARK    2  A    between atoms: N_11  and  S_12
REMARK    3  A    between atoms: S_12  and  C_15
REMARK                            x       y       z     vdW  Elec       q    Type
REMARK                         _______ _______ _______ _____ _____    ______ ____
ROOT
ATOM      1  S   UNL     1      -1.373   6.044   0.766  0.00  0.00    +0.072 S 
ATOM      2  O   UNL     1      -1.181   7.432   0.529  0.00  0.00    -0.150 OA
ATOM      3  O   UNL     1      -2.557   5.361   0.378  0.00  0.00    -0.150 OA
ENDROOT
BRANCH   1   4
ATOM      4  C   UNL     1      -1.198   5.801   2.503  0.00  0.00    +0.109 A 
ATOM      5  C   UNL     1      -1.794   4.714   3.115  0.00  0.00    +0.029 A 
ATOM      6  C   UNL     1      -1.649   4.529   4.474  0.00  0.00    +0.006 A 
ATOM      7  C   UNL     1      -0.919   5.432   5.236  0.00  0.00    -0.044 A 
ATOM      8  C   UNL     1      -0.327   6.516   4.627  0.00  0.00    -0.042 A 
ATOM      9  C   UNL     1      -0.470   6.698   3.257  0.00  0.00    +0.032 A 
ATOM     10  C   UNL     1       0.487   7.529   5.388  0.00  0.00    +0.035 C 
ATOM     11  C   UNL     1       0.193   7.439   6.884  0.00  0.00    +0.005 C 
ATOM     12  C   UNL     1       0.340   5.976   7.318  0.00  0.00    +0.005 C 
ATOM     13  C   UNL     1      -0.813   5.176   6.716  0.00  0.00    +0.035 C 
ENDBRANCH   1   4
BRANCH   1  14
ATOM     14  N   UNL     1      -0.112   5.261   0.032  0.00  0.00    -0.214 N 
ATOM     15  H   UNL     1       0.605   5.826  -0.581  0.00  0.00    +0.174 HD
BRANCH  14  24
ATOM     16  C   UNL     1      -0.925   1.689   0.427  0.00  0.00    +0.003 A 
ATOM     17  C   UNL     1       0.313   1.124   0.513  0.00  0.00    +0.011 A 
ATOM     18  C   UNL     1       1.458   1.930   0.434  0.00  0.00    +0.021 A 
ATOM     19  C   UNL     1       2.847   1.658   0.482  0.00  0.00    +0.142 A 
ATOM     20  N   UNL     1       3.496   2.780   0.361  0.00  0.00    -0.181 NA
ATOM     21  N   UNL     1       2.589   3.838   0.228  0.00  0.00    -0.275 N 
ATOM     22  H   UNL     1       2.959   4.868   0.114  0.00  0.00    +0.189 HD
ATOM     23  C   UNL     1       1.319   3.319   0.272  0.00  0.00    +0.088 A 
ATOM     24  C   UNL     1       0.041   3.881   0.193  0.00  0.00    +0.073 A 
ATOM     25  C   UNL     1      -1.070   3.062   0.274  0.00  0.00    +0.026 A 
ENDBRANCH  14  24
ENDBRANCH   1  14
TORSDOF 3
