REMARK  Name = ZINC16430244
REMARK  17 active torsions:
REMARK  status: ('A' for Active; 'I' for Inactive)
REMARK    1  A    between atoms: C_1  and  C_2
REMARK    2  A    between atoms: C_2  and  C_3
REMARK    3  A    between atoms: C_6  and  N_9
REMARK    4  A    between atoms: C_19  and  C_20
REMARK    5  A    between atoms: C_20  and  C_22
REMARK    6  A    between atoms: C_20  and  N_24
REMARK    7  A    between atoms: C_22  and  C_23
REMARK    8  A    between atoms: N_24  and  C_25
REMARK    9  A    between atoms: C_25  and  C_26
REMARK   10  A    between atoms: C_26  and  N_82
REMARK   11  A    between atoms: C_27  and  N_82
REMARK   12  A    between atoms: C_28  and  N_82
REMARK   13  A    between atoms: C_29  and  C_31
REMARK   14  A    between atoms: C_34  and  C_37
REMARK   15  A    between atoms: C_37  and  C_38
REMARK   16  A    between atoms: C_37  and  C_39
REMARK   17  A    between atoms: C_37  and  C_40
REMARK                            x       y       z     vdW  Elec       q    Type
REMARK                         _______ _______ _______ _____ _____    ______ ____
ROOT
ATOM      1  C   UNL     1       0.097   1.138   2.966  0.00  0.00    +0.143 C 
ENDROOT
BRANCH   1  12
ATOM      2  N   UNL     1       0.846   2.796   4.627  0.00  0.00    -0.263 N 
ATOM      3  C   UNL     1       0.680   3.556   5.734  0.00  0.00    +0.266 A 
ATOM      4  O   UNL     1       1.552   4.314   6.117  0.00  0.00    -0.267 OA
ATOM      5  C   UNL     1      -0.593   3.427   6.458  0.00  0.00    +0.065 A 
ATOM      6  C   UNL     1      -0.861   4.161   7.613  0.00  0.00    +0.015 A 
ATOM      7  C   UNL     1      -2.070   4.001   8.253  0.00  0.00    +0.001 A 
ATOM      8  C   UNL     1      -3.020   3.117   7.758  0.00  0.00    +0.002 A 
ATOM      9  C   UNL     1      -2.774   2.382   6.620  0.00  0.00    +0.028 A 
ATOM     10  C   UNL     1      -1.556   2.527   5.952  0.00  0.00    +0.078 A 
ATOM     11  N   UNL     1      -1.273   1.823   4.828  0.00  0.00    -0.231 NA
ATOM     12  C   UNL     1      -0.140   1.957   4.208  0.00  0.00    +0.138 A 
BRANCH   2  16
ATOM     13  C   UNL     1       4.404   3.038   2.471  0.00  0.00    -0.047 A 
ATOM     14  C   UNL     1       3.235   3.541   1.931  0.00  0.00    +0.005 A 
ATOM     15  C   UNL     1       2.054   3.462   2.643  0.00  0.00    +0.026 A 
ATOM     16  C   UNL     1       2.042   2.877   3.902  0.00  0.00    +0.051 A 
ATOM     17  C   UNL     1       3.219   2.377   4.443  0.00  0.00    +0.026 A 
ATOM     18  C   UNL     1       4.396   2.454   3.724  0.00  0.00    +0.005 A 
BRANCH  13  20
ATOM     19  C   UNL     1       6.402   4.439   2.027  0.00  0.00    +0.009 C 
ATOM     20  C   UNL     1       5.691   3.126   1.691  0.00  0.00    +0.032 C 
ENDBRANCH  13  20
ENDBRANCH   2  16
ENDBRANCH   1  12
BRANCH   1  21
ATOM     21  N   UNL     1       0.116  -0.285   3.315  0.00  0.00    -0.289 N 
ATOM     22  C   UNL     1       1.217  -1.024   3.073  0.00  0.00    +0.247 C 
ATOM     23  O   UNL     1       2.202  -0.504   2.586  0.00  0.00    -0.270 OA
BRANCH  22  24
ATOM     24  C   UNL     1       1.226  -2.466   3.398  0.00  0.00    +0.037 A 
ATOM     25  C   UNL     1       0.024  -3.162   3.532  0.00  0.00    +0.013 A 
ATOM     26  C   UNL     1       0.040  -4.508   3.832  0.00  0.00    +0.005 A 
ATOM     27  C   UNL     1       1.243  -5.167   4.010  0.00  0.00    -0.042 A 
ATOM     28  C   UNL     1       2.439  -4.481   3.883  0.00  0.00    +0.005 A 
ATOM     29  C   UNL     1       2.437  -3.136   3.579  0.00  0.00    +0.013 A 
BRANCH  27  30
ATOM     30  C   UNL     1       1.253  -6.636   4.342  0.00  0.00    -0.013 C 
ATOM     31  C   UNL     1       1.948  -6.850   5.688  0.00  0.00    +0.015 C 
ATOM     32  C   UNL     1      -0.186  -7.150   4.425  0.00  0.00    +0.015 C 
ATOM     33  C   UNL     1       2.006  -7.401   3.252  0.00  0.00    +0.015 C 
ENDBRANCH  27  30
ENDBRANCH  22  24
BRANCH  21  34
ATOM     34  C   UNL     1      -1.061  -0.904   3.929  0.00  0.00    +0.090 C 
BRANCH  34  35
ATOM     35  C   UNL     1      -2.071  -1.271   2.839  0.00  0.00    -0.060 C 
BRANCH  35  38
ATOM     36  C   UNL     1      -3.977  -0.929   4.293  0.00  0.00    -0.097 C 
ATOM     37  C   UNL     1      -4.134  -2.471   2.432  0.00  0.00    -0.097 C 
ATOM     38  N   UNL     1      -3.242  -1.914   3.471  0.00  0.00    +0.377 N 
ATOM     39  H   UNL     1      -2.918  -2.677   4.076  0.00  0.00    -0.083 HD
ENDBRANCH  35  38
ENDBRANCH  34  35
ENDBRANCH  21  34
ENDBRANCH   1  21
BRANCH   1  40
ATOM     40  C   UNL     1      -1.026   1.401   1.960  0.00  0.00    +0.027 C 
ATOM     41  C   UNL     1      -0.780   0.575   0.695  0.00  0.00    +0.006 C 
ENDBRANCH   1  40
TORSDOF 10
