REMARK  Name = ZINC49937726
REMARK  3 active torsions:
REMARK  status: ('A' for Active; 'I' for Inactive)
REMARK    1  A    between atoms: N_9  and  C_10
REMARK    2  A    between atoms: C_10  and  C_12
REMARK    3  A    between atoms: C_17  and  N_18
REMARK                            x       y       z     vdW  Elec       q    Type
REMARK                         _______ _______ _______ _____ _____    ______ ____
ROOT
ATOM      1  C   UNL     1       4.864  -4.006   0.117  0.00  0.00    +0.271 C 
ATOM      2  O   UNL     1       5.765  -3.238  -0.172  0.00  0.00    -0.268 OA
ENDROOT
BRANCH   1  11
ATOM      3  C   UNL     1       1.496   2.047   1.391  0.00  0.00    +0.002 A 
ATOM      4  C   UNL     1       2.701   2.603   0.995  0.00  0.00    +0.001 A 
ATOM      5  C   UNL     1       3.742   1.770   0.624  0.00  0.00    +0.017 A 
ATOM      6  C   UNL     1       3.564   0.407   0.654  0.00  0.00    +0.039 A 
ATOM      7  C   UNL     1       2.355  -0.182   1.051  0.00  0.00    +0.055 A 
ATOM      8  C   UNL     1       1.317   0.683   1.421  0.00  0.00    +0.027 A 
ATOM      9  N   UNL     1       2.370  -1.564   1.015  0.00  0.00    -0.335 N 
ATOM     10  C   UNL     1       3.494  -2.217   0.620  0.00  0.00    +0.164 A 
ATOM     11  N   UNL     1       3.683  -3.528   0.527  0.00  0.00    -0.152 NA
ATOM     12  S   UNL     1       4.590  -0.990   0.276  0.00  0.00    -0.052 S 
ATOM     13  H   UNL     1       1.580  -2.065   1.272  0.00  0.00    +0.168 HD
ENDBRANCH   1  11
BRANCH   1  14
ATOM     14  C   UNL     1       5.075  -5.466   0.013  0.00  0.00    +0.064 A 
ATOM     15  C   UNL     1       4.805  -6.293   1.105  0.00  0.00    +0.016 A 
ATOM     16  C   UNL     1       5.004  -7.653   1.003  0.00  0.00    +0.021 A 
ATOM     17  C   UNL     1       5.471  -8.204  -0.180  0.00  0.00    +0.043 A 
ATOM     18  C   UNL     1       5.742  -7.396  -1.268  0.00  0.00    +0.048 A 
ATOM     19  C   UNL     1       5.541  -6.027  -1.183  0.00  0.00    +0.082 A 
ATOM     20 CL   UNL     1       5.718  -9.919  -0.295  0.00  0.00    -0.083 Cl
BRANCH  19  21
ATOM     21  N   UNL     1       5.808  -5.207  -2.285  0.00  0.00    -0.199 N 
ATOM     22  C   UNL     1       6.363  -5.571  -3.463  0.00  0.00    +0.250 A 
ATOM     23  N   UNL     1       6.431  -4.499  -4.207  0.00  0.00    -0.116 NA
ATOM     24  N   UNL     1       5.957  -3.482  -3.582  0.00  0.00    -0.023 NA
ATOM     25  N   UNL     1       5.552  -3.830  -2.408  0.00  0.00    -0.039 NA
ENDBRANCH  19  21
ENDBRANCH   1  14
TORSDOF 3
