REMARK  Name = ZINC40157216
REMARK  11 active torsions:
REMARK  status: ('A' for Active; 'I' for Inactive)
REMARK    1  A    between atoms: C_1  and  C_2
REMARK    2  A    between atoms: C_2  and  C_3
REMARK    3  A    between atoms: C_2  and  N_4
REMARK    4  A    between atoms: N_4  and  C_5
REMARK    5  A    between atoms: N_4  and  C_6
REMARK    6  A    between atoms: C_6  and  C_7
REMARK    7  A    between atoms: N_15  and  C_16
REMARK    8  A    between atoms: N_19  and  S_22
REMARK    9  A    between atoms: S_22  and  C_25
REMARK   10  A    between atoms: C_28  and  N_31
REMARK   11  A    between atoms: C_32  and  C_34
REMARK                            x       y       z     vdW  Elec       q    Type
REMARK                         _______ _______ _______ _____ _____    ______ ____
ROOT
ATOM      1  C   UNL     1      -9.232   1.869  -2.469  0.00  0.00    +0.077 C 
ATOM      2  C   UNL     1     -10.502   1.035  -2.286  0.00  0.00    +0.039 C 
ATOM      3  C   UNL     1     -11.725   1.957  -2.332  0.00  0.00    +0.111 C 
ATOM      4  N   UNL     1     -11.686   2.732  -3.580  0.00  0.00    -0.176 NA
ATOM      5  C   UNL     1     -10.473   3.499  -3.898  0.00  0.00    +0.111 C 
ATOM      6  C   UNL     1      -9.265   2.559  -3.834  0.00  0.00    +0.039 C 
ENDROOT
BRANCH   1  15
ATOM      7  C   UNL     1      -3.607  -0.537  -1.108  0.00  0.00    -0.025 C 
ATOM      8  C   UNL     1      -4.278   0.156   0.080  0.00  0.00    +0.021 C 
ATOM      9  C   UNL     1      -5.741  -0.291   0.167  0.00  0.00    +0.109 C 
ATOM     10  N   UNL     1      -6.391  -0.036  -1.126  0.00  0.00    -0.286 N 
ATOM     11  C   UNL     1      -5.777  -0.582  -2.345  0.00  0.00    +0.109 C 
ATOM     12  C   UNL     1      -4.314  -0.132  -2.404  0.00  0.00    +0.021 C 
ATOM     13  C   UNL     1      -7.528   0.683  -1.193  0.00  0.00    +0.302 C 
ATOM     14  O   UNL     1      -8.076   1.050  -0.171  0.00  0.00    -0.253 OA
ATOM     15  N   UNL     1      -8.059   0.995  -2.392  0.00  0.00    -0.296 N 
ATOM     16  H   UNL     1      -7.664   0.641  -3.204  0.00  0.00    +0.151 HD
BRANCH   7  17
ATOM     17  C   UNL     1      -2.136  -0.120  -1.178  0.00  0.00    -0.075 C 
BRANCH  17  18
ATOM     18  N   UNL     1      -1.430  -0.614   0.012  0.00  0.00    +0.380 N 
ATOM     19  C   UNL     1      -1.419  -2.083  -0.001  0.00  0.00    -0.096 C 
ATOM     20  H   UNL     1      -1.902  -0.288   0.842  0.00  0.00    -0.082 HD
BRANCH  18  22
ATOM     21  C   UNL     1      -0.062   1.417   0.018  0.00  0.00    -0.014 C 
ATOM     22  C   UNL     1      -0.050  -0.113   0.005  0.00  0.00    -0.075 C 
ATOM     23  C   UNL     1       0.686  -0.627   1.244  0.00  0.00    -0.014 C 
ENDBRANCH  18  22
ENDBRANCH  17  18
ENDBRANCH   7  17
ENDBRANCH   1  15
BRANCH   4  24
ATOM     24  S   UNL     1     -12.983   2.740  -4.609  0.00  0.00    +0.061 S 
ATOM     25  O   UNL     1     -12.478   3.065  -5.897  0.00  0.00    -0.153 OA
ATOM     26  O   UNL     1     -13.711   1.546  -4.355  0.00  0.00    -0.153 OA
BRANCH  24  27
ATOM     27  C   UNL     1     -14.024   4.077  -4.124  0.00  0.00    +0.106 A 
ATOM     28  C   UNL     1     -15.021   3.871  -3.188  0.00  0.00    +0.030 A 
ATOM     29  C   UNL     1     -15.838   4.917  -2.806  0.00  0.00    +0.025 A 
ATOM     30  C   UNL     1     -15.658   6.176  -3.363  0.00  0.00    +0.033 A 
ATOM     31  C   UNL     1     -14.655   6.380  -4.302  0.00  0.00    +0.025 A 
ATOM     32  C   UNL     1     -13.838   5.331  -4.676  0.00  0.00    +0.030 A 
BRANCH  30  33
ATOM     33  N   UNL     1     -16.484   7.237  -2.978  0.00  0.00    -0.286 N 
ATOM     34  C   UNL     1     -16.924   7.323  -1.707  0.00  0.00    +0.214 C 
ATOM     35  O   UNL     1     -16.672   6.437  -0.918  0.00  0.00    -0.276 OA
ATOM     36  C   UNL     1     -17.727   8.519  -1.266  0.00  0.00    +0.109 C 
ATOM     37  H   UNL     1     -16.741   7.912  -3.627  0.00  0.00    +0.155 HD
ENDBRANCH  30  33
ENDBRANCH  24  27
ENDBRANCH   4  24
TORSDOF 7
