REMARK  Name = ZINC35843334
REMARK  3 active torsions:
REMARK  status: ('A' for Active; 'I' for Inactive)
REMARK    1  A    between atoms: C_1  and  C_2
REMARK    2  A    between atoms: C_4  and  C_35
REMARK    3  A    between atoms: N_21  and  C_24
REMARK                            x       y       z     vdW  Elec       q    Type
REMARK                         _______ _______ _______ _____ _____    ______ ____
ROOT
ATOM      1  C   UNL     1      -0.064   1.511   0.008  0.00  0.00    +0.044 C 
ATOM      2  C   UNL     1      -0.095   0.004  -0.015  0.00  0.00    -0.050 A 
ATOM      3  C   UNL     1      -0.174  -0.669  -1.220  0.00  0.00    +0.008 A 
ATOM      4  C   UNL     1      -0.203  -2.048  -1.247  0.00  0.00    -0.029 A 
ATOM      5  C   UNL     1      -0.154  -2.773  -0.059  0.00  0.00    +0.039 A 
ATOM      6  C   UNL     1      -0.075  -2.085   1.148  0.00  0.00    -0.027 A 
ATOM      7  C   UNL     1      -0.040  -0.709   1.170  0.00  0.00    +0.008 A 
ATOM      8  C   UNL     1      -0.041  -3.137   2.220  0.00  0.00    +0.053 C 
ATOM      9  C   UNL     1      -1.217  -2.989   3.192  0.00  0.00    +0.089 C 
ATOM     10  C   UNL     1      -0.622  -2.254   4.423  0.00  0.00    +0.074 C 
ATOM     11  C   UNL     1       0.858  -2.013   4.074  0.00  0.00    -0.054 C 
ATOM     12  N   UNL     1       1.184  -3.042   3.033  0.00  0.00    +0.395 N 
ATOM     13  C   UNL     1       1.370  -4.307   3.782  0.00  0.00    -0.076 C 
ATOM     14  C   UNL     1       2.077  -3.901   5.091  0.00  0.00    -0.020 C 
ATOM     15  C   UNL     1       1.732  -2.373   5.289  0.00  0.00    -0.016 C 
ATOM     16  C   UNL     1      -0.730  -3.281   5.528  0.00  0.00    +0.228 C 
ATOM     17  O   UNL     1      -0.371  -3.118   6.674  0.00  0.00    -0.275 OA
ATOM     18  N   UNL     1      -1.283  -4.399   5.043  0.00  0.00    -0.209 N 
ATOM     19  C   UNL     1      -1.608  -4.347   3.731  0.00  0.00    +0.229 C 
ATOM     20  O   UNL     1      -2.123  -5.235   3.087  0.00  0.00    -0.275 OA
ATOM     21  C   UNL     1      -0.106  -4.448   1.482  0.00  0.00    +0.212 C 
ATOM     22  O   UNL     1      -0.101  -5.557   1.973  0.00  0.00    -0.277 OA
ATOM     23  N   UNL     1      -0.170  -4.150   0.170  0.00  0.00    -0.286 N 
ATOM     24  C   UNL     1      -0.289  -2.772  -2.566  0.00  0.00    +0.045 C 
ATOM     25  H   UNL     1      -0.221  -4.816  -0.534  0.00  0.00    +0.155 HD
ATOM     26  H   UNL     1       1.991  -2.789   2.484  0.00  0.00    -0.079 HD
ENDROOT
BRANCH  18  27
ATOM     27  C   UNL     1      -1.515  -5.535   5.832  0.00  0.00    +0.064 A 
ATOM     28  C   UNL     1      -0.552  -6.531   5.917  0.00  0.00    +0.045 A 
ATOM     29  C   UNL     1      -0.783  -7.649   6.696  0.00  0.00    +0.043 A 
ATOM     30  C   UNL     1      -1.973  -7.776   7.391  0.00  0.00    +0.021 A 
ATOM     31  C   UNL     1      -2.934  -6.786   7.309  0.00  0.00    +0.023 A 
ATOM     32  C   UNL     1      -2.706  -5.662   6.536  0.00  0.00    +0.063 A 
ATOM     33 CL   UNL     1      -3.910  -4.416   6.438  0.00  0.00    -0.082 Cl
ATOM     34 CL   UNL     1       0.420  -8.896   6.802  0.00  0.00    -0.083 Cl
ENDBRANCH  18  27
TORSDOF 1
