REMARK  Name = ZINC03301877
REMARK  8 active torsions:
REMARK  status: ('A' for Active; 'I' for Inactive)
REMARK    1  A    between atoms: C_1  and  O_2
REMARK    2  A    between atoms: O_2  and  C_3
REMARK    3  A    between atoms: C_5  and  C_10
REMARK    4  A    between atoms: C_8  and  O_9
REMARK    5  A    between atoms: C_12  and  C_20
REMARK    6  A    between atoms: C_20  and  O_22
REMARK    7  A    between atoms: O_22  and  C_23
REMARK    8  A    between atoms: C_23  and  C_24
REMARK                            x       y       z     vdW  Elec       q    Type
REMARK                         _______ _______ _______ _____ _____    ______ ____
ROOT
ATOM      1  C   UNL     1       1.222  -2.189  -0.021  0.00  0.00    +0.122 C 
ATOM      2  C   UNL     1       0.989  -2.710   1.403  0.00  0.00    +0.166 C 
ATOM      3  C   UNL     1      -0.455  -2.424   1.764  0.00  0.00    +0.018 C 
ATOM      4  C   UNL     1      -0.778  -1.857   2.911  0.00  0.00    +0.029 C 
ATOM      5  N   UNL     1      -1.431  -2.787   0.830  0.00  0.00    -0.300 N 
ATOM      6  C   UNL     1      -1.083  -2.916  -0.464  0.00  0.00    +0.135 C 
ATOM      7  S   UNL     1      -2.276  -3.397  -1.594  0.00  0.00    -0.019 S 
ATOM      8  N   UNL     1       0.162  -2.682  -0.900  0.00  0.00    -0.318 N 
ATOM      9  H   UNL     1      -2.346  -2.942   1.111  0.00  0.00    +0.154 HD
ATOM     10  H   UNL     1       0.368  -2.846  -1.834  0.00  0.00    +0.148 HD
ENDROOT
BRANCH   1  13
ATOM     11  C   UNL     1       2.386   1.405  -0.013  0.00  0.00    +0.162 A 
ATOM     12  C   UNL     1       2.398   0.019  -0.020  0.00  0.00    +0.055 A 
ATOM     13  C   UNL     1       1.207  -0.682  -0.013  0.00  0.00    -0.022 A 
ATOM     14  C   UNL     1       0.002  -0.004   0.002  0.00  0.00    +0.009 A 
ATOM     15  C   UNL     1      -0.017   1.378   0.010  0.00  0.00    +0.049 A 
ATOM     16  C   UNL     1       1.174   2.087   0.002  0.00  0.00    +0.158 A 
BRANCH  11  18
ATOM     17  C   UNL     1       4.763   1.330  -0.036  0.00  0.00    +0.277 C 
ATOM     18  O   UNL     1       3.557   2.096  -0.020  0.00  0.00    -0.491 OA
ENDBRANCH  11  18
BRANCH  16  19
ATOM     19  O   UNL     1       1.157   3.447   0.009  0.00  0.00    -0.503 OA
ATOM     20  H   UNL     1       1.161   3.836   0.894  0.00  0.00    +0.292 HD
ENDBRANCH  16  19
ENDBRANCH   1  13
BRANCH   2  21
ATOM     21  C   UNL     1       1.243  -4.195   1.451  0.00  0.00    +0.318 C 
ATOM     22  O   UNL     1       1.577  -4.784   0.451  0.00  0.00    -0.250 OA
BRANCH  21  23
ATOM     23  O   UNL     1       1.098  -4.863   2.607  0.00  0.00    -0.459 OA
BRANCH  23  24
ATOM     24  C   UNL     1       1.359  -6.291   2.580  0.00  0.00    +0.267 C 
BRANCH  24  25
ATOM     25  C   UNL     1       1.147  -6.867   3.956  0.00  0.00    -0.010 A 
ATOM     26  C   UNL     1       2.201  -6.930   4.849  0.00  0.00    +0.007 A 
ATOM     27  C   UNL     1       2.005  -7.455   6.113  0.00  0.00    +0.000 A 
ATOM     28  C   UNL     1       0.758  -7.924   6.481  0.00  0.00    +0.000 A 
ATOM     29  C   UNL     1      -0.295  -7.864   5.587  0.00  0.00    +0.000 A 
ATOM     30  C   UNL     1      -0.100  -7.336   4.324  0.00  0.00    +0.007 A 
ENDBRANCH  24  25
ENDBRANCH  23  24
ENDBRANCH  21  23
ENDBRANCH   2  21
TORSDOF 7
