REMARK  Name = ZINC20918905
REMARK  14 active torsions:
REMARK  status: ('A' for Active; 'I' for Inactive)
REMARK    1  A    between atoms: C_1  and  C_2
REMARK    2  A    between atoms: C_2  and  C_3
REMARK    3  A    between atoms: C_2  and  C_4
REMARK    4  A    between atoms: C_2  and  C_5
REMARK    5  A    between atoms: C_8  and  N_11
REMARK    6  A    between atoms: C_12  and  C_14
REMARK    7  A    between atoms: C_14  and  S_15
REMARK    8  A    between atoms: S_15  and  C_16
REMARK    9  A    between atoms: N_20  and  N_21
REMARK   10  A    between atoms: N_22  and  N_23
REMARK   11  A    between atoms: C_24  and  C_25
REMARK   12  A    between atoms: C_24  and  C_32
REMARK   13  A    between atoms: C_25  and  C_26
REMARK   14  A    between atoms: C_32  and  C_33
REMARK                            x       y       z     vdW  Elec       q    Type
REMARK                         _______ _______ _______ _____ _____    ______ ____
ROOT
ATOM      1  C   UNL     1      -2.077   1.772  -1.028  0.00  0.00    +0.210 A 
ATOM      2  N   UNL     1      -2.407   2.231  -2.211  0.00  0.00    -0.119 NA
ATOM      3  N   UNL     1      -1.252   2.257  -3.003  0.00  0.00    -0.109 NA
ATOM      4  C   UNL     1      -0.253   1.818  -2.276  0.00  0.00    +0.254 A 
ATOM      5  N   UNL     1      -0.738   1.503  -1.037  0.00  0.00    -0.211 N 
ATOM      6  N   UNL     1       1.066   1.693  -2.692  0.00  0.00    -0.204 N 
ATOM      7  H   UNL     1       1.828   1.310  -1.997  0.00  0.00    +0.177 HD
ENDROOT
BRANCH   5   8
ATOM      8  N   UNL     1      -0.011   1.010   0.008  0.00  0.00    -0.294 N 
ATOM      9  H   UNL     1       1.068   0.829  -0.109  0.00  0.00    +0.163 HD
ATOM     10  H   UNL     1      -0.503   0.794   0.968  0.00  0.00    +0.163 HD
ENDBRANCH   5   8
BRANCH   6  11
ATOM     11  N   UNL     1       1.427   2.056  -3.996  0.00  0.00    -0.188 NA
ATOM     12  C   UNL     1       2.643   1.941  -4.379  0.00  0.00    +0.045 C 
BRANCH  12  13
ATOM     13  C   UNL     1       3.686   1.415  -3.427  0.00  0.00    +0.088 C 
BRANCH  13  14
ATOM     14  C   UNL     1       3.769  -0.084  -3.551  0.00  0.00    -0.042 A 
ATOM     15  C   UNL     1       2.977  -0.889  -2.754  0.00  0.00    +0.004 A 
ATOM     16  C   UNL     1       3.050  -2.264  -2.871  0.00  0.00    +0.000 A 
ATOM     17  C   UNL     1       3.922  -2.836  -3.779  0.00  0.00    +0.000 A 
ATOM     18  C   UNL     1       4.719  -2.031  -4.572  0.00  0.00    +0.000 A 
ATOM     19  C   UNL     1       4.642  -0.655  -4.459  0.00  0.00    +0.004 A 
ENDBRANCH  13  14
ENDBRANCH  12  13
BRANCH  12  20
ATOM     20  C   UNL     1       3.031   2.331  -5.782  0.00  0.00    +0.088 C 
BRANCH  20  21
ATOM     21  C   UNL     1       3.969   3.509  -5.735  0.00  0.00    -0.042 A 
ATOM     22  C   UNL     1       3.465   4.796  -5.770  0.00  0.00    +0.004 A 
ATOM     23  C   UNL     1       4.326   5.877  -5.721  0.00  0.00    +0.000 A 
ATOM     24  C   UNL     1       5.691   5.670  -5.648  0.00  0.00    +0.000 A 
ATOM     25  C   UNL     1       6.195   4.384  -5.619  0.00  0.00    +0.000 A 
ATOM     26  C   UNL     1       5.334   3.303  -5.662  0.00  0.00    +0.004 A 
ENDBRANCH  20  21
ENDBRANCH  12  20
ENDBRANCH   6  11
BRANCH   1  27
ATOM     27  S   UNL     1      -3.170   1.545   0.336  0.00  0.00    -0.075 S 
BRANCH  27  28
ATOM     28  C   UNL     1      -4.782   2.083  -0.298  0.00  0.00    +0.173 C 
BRANCH  28  30
ATOM     29  N   UNL     1      -7.101   2.280   0.538  0.00  0.00    -0.285 N 
ATOM     30  C   UNL     1      -5.821   1.938   0.783  0.00  0.00    +0.227 C 
ATOM     31  O   UNL     1      -5.505   1.513   1.875  0.00  0.00    -0.275 OA
ATOM     32  H   UNL     1      -7.374   2.736  -0.425  0.00  0.00    +0.155 HD
BRANCH  29  36
ATOM     33  C   UNL     1     -10.027   1.610   3.428  0.00  0.00    -0.042 A 
ATOM     34  C   UNL     1      -8.748   1.968   3.811  0.00  0.00    +0.006 A 
ATOM     35  C   UNL     1      -7.776   2.191   2.856  0.00  0.00    +0.023 A 
ATOM     36  C   UNL     1      -8.084   2.055   1.508  0.00  0.00    +0.033 A 
ATOM     37  C   UNL     1      -9.371   1.700   1.126  0.00  0.00    +0.023 A 
ATOM     38  C   UNL     1     -10.337   1.473   2.087  0.00  0.00    +0.006 A 
BRANCH  33  40
ATOM     39  C   UNL     1     -11.288   2.640   5.297  0.00  0.00    +0.015 C 
ATOM     40  C   UNL     1     -11.085   1.367   4.473  0.00  0.00    -0.013 C 
ATOM     41  C   UNL     1     -12.400   0.988   3.789  0.00  0.00    +0.015 C 
ATOM     42  C   UNL     1     -10.642   0.228   5.393  0.00  0.00    +0.015 C 
ENDBRANCH  33  40
ENDBRANCH  29  36
ENDBRANCH  28  30
ENDBRANCH  27  28
ENDBRANCH   1  27
TORSDOF 11
