REMARK  Name = ZINC27549656
REMARK  9 active torsions:
REMARK  status: ('A' for Active; 'I' for Inactive)
REMARK    1  A    between atoms: C_1  and  C_2
REMARK    2  A    between atoms: C_4  and  C_34
REMARK    3  A    between atoms: C_6  and  O_8
REMARK    4  A    between atoms: O_8  and  C_9
REMARK    5  A    between atoms: C_9  and  C_10
REMARK    6  A    between atoms: C_10  and  O_11
REMARK    7  A    between atoms: O_11  and  C_12
REMARK    8  A    between atoms: C_16  and  C_18
REMARK    9  A    between atoms: C_28  and  C_30
REMARK                            x       y       z     vdW  Elec       q    Type
REMARK                         _______ _______ _______ _____ _____    ______ ____
ROOT
ATOM      1  C   UNL     1       1.387  -4.774   5.543  0.00  0.00    +0.121 A 
ATOM      2  C   UNL     1       0.432  -4.805   6.551  0.00  0.00    +0.045 A 
ATOM      3  C   UNL     1       0.654  -5.540   7.701  0.00  0.00    +0.004 A 
ATOM      4  C   UNL     1       1.825  -6.250   7.857  0.00  0.00    +0.008 A 
ATOM      5  C   UNL     1       2.796  -6.227   6.847  0.00  0.00    -0.021 A 
ATOM      6  C   UNL     1       2.565  -5.486   5.682  0.00  0.00    +0.053 A 
ENDROOT
BRANCH   5   7
ATOM      7  C   UNL     1       4.045  -6.980   7.007  0.00  0.00    +0.024 C 
ATOM      8  C   UNL     1       5.202  -6.508   6.457  0.00  0.00    +0.079 C 
ATOM      9  C   UNL     1       5.285  -5.151   5.845  0.00  0.00    +0.132 C 
ATOM     10  N   UNL     1       4.600  -4.126   6.277  0.00  0.00    -0.385 N 
ATOM     11  N   UNL     1       6.176  -5.083   4.753  0.00  0.00    -0.153 N 
ATOM     12  C   UNL     1       7.178  -6.027   4.689  0.00  0.00    +0.181 C 
ATOM     13  N   UNL     1       7.356  -7.058   5.478  0.00  0.00    -0.152 NA
ATOM     14  C   UNL     1       6.447  -7.317   6.441  0.00  0.00    +0.273 C 
ATOM     15  O   UNL     1       6.640  -8.190   7.272  0.00  0.00    -0.268 OA
ATOM     16  S   UNL     1       8.108  -5.488   3.279  0.00  0.00    -0.029 S 
ATOM     17  C   UNL     1       7.056  -4.119   2.815  0.00  0.00    +0.202 C 
ATOM     18  N   UNL     1       6.144  -4.144   3.744  0.00  0.00    -0.160 NA
ATOM     19  H   UNL     1       4.064  -4.206   7.082  0.00  0.00    +0.157 HD
ATOM     20  H   UNL     1       4.627  -3.286   5.793  0.00  0.00    +0.157 HD
BRANCH  17  21
ATOM     21  C   UNL     1       7.191  -3.176   1.647  0.00  0.00    +0.442 C 
ATOM     22  F   UNL     1       6.141  -2.252   1.670  0.00  0.00    -0.164 F 
ATOM     23  F   UNL     1       8.411  -2.498   1.734  0.00  0.00    -0.164 F 
ATOM     24  F   UNL     1       7.146  -3.903   0.453  0.00  0.00    -0.164 F 
ENDBRANCH  17  21
ENDBRANCH   5   7
BRANCH   1  25
ATOM     25  O   UNL     1       1.162  -4.049   4.416  0.00  0.00    -0.489 OA
BRANCH  25  26
ATOM     26  C   UNL     1      -0.076  -3.338   4.338  0.00  0.00    +0.270 C 
BRANCH  26  27
ATOM     27  C   UNL     1      -0.150  -2.586   3.008  0.00  0.00    +0.270 C 
BRANCH  27  28
ATOM     28  O   UNL     1      -0.185  -3.525   1.931  0.00  0.00    -0.489 OA
BRANCH  28  34
ATOM     29  C   UNL     1      -0.384   0.360  -1.016  0.00  0.00    +0.044 C 
ATOM     30  C   UNL     1      -0.351  -1.131  -0.804  0.00  0.00    -0.047 A 
ATOM     31  C   UNL     1      -0.388  -1.985  -1.891  0.00  0.00    +0.007 A 
ATOM     32  C   UNL     1      -0.356  -3.354  -1.699  0.00  0.00    -0.047 A 
ATOM     33  C   UNL     1      -0.289  -3.872  -0.420  0.00  0.00    +0.049 A 
ATOM     34  C   UNL     1      -0.251  -3.018   0.672  0.00  0.00    +0.121 A 
ATOM     35  C   UNL     1      -0.277  -1.644   0.477  0.00  0.00    +0.049 A 
ATOM     36  C   UNL     1      -0.397  -4.282  -2.886  0.00  0.00    +0.044 C 
ENDBRANCH  28  34
ENDBRANCH  27  28
ENDBRANCH  26  27
ENDBRANCH  25  26
ENDBRANCH   1  25
TORSDOF 7
