REMARK  Name = ZINC35270775
REMARK  19 active torsions:
REMARK  status: ('A' for Active; 'I' for Inactive)
REMARK    1  A    between atoms: C_1  and  C_2
REMARK    2  A    between atoms: C_2  and  C_3
REMARK    3  A    between atoms: C_3  and  C_5
REMARK    4  A    between atoms: C_3  and  C_6
REMARK    5  A    between atoms: C_6  and  O_8
REMARK    6  A    between atoms: O_8  and  C_9
REMARK    7  A    between atoms: C_12  and  C_41
REMARK    8  A    between atoms: C_18  and  C_25
REMARK    9  A    between atoms: C_20  and  C_24
REMARK   10  A    between atoms: C_25  and  C_26
REMARK   11  A    between atoms: C_26  and  C_27
REMARK   12  A    between atoms: C_27  and  C_29
REMARK   13  A    between atoms: C_27  and  O_37
REMARK   14  A    between atoms: C_29  and  C_30
REMARK   15  A    between atoms: C_30  and  C_32
REMARK   16  A    between atoms: C_30  and  O_36
REMARK   17  A    between atoms: C_32  and  C_33
REMARK   18  A    between atoms: O_37  and  C_38
REMARK   19  A    between atoms: C_38  and  C_40
REMARK                            x       y       z     vdW  Elec       q    Type
REMARK                         _______ _______ _______ _____ _____    ______ ____
ROOT
ATOM      1  C   UNL     1      -2.668  -3.925  -0.392  0.00  0.00    +0.185 C 
ATOM      2  C   UNL     1      -2.564  -4.399   1.056  0.00  0.00    +0.052 C 
ATOM      3  C   UNL     1      -3.893  -4.092   1.761  0.00  0.00    +0.012 C 
ATOM      4  C   UNL     1      -4.974  -4.872   1.058  0.00  0.00    -0.020 C 
ATOM      5  C   UNL     1      -4.906  -5.104  -0.240  0.00  0.00    -0.044 C 
ATOM      6  C   UNL     1      -3.812  -4.585  -1.122  0.00  0.00    +0.063 C 
ATOM      7  C   UNL     1      -3.341  -5.731  -2.019  0.00  0.00    +0.007 C 
ATOM      8  C   UNL     1      -4.511  -6.176  -2.899  0.00  0.00    +0.012 C 
ATOM      9  C   UNL     1      -5.753  -6.411  -2.095  0.00  0.00    -0.023 C 
ATOM     10  C   UNL     1      -5.955  -5.925  -0.888  0.00  0.00    -0.000 C 
ATOM     11  C   UNL     1      -4.791  -5.092  -3.942  0.00  0.00    +0.012 C 
ATOM     12  C   UNL     1      -3.813  -4.520   3.228  0.00  0.00    +0.012 C 
ENDROOT
BRANCH   1  13
ATOM     13  O   UNL     1      -2.864  -2.509  -0.405  0.00  0.00    -0.461 OA
BRANCH  13  14
ATOM     14  C   UNL     1      -1.763  -1.742  -0.415  0.00  0.00    +0.310 C 
ATOM     15  O   UNL     1      -0.669  -2.255  -0.414  0.00  0.00    -0.251 OA
BRANCH  14  16
ATOM     16  C   UNL     1      -1.891  -0.240  -0.428  0.00  0.00    +0.094 C 
ATOM     17  C   UNL     1      -2.649   0.218   0.819  0.00  0.00    +0.019 C 
BRANCH  16  19
ATOM     18  C   UNL     1      -0.625   1.909  -0.578  0.00  0.00    +0.004 C 
ATOM     19  C   UNL     1      -0.497   0.391  -0.439  0.00  0.00    +0.011 C 
ENDBRANCH  16  19
ENDBRANCH  14  16
ENDBRANCH  13  14
ENDBRANCH   1  13
BRANCH   7  20
ATOM     20  C   UNL     1      -2.185  -5.253  -2.900  0.00  0.00    +0.008 C 
BRANCH  20  21
ATOM     21  C   UNL     1      -1.671  -6.420  -3.745  0.00  0.00    +0.045 C 
BRANCH  21  22
ATOM     22  C   UNL     1      -0.514  -5.941  -4.625  0.00  0.00    +0.179 C 
BRANCH  22  23
ATOM     23  C   UNL     1       0.081  -7.133  -5.378  0.00  0.00    +0.076 C 
BRANCH  23  24
ATOM     24  C   UNL     1       1.314  -6.677  -6.161  0.00  0.00    +0.129 C 
BRANCH  24  25
ATOM     25  O   UNL     1       0.919  -5.750  -7.174  0.00  0.00    -0.391 OA
ATOM     26  H   UNL     1       0.291  -6.111  -7.815  0.00  0.00    +0.210 HD
ENDBRANCH  24  25
BRANCH  24  27
ATOM     27  C   UNL     1       1.981  -7.890  -6.812  0.00  0.00    +0.156 C 
BRANCH  27  28
ATOM     28  C   UNL     1       3.262  -7.460  -7.481  0.00  0.00    +0.358 C 
ATOM     29  O   UNL     1       3.608  -6.292  -7.440  0.00  0.00    -0.246 OA
ATOM     30  O   UNL     1       3.951  -8.280  -8.062  0.00  0.00    -0.246 OA
ENDBRANCH  27  28
ENDBRANCH  24  27
ENDBRANCH  23  24
ENDBRANCH  22  23
BRANCH  22  31
ATOM     31  O   UNL     1      -0.998  -4.978  -5.564  0.00  0.00    -0.461 OA
BRANCH  31  32
ATOM     32  C   UNL     1      -0.134  -4.032  -5.966  0.00  0.00    +0.304 C 
ATOM     33  O   UNL     1       0.995  -4.022  -5.535  0.00  0.00    -0.251 OA
ATOM     34  C   UNL     1      -0.573  -2.983  -6.955  0.00  0.00    +0.136 C 
ENDBRANCH  31  32
ENDBRANCH  22  31
ENDBRANCH  21  22
ENDBRANCH  20  21
ENDBRANCH   7  20
TORSDOF 14
