REMARK  Name = ZINC09225188
REMARK  10 active torsions:
REMARK  status: ('A' for Active; 'I' for Inactive)
REMARK    1  A    between atoms: C_1  and  C_2
REMARK    2  A    between atoms: C_2  and  C_4
REMARK    3  A    between atoms: C_2  and  S_16
REMARK    4  A    between atoms: N_6  and  C_7
REMARK    5  A    between atoms: S_16  and  C_17
REMARK    6  A    between atoms: C_20  and  C_26
REMARK    7  A    between atoms: N_21  and  C_22
REMARK    8  A    between atoms: C_22  and  C_23
REMARK    9  A    between atoms: C_23  and  C_24
REMARK   10  A    between atoms: C_23  and  C_25
REMARK                            x       y       z     vdW  Elec       q    Type
REMARK                         _______ _______ _______ _____ _____    ______ ____
ROOT
ATOM      1  C   UNL     1       2.266   0.464   1.505  0.00  0.00    +0.193 A 
ATOM      2  N   UNL     1       2.737   1.149   0.486  0.00  0.00    -0.122 NA
ATOM      3  N   UNL     1       4.013   1.264   0.584  0.00  0.00    -0.128 NA
ATOM      4  C   UNL     1       4.436   0.660   1.670  0.00  0.00    +0.166 A 
ATOM      5  N   UNL     1       3.330   0.135   2.297  0.00  0.00    -0.302 N 
ENDROOT
BRANCH   4   6
ATOM      6  C   UNL     1       5.836   0.568   2.135  0.00  0.00    +0.038 A 
ATOM      7  C   UNL     1       6.154   0.863   3.462  0.00  0.00    +0.014 A 
ATOM      8  C   UNL     1       7.462   0.775   3.891  0.00  0.00    +0.021 A 
ATOM      9  C   UNL     1       8.460   0.394   3.008  0.00  0.00    +0.042 A 
ATOM     10  C   UNL     1       8.151   0.100   1.691  0.00  0.00    +0.040 A 
ATOM     11  C   UNL     1       6.845   0.179   1.251  0.00  0.00    +0.053 A 
ATOM     12 CL   UNL     1       6.458  -0.197  -0.399  0.00  0.00    -0.083 Cl
ATOM     13 CL   UNL     1      10.103   0.286   3.556  0.00  0.00    -0.083 Cl
ENDBRANCH   4   6
BRANCH   1  14
ATOM     14  S   UNL     1       0.578   0.055   1.799  0.00  0.00    -0.074 S 
BRANCH  14  16
ATOM     15  C   UNL     1      -0.174   2.306   0.439  0.00  0.00    +0.029 C 
ATOM     16  C   UNL     1      -0.301   0.782   0.389  0.00  0.00    +0.137 C 
BRANCH  16  17
ATOM     17  C   UNL     1      -1.757   0.398   0.452  0.00  0.00    +0.230 C 
ATOM     18  O   UNL     1      -2.264   0.116   1.517  0.00  0.00    -0.274 OA
ATOM     19  N   UNL     1      -2.496   0.367  -0.675  0.00  0.00    -0.284 N 
ATOM     20  H   UNL     1      -2.110   0.658  -1.516  0.00  0.00    +0.155 HD
BRANCH  19  21
ATOM     21  C   UNL     1      -3.822  -0.084  -0.631  0.00  0.00    +0.037 A 
ATOM     22  C   UNL     1      -4.773   0.473  -1.476  0.00  0.00    +0.027 A 
ATOM     23  C   UNL     1      -6.080   0.028  -1.435  0.00  0.00    +0.051 A 
ATOM     24  C   UNL     1      -6.447  -0.973  -0.550  0.00  0.00    +0.166 A 
ATOM     25  C   UNL     1      -5.495  -1.534   0.298  0.00  0.00    +0.168 A 
ATOM     26  C   UNL     1      -4.183  -1.091   0.252  0.00  0.00    +0.072 A 
ATOM     27  O   UNL     1      -6.101  -2.488   1.063  0.00  0.00    -0.453 OA
ATOM     28  C   UNL     1      -7.512  -2.223   0.963  0.00  0.00    +0.466 C 
ATOM     29  O   UNL     1      -7.649  -1.577  -0.317  0.00  0.00    -0.453 OA
ENDBRANCH  19  21
ENDBRANCH  16  17
ENDBRANCH  14  16
ENDBRANCH   1  14
BRANCH   5  30
ATOM     30  C   UNL     1       3.299  -0.624   3.550  0.00  0.00    +0.129 C 
BRANCH  30  31
ATOM     31  C   UNL     1       3.598  -2.096   3.262  0.00  0.00    +0.003 C 
ATOM     32  C   UNL     1       3.689  -2.865   4.582  0.00  0.00    +0.009 C 
ATOM     33  C   UNL     1       2.477  -2.687   2.404  0.00  0.00    +0.009 C 
ENDBRANCH  30  31
ENDBRANCH   5  30
TORSDOF 7
