REMARK  Name = ZINC67103428
REMARK  6 active torsions:
REMARK  status: ('A' for Active; 'I' for Inactive)
REMARK    1  A    between atoms: C_6  and  C_7
REMARK    2  A    between atoms: C_7  and  C_9
REMARK    3  A    between atoms: C_7  and  N_15
REMARK    4  A    between atoms: N_18  and  N_19
REMARK    5  A    between atoms: C_20  and  C_22
REMARK    6  A    between atoms: C_22  and  C_23
REMARK                            x       y       z     vdW  Elec       q    Type
REMARK                         _______ _______ _______ _____ _____    ______ ____
ROOT
ATOM      1  N   UNL     1      -1.061  -1.996  -0.775  0.00  0.00    -0.289 N 
ATOM      2  C   UNL     1      -2.085  -2.577  -1.431  0.00  0.00    +0.316 C 
ATOM      3  O   UNL     1      -3.177  -2.043  -1.449  0.00  0.00    -0.251 OA
ATOM      4  N   UNL     1      -1.898  -3.751  -2.067  0.00  0.00    -0.218 N 
ATOM      5  H   UNL     1      -0.174  -2.385  -0.819  0.00  0.00    +0.151 HD
ATOM      6  H   UNL     1      -2.635  -4.169  -2.539  0.00  0.00    +0.174 HD
ENDROOT
BRANCH   4   7
ATOM      7  N   UNL     1      -0.640  -4.366  -2.046  0.00  0.00    -0.233 N 
ATOM      8  C   UNL     1      -0.453  -5.540  -2.683  0.00  0.00    +0.229 C 
ATOM      9  O   UNL     1      -1.375  -6.063  -3.273  0.00  0.00    -0.274 OA
ATOM     10  H   UNL     1       0.097  -3.948  -1.574  0.00  0.00    +0.173 HD
BRANCH   8  11
ATOM     11  C   UNL     1       0.900  -6.202  -2.660  0.00  0.00    +0.101 C 
BRANCH  11  12
ATOM     12  C   UNL     1       0.841  -7.510  -3.451  0.00  0.00    -0.002 C 
ATOM     13  C   UNL     1      -0.101  -8.490  -2.748  0.00  0.00    +0.004 C 
ATOM     14  C   UNL     1      -0.160  -9.798  -3.539  0.00  0.00    +0.000 C 
ATOM     15  C   UNL     1       1.241 -10.407  -3.622  0.00  0.00    +0.000 C 
ATOM     16  C   UNL     1       2.183  -9.428  -4.326  0.00  0.00    +0.000 C 
ATOM     17  C   UNL     1       2.242  -8.120  -3.534  0.00  0.00    +0.004 C 
ENDBRANCH  11  12
ENDBRANCH   8  11
ENDBRANCH   4   7
BRANCH   1  18
ATOM     18  C   UNL     1      -1.289  -0.778   0.007  0.00  0.00    +0.133 C 
BRANCH  18  24
ATOM     19  C   UNL     1      -2.045   1.486  -0.748  0.00  0.00    +0.008 A 
ATOM     20  C   UNL     1      -1.936   2.589  -1.572  0.00  0.00    +0.038 A 
ATOM     21  C   UNL     1      -0.951   2.633  -2.543  0.00  0.00    +0.123 A 
ATOM     22  C   UNL     1      -0.075   1.571  -2.688  0.00  0.00    +0.038 A 
ATOM     23  C   UNL     1      -0.185   0.468  -1.862  0.00  0.00    +0.008 A 
ATOM     24  C   UNL     1      -1.170   0.425  -0.893  0.00  0.00    -0.025 A 
ATOM     25  F   UNL     1      -0.844   3.712  -3.350  0.00  0.00    -0.205 F 
ENDBRANCH  18  24
BRANCH  18  26
ATOM     26  C   UNL     1      -0.247  -0.686   1.123  0.00  0.00    +0.143 C 
ATOM     27  C   UNL     1      -0.413  -1.875   2.094  0.00  0.00    +0.036 C 
ATOM     28  C   UNL     1      -0.161  -1.211   3.475  0.00  0.00    +0.031 C 
ATOM     29  C   UNL     1      -0.764   0.197   3.238  0.00  0.00    +0.160 C 
ATOM     30  O   UNL     1      -0.445   0.518   1.873  0.00  0.00    -0.374 OA
ENDBRANCH  18  26
ENDBRANCH   1  18
TORSDOF 6
