REMARK  Name = ZINC63570123
REMARK  7 active torsions:
REMARK  status: ('A' for Active; 'I' for Inactive)
REMARK    1  A    between atoms: C_4  and  C_7
REMARK    2  A    between atoms: N_18  and  C_19
REMARK    3  A    between atoms: C_19  and  C_20
REMARK    4  A    between atoms: C_23  and  C_26
REMARK    5  A    between atoms: N_28  and  C_29
REMARK    6  A    between atoms: C_29  and  C_30
REMARK    7  A    between atoms: C_30  and  C_31
REMARK                            x       y       z     vdW  Elec       q    Type
REMARK                         _______ _______ _______ _____ _____    ______ ____
ROOT
ATOM      1  C   UNL     1       3.353  -2.643   4.055  0.00  0.00    -0.030 A 
ATOM      2  C   UNL     1       2.951  -1.341   3.811  0.00  0.00    +0.006 A 
ATOM      3  C   UNL     1       1.728  -0.896   4.268  0.00  0.00    +0.013 A 
ATOM      4  C   UNL     1       0.895  -1.761   4.979  0.00  0.00    +0.037 A 
ATOM      5  C   UNL     1       1.306  -3.072   5.222  0.00  0.00    +0.013 A 
ATOM      6  C   UNL     1       2.529  -3.507   4.754  0.00  0.00    +0.006 A 
ENDROOT
BRANCH   4   7
ATOM      7  C   UNL     1      -0.416  -1.290   5.472  0.00  0.00    +0.244 C 
ATOM      8  O   UNL     1      -0.771  -0.147   5.259  0.00  0.00    -0.270 OA
ATOM      9  N   UNL     1      -1.219  -2.128   6.158  0.00  0.00    -0.311 N 
ATOM     10  H   UNL     1      -0.936  -3.040   6.328  0.00  0.00    +0.149 HD
BRANCH   9  11
ATOM     11  C   UNL     1      -2.518  -1.661   6.647  0.00  0.00    +0.109 C 
BRANCH  11  12
ATOM     12  C   UNL     1      -3.224  -2.799   7.387  0.00  0.00    +0.052 C 
BRANCH  12  13
ATOM     13  C   UNL     1      -4.561  -2.319   7.890  0.00  0.00    -0.040 C 
ATOM     14  C   UNL     1      -5.759  -2.465   7.280  0.00  0.00    -0.001 A 
ATOM     15  C   UNL     1      -6.161  -3.088   6.013  0.00  0.00    +0.010 A 
ATOM     16  C   UNL     1      -7.466  -3.076   5.661  0.00  0.00    +0.001 A 
ATOM     17  C   UNL     1      -8.443  -2.484   6.473  0.00  0.00    +0.002 A 
ATOM     18  C   UNL     1      -8.152  -1.891   7.651  0.00  0.00    +0.026 A 
ATOM     19  C   UNL     1      -6.810  -1.847   8.120  0.00  0.00    +0.043 A 
ATOM     20  N   UNL     1      -6.282  -1.339   9.207  0.00  0.00    -0.380 N 
ATOM     21  C   UNL     1      -4.835  -1.583   9.183  0.00  0.00    +0.144 C 
ATOM     22  H   UNL     1      -6.767  -0.882   9.912  0.00  0.00    +0.160 HD
ENDBRANCH  12  13
ENDBRANCH  11  12
ENDBRANCH   9  11
ENDBRANCH   4   7
BRANCH   1  23
ATOM     23  C   UNL     1       4.690  -3.123   3.553  0.00  0.00    +0.144 C 
BRANCH  23  33
ATOM     24  C   UNL     1       4.984  -7.446   2.601  0.00  0.00    +0.103 C 
ATOM     25  C   UNL     1       4.923  -6.052   3.284  0.00  0.00    +0.064 C 
ATOM     26  C   UNL     1       4.230  -5.208   2.201  0.00  0.00    +0.163 C 
ATOM     27  N   UNL     1       4.860  -5.754   0.969  0.00  0.00    -0.222 NA
ATOM     28  N   UNL     1       4.866  -7.188   1.141  0.00  0.00    -0.245 NA
ATOM     29  C   UNL     1       4.200  -5.188  -0.196  0.00  0.00    +0.113 C 
ATOM     30  C   UNL     1       4.597  -3.704  -0.263  0.00  0.00    +0.113 C 
ATOM     31  C   UNL     1       4.629  -3.087   1.105  0.00  0.00    +0.218 C 
ATOM     32  O   UNL     1       4.755  -1.883   1.184  0.00  0.00    -0.276 OA
ATOM     33  N   UNL     1       4.516  -3.786   2.258  0.00  0.00    -0.280 N 
ATOM     34  H   UNL     1       4.024  -7.601   0.768  0.00  0.00    +0.142 HD
BRANCH  24  38
ATOM     35  C   UNL     1       8.707  -9.353   3.464  0.00  0.00    +0.000 A 
ATOM     36  C   UNL     1       7.568  -9.716   4.157  0.00  0.00    +0.000 A 
ATOM     37  C   UNL     1       6.363  -9.098   3.878  0.00  0.00    +0.005 A 
ATOM     38  C   UNL     1       6.297  -8.118   2.906  0.00  0.00    -0.029 A 
ATOM     39  C   UNL     1       7.437  -7.755   2.213  0.00  0.00    +0.005 A 
ATOM     40  C   UNL     1       8.642  -8.373   2.491  0.00  0.00    +0.000 A 
ENDBRANCH  24  38
ENDBRANCH  23  33
ENDBRANCH   1  23
TORSDOF 7
