REMARK  Name = ZINC59099388
REMARK  13 active torsions:
REMARK  status: ('A' for Active; 'I' for Inactive)
REMARK    1  A    between atoms: C_1  and  C_2
REMARK    2  A    between atoms: C_5  and  C_7
REMARK    3  A    between atoms: C_7  and  N_8
REMARK    4  A    between atoms: N_8  and  C_9
REMARK    5  A    between atoms: N_8  and  C_19
REMARK    6  A    between atoms: C_11  and  C_17
REMARK    7  A    between atoms: C_11  and  C_18
REMARK    8  A    between atoms: C_13  and  C_15
REMARK    9  A    between atoms: C_13  and  C_16
REMARK   10  A    between atoms: C_19  and  N_21
REMARK   11  A    between atoms: N_21  and  C_22
REMARK   12  A    between atoms: C_25  and  O_28
REMARK   13  A    between atoms: O_28  and  C_29
REMARK                            x       y       z     vdW  Elec       q    Type
REMARK                         _______ _______ _______ _____ _____    ______ ____
ROOT
ATOM      1  N   UNL     1       2.490  -3.388  -0.768  0.00  0.00    -0.302 N 
ENDROOT
BRANCH   1   2
ATOM      2  C   UNL     1       3.770  -3.117  -1.433  0.00  0.00    +0.073 C 
ATOM      3  C   UNL     1       4.912  -3.625  -0.550  0.00  0.00    +0.009 C 
ATOM      4  C   UNL     1       6.254  -3.339  -1.224  0.00  0.00    -0.072 C 
ATOM      5  N   UNL     1       6.402  -1.935  -1.576  0.00  0.00    +0.386 N 
ATOM      6  C   UNL     1       5.286  -1.283  -2.243  0.00  0.00    -0.072 C 
ATOM      7  C   UNL     1       3.937  -1.608  -1.612  0.00  0.00    +0.009 C 
ATOM      8  C   UNL     1       5.496   0.244  -2.115  0.00  0.00    -0.010 C 
ATOM      9  C   UNL     1       5.254  -1.606  -3.739  0.00  0.00    -0.010 C 
ATOM     10  C   UNL     1       6.446  -4.258  -2.429  0.00  0.00    -0.010 C 
ATOM     11  C   UNL     1       7.362  -3.684  -0.203  0.00  0.00    -0.010 C 
ATOM     12  H   UNL     1       6.618  -1.411  -0.723  0.00  0.00    -0.084 HD
ATOM     13  H   UNL     1       7.232  -1.838  -2.167  0.00  0.00    -0.084 HD
ENDBRANCH   1   2
BRANCH   1  14
ATOM     14  C   UNL     1       1.564  -4.156  -1.376  0.00  0.00    +0.138 C 
ATOM     15  S   UNL     1       0.020  -4.361  -0.664  0.00  0.00    -0.018 S 
BRANCH  14  16
ATOM     16  N   UNL     1       1.853  -4.762  -2.544  0.00  0.00    -0.297 N 
ATOM     17  H   UNL     1       1.975  -5.724  -2.574  0.00  0.00    +0.154 HD
BRANCH  16  18
ATOM     18  C   UNL     1       1.977  -4.004  -3.715  0.00  0.00    +0.033 A 
ATOM     19  C   UNL     1       1.782  -2.629  -3.676  0.00  0.00    +0.027 A 
ATOM     20  C   UNL     1       1.905  -1.882  -4.831  0.00  0.00    +0.048 A 
ATOM     21  C   UNL     1       2.223  -2.504  -6.030  0.00  0.00    +0.129 A 
ATOM     22  C   UNL     1       2.417  -3.877  -6.069  0.00  0.00    +0.048 A 
ATOM     23  C   UNL     1       2.300  -4.625  -4.914  0.00  0.00    +0.027 A 
BRANCH  21  24
ATOM     24  O   UNL     1       2.343  -1.768  -7.167  0.00  0.00    -0.456 OA
BRANCH  24  25
ATOM     25  C   UNL     1       2.546  -2.429  -8.336  0.00  0.00    +0.128 A 
ATOM     26  C   UNL     1       1.491  -3.082  -8.958  0.00  0.00    +0.046 A 
ATOM     27  C   UNL     1       1.701  -3.752 -10.147  0.00  0.00    +0.004 A 
ATOM     28  C   UNL     1       2.960  -3.774 -10.718  0.00  0.00    +0.000 A 
ATOM     29  C   UNL     1       4.013  -3.125 -10.100  0.00  0.00    +0.004 A 
ATOM     30  C   UNL     1       3.808  -2.448  -8.914  0.00  0.00    +0.046 A 
ENDBRANCH  24  25
ENDBRANCH  21  24
ENDBRANCH  16  18
ENDBRANCH  14  16
ENDBRANCH   1  14
BRANCH   1  31
ATOM     31  C   UNL     1       2.218  -2.823   0.556  0.00  0.00    +0.181 C 
BRANCH  31  36
ATOM     32  C   UNL     1       1.626   2.162   0.071  0.00  0.00    +0.086 C 
ATOM     33  C   UNL     1       1.308   0.694   0.192  0.00  0.00    +0.102 A 
ATOM     34  C   UNL     1       0.076   0.153   0.188  0.00  0.00    +0.045 A 
ATOM     35  C   UNL     1       0.242  -1.244   0.324  0.00  0.00    +0.046 A 
ATOM     36  C   UNL     1       1.565  -1.474   0.403  0.00  0.00    +0.122 A 
ATOM     37  O   UNL     1       2.206  -0.296   0.317  0.00  0.00    -0.463 OA
ENDBRANCH  31  36
ENDBRANCH   1  31
TORSDOF 8
