REMARK  Name = ZINC33770971
REMARK  14 active torsions:
REMARK  status: ('A' for Active; 'I' for Inactive)
REMARK    1  A    between atoms: C_3  and  O_10
REMARK    2  A    between atoms: C_6  and  N_7
REMARK    3  A    between atoms: O_10  and  C_11
REMARK    4  A    between atoms: C_13  and  O_42
REMARK    5  A    between atoms: C_15  and  O_25
REMARK    6  A    between atoms: C_17  and  O_24
REMARK    7  A    between atoms: C_19  and  C_22
REMARK    8  A    between atoms: C_22  and  O_23
REMARK    9  A    between atoms: O_25  and  C_26
REMARK   10  A    between atoms: C_28  and  O_41
REMARK   11  A    between atoms: C_30  and  O_40
REMARK   12  A    between atoms: C_32  and  O_39
REMARK   13  A    between atoms: C_34  and  C_37
REMARK   14  A    between atoms: C_37  and  O_38
REMARK                            x       y       z     vdW  Elec       q    Type
REMARK                         _______ _______ _______ _____ _____    ______ ____
ROOT
ATOM      1  C   UNL     1      -0.013   1.086   0.008  0.00  0.00    +0.339 C 
ATOM      2  C   UNL     1      -0.754   1.593  -1.232  0.00  0.00    +0.214 C 
ATOM      3  C   UNL     1      -2.206   1.108  -1.183  0.00  0.00    +0.187 C 
ATOM      4  C   UNL     1      -2.851   1.593   0.119  0.00  0.00    +0.177 C 
ATOM      5  C   UNL     1      -2.029   1.086   1.307  0.00  0.00    +0.179 C 
ATOM      6  O   UNL     1      -0.682   1.547   1.183  0.00  0.00    -0.331 OA
ENDROOT
BRANCH   4   7
ATOM      7  O   UNL     1      -2.881   3.022   0.134  0.00  0.00    -0.386 OA
ATOM      8  H   UNL     1      -3.311   3.554   0.996  0.00  0.00    +0.210 HD
ENDBRANCH   4   7
BRANCH   2   9
ATOM      9  O   UNL     1      -0.728   3.022  -1.252  0.00  0.00    -0.383 OA
ATOM     10  H   UNL     1      -1.213   3.569  -2.074  0.00  0.00    +0.210 HD
ENDBRANCH   2   9
BRANCH   1  11
ATOM     11  O   UNL     1       1.328   1.581  -0.002  0.00  0.00    -0.461 OA
BRANCH  11  14
ATOM     12  C   UNL     1       4.371   0.963   1.894  0.00  0.00    +0.036 A 
ATOM     13  C   UNL     1       3.502   1.494   0.961  0.00  0.00    +0.048 A 
ATOM     14  C   UNL     1       2.185   1.059   0.914  0.00  0.00    +0.124 A 
ATOM     15  C   UNL     1       1.743   0.095   1.809  0.00  0.00    +0.048 A 
ATOM     16  C   UNL     1       2.618  -0.437   2.737  0.00  0.00    +0.036 A 
ATOM     17  C   UNL     1       3.929  -0.002   2.781  0.00  0.00    +0.126 A 
BRANCH  17  18
ATOM     18  N   UNL     1       4.863  -0.570   3.780  0.00  0.00    +0.056 N 
ATOM     19  O   UNL     1       6.019  -0.188   3.819  0.00  0.00    -0.126 OA
ATOM     20  O   UNL     1       4.475  -1.419   4.561  0.00  0.00    -0.126 OA
ENDBRANCH  17  18
ENDBRANCH  11  14
ENDBRANCH   1  11
BRANCH   5  21
ATOM     21  C   UNL     1      -2.633   1.616   2.609  0.00  0.00    +0.190 C 
BRANCH  21  22
ATOM     22  O   UNL     1      -1.937   1.051   3.721  0.00  0.00    -0.392 OA
ATOM     23  H   UNL     1      -2.231   1.316   4.747  0.00  0.00    +0.210 HD
ENDBRANCH  21  22
ENDBRANCH   5  21
BRANCH   3  24
ATOM     24  O   UNL     1      -2.926   1.636  -2.299  0.00  0.00    -0.340 OA
BRANCH  24  25
ATOM     25  C   UNL     1      -2.900   0.799  -3.456  0.00  0.00    +0.282 C 
ATOM     26  C   UNL     1      -3.479   1.561  -4.651  0.00  0.00    +0.201 C 
ATOM     27  C   UNL     1      -3.503   0.637  -5.873  0.00  0.00    +0.179 C 
ATOM     28  C   UNL     1      -4.315  -0.617  -5.535  0.00  0.00    +0.177 C 
ATOM     29  C   UNL     1      -3.704  -1.295  -4.306  0.00  0.00    +0.178 C 
ATOM     30  O   UNL     1      -3.683  -0.372  -3.215  0.00  0.00    -0.341 OA
BRANCH  28  31
ATOM     31  O   UNL     1      -5.668  -0.249  -5.256  0.00  0.00    -0.386 OA
ATOM     32  H   UNL     1      -6.404  -1.022  -4.991  0.00  0.00    +0.210 HD
ENDBRANCH  28  31
BRANCH  27  33
ATOM     33  O   UNL     1      -4.110   1.317  -6.974  0.00  0.00    -0.386 OA
ATOM     34  H   UNL     1      -4.216   0.808  -7.943  0.00  0.00    +0.210 HD
ENDBRANCH  27  33
BRANCH  26  35
ATOM     35  O   UNL     1      -4.809   1.986  -4.347  0.00  0.00    -0.384 OA
ATOM     36  H   UNL     1      -5.388   2.553  -5.091  0.00  0.00    +0.210 HD
ENDBRANCH  26  35
BRANCH  29  37
ATOM     37  C   UNL     1      -4.545  -2.515  -3.925  0.00  0.00    +0.190 C 
BRANCH  37  38
ATOM     38  O   UNL     1      -3.912  -3.214  -2.852  0.00  0.00    -0.392 OA
ATOM     39  H   UNL     1      -4.372  -4.125  -2.441  0.00  0.00    +0.210 HD
ENDBRANCH  37  38
ENDBRANCH  29  37
ENDBRANCH  24  25
ENDBRANCH   3  24
TORSDOF 14
