REMARK  Name = ZINC22276550
REMARK  12 active torsions:
REMARK  status: ('A' for Active; 'I' for Inactive)
REMARK    1  A    between atoms: C_1  and  C_2
REMARK    2  A    between atoms: C_2  and  C_3
REMARK    3  A    between atoms: C_3  and  C_4
REMARK    4  A    between atoms: C_4  and  C_5
REMARK    5  A    between atoms: C_5  and  C_7
REMARK    6  A    between atoms: C_5  and  N_21
REMARK    7  A    between atoms: N_9  and  C_10
REMARK    8  A    between atoms: C_10  and  C_11
REMARK    9  A    between atoms: C_16  and  C_17
REMARK   10  A    between atoms: C_17  and  N_18
REMARK   11  A    between atoms: N_18  and  C_19
REMARK   12  A    between atoms: N_18  and  C_20
REMARK                            x       y       z     vdW  Elec       q    Type
REMARK                         _______ _______ _______ _____ _____    ______ ____
ROOT
ATOM      1  C   UNL     1      -1.103   0.782  -0.428  0.00  0.00    +0.158 C 
ENDROOT
BRANCH   1   2
ATOM      2  N   UNL     1       0.157   0.090  -0.714  0.00  0.00    -0.316 N 
ATOM      3  C   UNL     1       1.357   0.741  -0.534  0.00  0.00    +0.150 C 
ATOM      4  N   UNL     1       1.381   1.963  -0.105  0.00  0.00    -0.113 NA
ATOM      5  S   UNL     1       2.998   2.386  -0.022  0.00  0.00    +0.101 S 
ATOM      6  O   UNL     1       3.238   3.378  -1.010  0.00  0.00    -0.146 OA
ATOM      7  O   UNL     1       3.332   2.551   1.350  0.00  0.00    -0.146 OA
ATOM      8  C   UNL     1       3.737   0.876  -0.581  0.00  0.00    +0.123 A 
ATOM      9  C   UNL     1       2.626   0.054  -0.819  0.00  0.00    +0.043 A 
ATOM     10  C   UNL     1       2.873  -1.244  -1.291  0.00  0.00    +0.013 A 
ATOM     11  C   UNL     1       4.165  -1.675  -1.494  0.00  0.00    +0.001 A 
ATOM     12  C   UNL     1       5.241  -0.843  -1.245  0.00  0.00    +0.002 A 
ATOM     13  C   UNL     1       5.016   0.446  -0.783  0.00  0.00    +0.030 A 
ATOM     14  H   UNL     1       0.143  -0.950  -1.073  0.00  0.00    +0.148 HD
ENDBRANCH   1   2
BRANCH   1  15
ATOM     15  C   UNL     1      -2.211   0.166  -1.242  0.00  0.00    +0.234 C 
ATOM     16  O   UNL     1      -1.973  -0.760  -1.988  0.00  0.00    -0.274 OA
ATOM     17  N   UNL     1      -3.467   0.644  -1.141  0.00  0.00    -0.310 N 
ATOM     18  H   UNL     1      -3.683   1.484  -0.465  0.00  0.00    +0.149 HD
BRANCH  17  19
ATOM     19  C   UNL     1      -4.544   0.045  -1.933  0.00  0.00    +0.139 C 
BRANCH  19  20
ATOM     20  C   UNL     1      -5.840   0.757  -1.639  0.00  0.00    -0.029 A 
ATOM     21  C   UNL     1      -6.748   0.203  -0.756  0.00  0.00    +0.005 A 
ATOM     22  C   UNL     1      -7.934   0.858  -0.482  0.00  0.00    +0.000 A 
ATOM     23  C   UNL     1      -8.216   2.063  -1.099  0.00  0.00    +0.000 A 
ATOM     24  C   UNL     1      -7.310   2.615  -1.985  0.00  0.00    +0.002 A 
ATOM     25  C   UNL     1      -6.122   1.962  -2.255  0.00  0.00    -0.059 A 
BRANCH  25  26
ATOM     26  C   UNL     1      -5.134   2.563  -3.221  0.00  0.00    -0.043 C 
BRANCH  26  27
ATOM     27  N   UNL     1      -4.030   3.179  -2.474  0.00  0.00    +0.379 N 
ATOM     28  C   UNL     1      -2.879   3.435  -3.350  0.00  0.00    -0.096 C 
ATOM     29  C   UNL     1      -4.469   4.412  -1.807  0.00  0.00    -0.096 C 
ATOM     30  H   UNL     1      -3.711   2.469  -1.696  0.00  0.00    -0.082 HD
ENDBRANCH  26  27
ENDBRANCH  25  26
ENDBRANCH  19  20
ENDBRANCH  17  19
ENDBRANCH   1  15
BRANCH   1  31
ATOM     31  C   UNL     1      -1.430   0.651   1.061  0.00  0.00    +0.032 C 
BRANCH  31  32
ATOM     32  C   UNL     1      -0.368   1.384   1.883  0.00  0.00    +0.002 C 
BRANCH  32  34
ATOM     33  C   UNL     1       0.365   1.987   4.194  0.00  0.00    +0.004 C 
ATOM     34  C   UNL     1      -0.696   1.253   3.372  0.00  0.00    -0.003 C 
ENDBRANCH  32  34
ENDBRANCH  31  32
ENDBRANCH   1  31
TORSDOF 9
