REMARK  Name = ZINC34749769
REMARK  10 active torsions:
REMARK  status: ('A' for Active; 'I' for Inactive)
REMARK    1  A    between atoms: C_1  and  C_2
REMARK    2  A    between atoms: C_2  and  N_3
REMARK    3  A    between atoms: N_3  and  C_4
REMARK    4  A    between atoms: C_4  and  C_5
REMARK    5  A    between atoms: C_6  and  C_8
REMARK    6  A    between atoms: C_8  and  N_9
REMARK    7  A    between atoms: C_13  and  C_33
REMARK    8  A    between atoms: N_22  and  C_25
REMARK    9  A    between atoms: C_25  and  C_26
REMARK   10  A    between atoms: C_26  and  C_27
REMARK                            x       y       z     vdW  Elec       q    Type
REMARK                         _______ _______ _______ _____ _____    ______ ____
ROOT
ATOM      1  N   UNL     1      -3.948  -1.472   2.550  0.00  0.00    -0.271 N 
ATOM      2  C   UNL     1      -3.833  -2.680   3.131  0.00  0.00    +0.265 A 
ATOM      3  O   UNL     1      -3.447  -3.640   2.487  0.00  0.00    -0.267 OA
ATOM      4  C   UNL     1      -4.169  -2.823   4.513  0.00  0.00    +0.080 A 
ATOM      5  C   UNL     1      -4.126  -4.016   5.353  0.00  0.00    +0.004 A 
ATOM      6  C   UNL     1      -4.495  -3.911   6.651  0.00  0.00    +0.056 A 
ATOM      7  S   UNL     1      -4.925  -2.190   6.822  0.00  0.00    -0.076 S 
ATOM      8  C   UNL     1      -4.603  -1.654   5.162  0.00  0.00    +0.118 A 
ATOM      9  N   UNL     1      -4.696  -0.490   4.528  0.00  0.00    -0.208 NA
ATOM     10  C   UNL     1      -4.373  -0.385   3.256  0.00  0.00    +0.202 A 
ATOM     11  N   UNL     1      -4.472   0.832   2.630  0.00  0.00    -0.304 N 
ATOM     12  C   UNL     1      -5.720   1.243   1.967  0.00  0.00    +0.089 C 
ATOM     13  C   UNL     1      -6.095   2.643   2.463  0.00  0.00    -0.060 C 
ATOM     14  N   UNL     1      -4.965   3.557   2.248  0.00  0.00    +0.382 N 
ATOM     15  C   UNL     1      -3.822   3.140   3.069  0.00  0.00    -0.060 C 
ATOM     16  C   UNL     1      -3.336   1.766   2.609  0.00  0.00    +0.089 C 
ATOM     17  H   UNL     1      -4.702   3.540   1.274  0.00  0.00    -0.082 HD
ENDROOT
BRANCH   5  18
ATOM     18  C   UNL     1      -3.687  -5.317   4.795  0.00  0.00    -0.017 A 
ATOM     19  C   UNL     1      -4.239  -5.790   3.606  0.00  0.00    +0.008 A 
ATOM     20  C   UNL     1      -3.826  -7.002   3.091  0.00  0.00    +0.001 A 
ATOM     21  C   UNL     1      -2.867  -7.747   3.753  0.00  0.00    +0.000 A 
ATOM     22  C   UNL     1      -2.316  -7.283   4.934  0.00  0.00    +0.001 A 
ATOM     23  C   UNL     1      -2.717  -6.069   5.455  0.00  0.00    +0.008 A 
ENDBRANCH   5  18
BRANCH   1  24
ATOM     24  C   UNL     1      -3.605  -1.320   1.134  0.00  0.00    +0.224 C 
BRANCH  24  26
ATOM     25  N   UNL     1      -1.575  -0.920  -0.222  0.00  0.00    -0.301 N 
ATOM     26  C   UNL     1      -2.122  -1.089   0.998  0.00  0.00    +0.236 C 
ATOM     27  O   UNL     1      -1.421  -1.054   1.987  0.00  0.00    -0.274 OA
BRANCH  25  29
ATOM     28  C   UNL     1       0.156   0.806  -0.298  0.00  0.00    +0.024 C 
ATOM     29  C   UNL     1      -0.133  -0.695  -0.353  0.00  0.00    +0.104 C 
ENDBRANCH  25  29
BRANCH  25  30
ATOM     30  C   UNL     1      -2.422  -0.962  -1.416  0.00  0.00    +0.104 C 
ATOM     31  C   UNL     1      -2.504  -2.399  -1.933  0.00  0.00    +0.024 C 
ENDBRANCH  25  30
ENDBRANCH  24  26
ENDBRANCH   1  24
BRANCH  14  32
ATOM     32  C   UNL     1      -5.362   4.921   2.621  0.00  0.00    -0.074 C 
BRANCH  32  33
ATOM     33  C   UNL     1      -4.231   5.893   2.281  0.00  0.00    +0.016 C 
BRANCH  33  34
ATOM     34  C   UNL     1      -4.638   7.292   2.664  0.00  0.00    -0.049 A 
ATOM     35  C   UNL     1      -5.297   8.094   1.751  0.00  0.00    +0.003 A 
ATOM     36  C   UNL     1      -5.671   9.378   2.102  0.00  0.00    +0.000 A 
ATOM     37  C   UNL     1      -5.387   9.859   3.366  0.00  0.00    +0.000 A 
ATOM     38  C   UNL     1      -4.729   9.057   4.279  0.00  0.00    +0.000 A 
ATOM     39  C   UNL     1      -4.359   7.772   3.930  0.00  0.00    +0.003 A 
ENDBRANCH  33  34
ENDBRANCH  32  33
ENDBRANCH  14  32
TORSDOF 8
