REMARK  Name = ZINC63209300
REMARK  4 active torsions:
REMARK  status: ('A' for Active; 'I' for Inactive)
REMARK    1  A    between atoms: C_3  and  S_6
REMARK    2  A    between atoms: S_6  and  N_9
REMARK    3  A    between atoms: N_9  and  C_10
REMARK    4  A    between atoms: C_15  and  N_16
REMARK                            x       y       z     vdW  Elec       q    Type
REMARK                         _______ _______ _______ _____ _____    ______ ____
ROOT
ATOM      1  C   UNL     1       5.765   2.549   1.852  0.00  0.00    +0.098 A 
ATOM      2  C   UNL     1       6.641   2.879   0.829  0.00  0.00    +0.067 A 
ATOM      3  C   UNL     1       7.914   3.334   1.128  0.00  0.00    +0.125 A 
ATOM      4  C   UNL     1       8.314   3.461   2.447  0.00  0.00    +0.040 A 
ATOM      5  C   UNL     1       7.446   3.134   3.472  0.00  0.00    +0.027 A 
ATOM      6  C   UNL     1       6.168   2.683   3.180  0.00  0.00    +0.050 A 
ATOM      7  F   UNL     1       8.767   3.655   0.131  0.00  0.00    -0.205 F 
ENDROOT
BRANCH   6   8
ATOM      8  N   UNL     1       5.284   2.356   4.218  0.00  0.00    -0.356 N 
ATOM      9  H   UNL     1       4.391   2.037   4.013  0.00  0.00    +0.142 HD
ATOM     10  H   UNL     1       5.565   2.449   5.142  0.00  0.00    +0.142 HD
ENDBRANCH   6   8
BRANCH   1  11
ATOM     11  N   UNL     1       4.477   2.089   1.552  0.00  0.00    -0.095 NA
BRANCH  11  12
ATOM     12  S   UNL     1       4.001   1.932  -0.026  0.00  0.00    +0.098 S 
ATOM     13  O   UNL     1       4.799   0.900  -0.590  0.00  0.00    -0.148 OA
ATOM     14  O   UNL     1       3.957   3.244  -0.570  0.00  0.00    -0.148 OA
BRANCH  12  17
ATOM     15  C   UNL     1      -0.016   1.351   0.009  0.00  0.00    +0.010 A 
ATOM     16  C   UNL     1       1.183   2.038   0.002  0.00  0.00    +0.037 A 
ATOM     17  C   UNL     1       2.343   1.336  -0.013  0.00  0.00    +0.148 A 
ATOM     18  S   UNL     1       1.754  -0.349  -0.017  0.00  0.00    -0.077 S 
ATOM     19  C   UNL     1       0.002  -0.004   0.002  0.00  0.00    +0.047 A 
ENDBRANCH  12  17
ENDBRANCH  11  12
ENDBRANCH   1  11
TORSDOF 4
