REMARK  Name = ZINC11612334
REMARK  11 active torsions:
REMARK  status: ('A' for Active; 'I' for Inactive)
REMARK    1  A    between atoms: C_5  and  C_13
REMARK    2  A    between atoms: N_14  and  C_15
REMARK    3  A    between atoms: C_15  and  C_16
REMARK    4  A    between atoms: C_16  and  O_17
REMARK    5  A    between atoms: O_17  and  C_18
REMARK    6  A    between atoms: C_18  and  C_19
REMARK    7  A    between atoms: C_19  and  O_20
REMARK    8  A    between atoms: O_20  and  C_21
REMARK    9  A    between atoms: C_21  and  C_22
REMARK   10  A    between atoms: C_22  and  N_23
REMARK   11  A    between atoms: C_24  and  C_25
REMARK                            x       y       z     vdW  Elec       q    Type
REMARK                         _______ _______ _______ _____ _____    ______ ____
ROOT
ATOM      1  C   UNL     1       7.100  -4.772  -2.506  0.00  0.00    +0.188 C 
ENDROOT
BRANCH   1   2
ATOM      2  O   UNL     1       6.602  -4.462  -1.203  0.00  0.00    -0.376 OA
BRANCH   2   3
ATOM      3  C   UNL     1       5.267  -4.912  -0.969  0.00  0.00    +0.180 C 
BRANCH   3   4
ATOM      4  C   UNL     1       4.841  -4.528   0.450  0.00  0.00    +0.140 C 
BRANCH   4   6
ATOM      5  C   UNL     1       3.648  -2.479   0.780  0.00  0.00    +0.087 C 
ATOM      6  N   UNL     1       4.783  -3.069   0.564  0.00  0.00    -0.387 N 
ATOM      7  H   UNL     1       5.594  -2.544   0.479  0.00  0.00    +0.159 HD
BRANCH   5  12
ATOM      8  C   UNL     1       4.884   1.208  -2.529  0.00  0.00    +0.001 A 
ATOM      9  C   UNL     1       4.386   1.893  -1.467  0.00  0.00    +0.008 A 
ATOM     10  C   UNL     1       3.933   1.184  -0.333  0.00  0.00    -0.017 A 
ATOM     11  C   UNL     1       4.014  -0.278  -0.339  0.00  0.00    -0.009 A 
ATOM     12  C   UNL     1       3.570  -1.014   0.778  0.00  0.00    +0.006 A 
ATOM     13  C   UNL     1       3.050  -0.327   1.894  0.00  0.00    -0.009 A 
ATOM     14  C   UNL     1       2.975   1.136   1.885  0.00  0.00    -0.017 A 
ATOM     15  C   UNL     1       3.417   1.857   0.775  0.00  0.00    +0.017 A 
ATOM     16  C   UNL     1       2.450   1.795   3.017  0.00  0.00    +0.008 A 
ATOM     17  C   UNL     1       2.029   1.064   4.082  0.00  0.00    +0.001 A 
ATOM     18  C   UNL     1       2.101  -0.328   4.088  0.00  0.00    +0.001 A 
ATOM     19  C   UNL     1       2.597  -1.022   3.028  0.00  0.00    +0.009 A 
ATOM     20  C   UNL     1       4.540  -0.924  -1.471  0.00  0.00    +0.009 A 
ATOM     21  C   UNL     1       4.961  -0.184  -2.532  0.00  0.00    +0.001 A 
ENDBRANCH   5  12
ENDBRANCH   4   6
ENDBRANCH   3   4
ENDBRANCH   2   3
ENDBRANCH   1   2
BRANCH   1  22
ATOM     22  C   UNL     1       8.530  -4.245  -2.645  0.00  0.00    +0.188 C 
BRANCH  22  23
ATOM     23  O   UNL     1       9.385  -4.945  -1.738  0.00  0.00    -0.376 OA
BRANCH  23  24
ATOM     24  C   UNL     1      10.750  -4.527  -1.788  0.00  0.00    +0.180 C 
BRANCH  24  25
ATOM     25  C   UNL     1      11.569  -5.338  -0.781  0.00  0.00    +0.140 C 
BRANCH  25  26
ATOM     26  N   UNL     1      11.579  -6.747  -1.183  0.00  0.00    -0.387 N 
ATOM     27  C   UNL     1      12.693  -7.313  -1.535  0.00  0.00    +0.087 C 
ATOM     28  H   UNL     1      10.754  -7.257  -1.186  0.00  0.00    +0.159 HD
BRANCH  27  29
ATOM     29  C   UNL     1      12.687  -8.687  -2.048  0.00  0.00    +0.006 A 
ATOM     30  C   UNL     1      11.888  -9.030  -3.158  0.00  0.00    -0.009 A 
ATOM     31  C   UNL     1      11.888 -10.404  -3.665  0.00  0.00    -0.017 A 
ATOM     32  C   UNL     1      12.676 -11.381  -3.054  0.00  0.00    +0.017 A 
ATOM     33  C   UNL     1      13.470 -11.050  -1.955  0.00  0.00    -0.017 A 
ATOM     34  C   UNL     1      13.485  -9.678  -1.441  0.00  0.00    -0.009 A 
ATOM     35  C   UNL     1      14.300  -9.377  -0.336  0.00  0.00    +0.009 A 
ATOM     36  C   UNL     1      15.057 -10.356   0.227  0.00  0.00    +0.001 A 
ATOM     37  C   UNL     1      15.049 -11.661  -0.264  0.00  0.00    +0.001 A 
ATOM     38  C   UNL     1      14.275 -12.020  -1.321  0.00  0.00    +0.008 A 
ATOM     39  C   UNL     1      11.077 -10.715  -4.777  0.00  0.00    +0.008 A 
ATOM     40  C   UNL     1      10.322  -9.742  -5.349  0.00  0.00    +0.001 A 
ATOM     41  C   UNL     1      10.325  -8.435  -4.865  0.00  0.00    +0.001 A 
ATOM     42  C   UNL     1      11.083  -8.071  -3.796  0.00  0.00    +0.009 A 
ENDBRANCH  27  29
ENDBRANCH  25  26
ENDBRANCH  24  25
ENDBRANCH  23  24
ENDBRANCH  22  23
ENDBRANCH   1  22
TORSDOF 11
