REMARK  Name = ZINC39710892
REMARK  10 active torsions:
REMARK  status: ('A' for Active; 'I' for Inactive)
REMARK    1  A    between atoms: C_1  and  C_2
REMARK    2  A    between atoms: C_8  and  C_14
REMARK    3  A    between atoms: C_14  and  C_16
REMARK    4  A    between atoms: C_14  and  N_28
REMARK    5  A    between atoms: N_20  and  C_21
REMARK    6  A    between atoms: C_21  and  C_22
REMARK    7  A    between atoms: N_28  and  C_29
REMARK    8  A    between atoms: N_28  and  C_36
REMARK    9  A    between atoms: C_29  and  C_30
REMARK   10  A    between atoms: C_36  and  C_37
REMARK                            x       y       z     vdW  Elec       q    Type
REMARK                         _______ _______ _______ _____ _____    ______ ____
ROOT
ATOM      1  C   UNL     1      -1.448  -2.820   4.687  0.00  0.00    +0.019 C 
ENDROOT
BRANCH   1   9
ATOM      2  C   UNL     1      -1.267   0.111  -0.703  0.00  0.00    +0.045 C 
ATOM      3  C   UNL     1      -1.224  -1.357  -0.364  0.00  0.00    -0.029 A 
ATOM      4  C   UNL     1      -1.447  -2.280  -1.335  0.00  0.00    +0.005 A 
ATOM      5  C   UNL     1      -1.422  -3.653  -1.089  0.00  0.00    +0.001 A 
ATOM      6  C   UNL     1      -1.169  -4.144   0.152  0.00  0.00    +0.009 A 
ATOM      7  C   UNL     1      -0.920  -3.204   1.246  0.00  0.00    -0.007 A 
ATOM      8  C   UNL     1      -0.661  -3.652   2.507  0.00  0.00    -0.006 C 
ATOM      9  C   UNL     1      -0.415  -2.608   3.578  0.00  0.00    +0.092 C 
ATOM     10  C   UNL     1      -0.476  -1.156   3.160  0.00  0.00    +0.223 C 
ATOM     11  O   UNL     1      -0.285  -0.277   3.979  0.00  0.00    -0.275 OA
ATOM     12  N   UNL     1      -0.736  -0.846   1.902  0.00  0.00    -0.284 N 
ATOM     13  C   UNL     1      -0.948  -1.760   0.956  0.00  0.00    +0.043 A 
ATOM     14  H   UNL     1      -0.770   0.091   1.654  0.00  0.00    +0.155 HD
ENDBRANCH   1   9
BRANCH   1  15
ATOM     15  C   UNL     1      -2.827  -2.534   4.150  0.00  0.00    +0.139 A 
ATOM     16  N   UNL     1      -3.339  -1.355   3.897  0.00  0.00    -0.115 NA
ATOM     17  N   UNL     1      -4.536  -1.528   3.452  0.00  0.00    -0.023 NA
ATOM     18  N   UNL     1      -4.800  -2.788   3.415  0.00  0.00    -0.044 NA
ATOM     19  N   UNL     1      -3.769  -3.441   3.833  0.00  0.00    -0.226 N 
BRANCH  19  20
ATOM     20  C   UNL     1      -3.648  -4.897   3.943  0.00  0.00    +0.182 C 
BRANCH  20  21
ATOM     21  C   UNL     1      -4.111  -5.337   5.308  0.00  0.00    -0.026 A 
ATOM     22  C   UNL     1      -3.210  -5.409   6.354  0.00  0.00    +0.005 A 
ATOM     23  C   UNL     1      -3.635  -5.813   7.606  0.00  0.00    +0.000 A 
ATOM     24  C   UNL     1      -4.961  -6.144   7.812  0.00  0.00    +0.000 A 
ATOM     25  C   UNL     1      -5.863  -6.071   6.767  0.00  0.00    +0.000 A 
ATOM     26  C   UNL     1      -5.439  -5.663   5.516  0.00  0.00    +0.005 A 
ENDBRANCH  20  21
ENDBRANCH  19  20
ENDBRANCH   1  15
BRANCH   1  27
ATOM     27  N   UNL     1      -1.160  -1.911   5.805  0.00  0.00    +0.394 N 
ATOM     28  H   UNL     1      -1.110  -0.963   5.464  0.00  0.00    -0.080 HD
BRANCH  27  29
ATOM     29  C   UNL     1      -2.228  -2.016   6.808  0.00  0.00    -0.041 C 
BRANCH  29  30
ATOM     30  C   UNL     1      -1.997  -0.997   7.895  0.00  0.00    -0.064 A 
ATOM     31  C   UNL     1      -1.235  -1.326   9.001  0.00  0.00    +0.002 A 
ATOM     32  C   UNL     1      -1.024  -0.392   9.997  0.00  0.00    +0.000 A 
ATOM     33  C   UNL     1      -1.574   0.872   9.888  0.00  0.00    +0.000 A 
ATOM     34  C   UNL     1      -2.334   1.201   8.782  0.00  0.00    +0.000 A 
ATOM     35  C   UNL     1      -2.542   0.268   7.783  0.00  0.00    +0.002 A 
ENDBRANCH  29  30
ENDBRANCH  27  29
BRANCH  27  36
ATOM     36  C   UNL     1       0.124  -2.279   6.416  0.00  0.00    -0.002 C 
BRANCH  36  37
ATOM     37  C   UNL     1       1.240  -1.540   5.724  0.00  0.00    +0.089 A 
ATOM     38  C   UNL     1       1.619  -0.274   5.975  0.00  0.00    +0.042 A 
ATOM     39  C   UNL     1       2.695   0.012   5.103  0.00  0.00    +0.041 A 
ATOM     40  C   UNL     1       2.909  -1.097   4.372  0.00  0.00    +0.195 A 
ATOM     41  O   UNL     1       2.029  -2.035   4.757  0.00  0.00    -0.470 OA
ENDBRANCH  36  37
ENDBRANCH  27  36
ENDBRANCH   1  27
TORSDOF 9
