REMARK  Name = ZINC64503440
REMARK  8 active torsions:
REMARK  status: ('A' for Active; 'I' for Inactive)
REMARK    1  A    between atoms: C_4  and  C_7
REMARK    2  A    between atoms: C_11  and  C_14
REMARK    3  A    between atoms: C_19  and  O_20
REMARK    4  A    between atoms: O_20  and  C_21
REMARK    5  A    between atoms: C_21  and  C_22
REMARK    6  A    between atoms: N_24  and  C_25
REMARK    7  A    between atoms: C_25  and  C_26
REMARK    8  A    between atoms: C_26  and  C_27
REMARK                            x       y       z     vdW  Elec       q    Type
REMARK                         _______ _______ _______ _____ _____    ______ ____
ROOT
ATOM      1  C   UNL     1       4.830  -3.128   2.299  0.00  0.00    +0.039 A 
ATOM      2  C   UNL     1       4.112  -4.293   2.114  0.00  0.00    +0.011 A 
ATOM      3  C   UNL     1       3.942  -5.176   3.165  0.00  0.00    +0.001 A 
ATOM      4  C   UNL     1       4.491  -4.895   4.403  0.00  0.00    +0.004 A 
ATOM      5  C   UNL     1       5.211  -3.732   4.592  0.00  0.00    +0.046 A 
ATOM      6  C   UNL     1       5.387  -2.846   3.538  0.00  0.00    +0.128 A 
ENDROOT
BRANCH   1  10
ATOM      7  C   UNL     1       3.711  -0.707  -0.038  0.00  0.00    +0.233 C 
ATOM      8  N   UNL     1       3.561  -2.035  -0.689  0.00  0.00    -0.223 NA
ATOM      9  N   UNL     1       4.660  -2.825  -0.121  0.00  0.00    -0.223 NA
ATOM     10  C   UNL     1       5.014  -2.166   1.154  0.00  0.00    +0.237 C 
ATOM     11  O   UNL     1       4.128  -1.040   1.306  0.00  0.00    -0.333 OA
ATOM     12  H   UNL     1       3.651  -1.959  -1.691  0.00  0.00    +0.144 HD
ATOM     13  H   UNL     1       5.450  -2.848  -0.748  0.00  0.00    +0.144 HD
BRANCH   7  17
ATOM     14  C   UNL     1      -0.017   1.378   0.010  0.00  0.00    +0.000 A 
ATOM     15  C   UNL     1       1.171   2.086   0.002  0.00  0.00    +0.000 A 
ATOM     16  C   UNL     1       2.377   1.411  -0.013  0.00  0.00    +0.007 A 
ATOM     17  C   UNL     1       2.396   0.029  -0.020  0.00  0.00    -0.003 A 
ATOM     18  C   UNL     1       1.208  -0.679  -0.012  0.00  0.00    +0.007 A 
ATOM     19  C   UNL     1       0.002  -0.004   0.002  0.00  0.00    +0.000 A 
ENDBRANCH   7  17
ENDBRANCH   1  10
BRANCH   6  20
ATOM     20  O   UNL     1       6.099  -1.704   3.721  0.00  0.00    -0.482 OA
BRANCH  20  21
ATOM     21  C   UNL     1       6.643  -1.479   5.023  0.00  0.00    +0.324 C 
BRANCH  21  22
ATOM     22  C   UNL     1       7.394  -0.173   5.035  0.00  0.00    +0.251 C 
ATOM     23  O   UNL     1       7.458   0.500   4.028  0.00  0.00    -0.272 OA
ATOM     24  N   UNL     1       7.996   0.248   6.166  0.00  0.00    -0.312 N 
ATOM     25  H   UNL     1       7.945  -0.290   6.971  0.00  0.00    +0.149 HD
BRANCH  24  26
ATOM     26  C   UNL     1       8.726   1.518   6.178  0.00  0.00    +0.108 C 
BRANCH  26  27
ATOM     27  C   UNL     1       9.309   1.758   7.572  0.00  0.00    +0.052 C 
BRANCH  27  28
ATOM     28  C   UNL     1      10.060   3.064   7.584  0.00  0.00    -0.040 C 
ATOM     29  C   UNL     1       9.588   4.270   7.974  0.00  0.00    -0.001 A 
ATOM     30  C   UNL     1       8.284   4.710   8.483  0.00  0.00    +0.010 A 
ATOM     31  C   UNL     1       8.107   6.014   8.796  0.00  0.00    +0.001 A 
ATOM     32  C   UNL     1       9.136   6.954   8.646  0.00  0.00    +0.002 A 
ATOM     33  C   UNL     1      10.362   6.625   8.184  0.00  0.00    +0.026 A 
ATOM     34  C   UNL     1      10.659   5.282   7.825  0.00  0.00    +0.043 A 
ATOM     35  N   UNL     1      11.750   4.723   7.362  0.00  0.00    -0.380 N 
ATOM     36  C   UNL     1      11.497   3.291   7.169  0.00  0.00    +0.144 C 
ATOM     37  H   UNL     1      12.586   5.179   7.180  0.00  0.00    +0.160 HD
ENDBRANCH  27  28
ENDBRANCH  26  27
ENDBRANCH  24  26
ENDBRANCH  21  22
ENDBRANCH  20  21
ENDBRANCH   6  20
TORSDOF 8
