REMARK  Name = ZINC35378964
REMARK  9 active torsions:
REMARK  status: ('A' for Active; 'I' for Inactive)
REMARK    1  A    between atoms: C_1  and  C_2
REMARK    2  A    between atoms: C_7  and  S_8
REMARK    3  A    between atoms: S_8  and  N_11
REMARK    4  A    between atoms: C_15  and  C_18
REMARK    5  A    between atoms: C_23  and  N_26
REMARK    6  A    between atoms: N_26  and  C_27
REMARK    7  A    between atoms: N_26  and  C_28
REMARK    8  A    between atoms: C_28  and  C_29
REMARK    9  A    between atoms: C_28  and  C_30
REMARK                            x       y       z     vdW  Elec       q    Type
REMARK                         _______ _______ _______ _____ _____    ______ ____
ROOT
ATOM      1  N   UNL     1       1.522   0.519   1.994  0.00  0.00    -0.176 NA
ATOM      2  C   UNL     1       2.822  -0.141   2.174  0.00  0.00    +0.109 C 
ATOM      3  C   UNL     1       3.733   0.237   1.001  0.00  0.00    +0.018 C 
ATOM      4  C   UNL     1       3.811   1.762   0.892  0.00  0.00    +0.015 C 
ATOM      5  C   UNL     1       2.416   2.328   0.621  0.00  0.00    +0.091 C 
ATOM      6  C   UNL     1       1.490   1.973   1.783  0.00  0.00    +0.122 C 
ENDROOT
BRANCH   5   7
ATOM      7  C   UNL     1       2.499   3.826   0.480  0.00  0.00    +0.220 C 
ATOM      8  O   UNL     1       2.263   4.538   1.433  0.00  0.00    -0.275 OA
ATOM      9  N   UNL     1       2.837   4.374  -0.704  0.00  0.00    -0.301 N 
ATOM     10  C   UNL     1       3.014   3.532  -1.895  0.00  0.00    +0.106 C 
ATOM     11  C   UNL     1       4.392   3.817  -2.499  0.00  0.00    +0.004 C 
ATOM     12  C   UNL     1       4.528   5.318  -2.765  0.00  0.00    -0.066 C 
ATOM     13  C   UNL     1       4.412   6.083  -1.445  0.00  0.00    +0.004 C 
ATOM     14  C   UNL     1       3.028   5.825  -0.830  0.00  0.00    +0.106 C 
BRANCH  12  15
ATOM     15  N   UNL     1       5.836   5.590  -3.375  0.00  0.00    +0.381 N 
ATOM     16  C   UNL     1       6.902   5.237  -2.428  0.00  0.00    -0.095 C 
ATOM     17  H   UNL     1       5.936   5.040  -4.215  0.00  0.00    -0.081 HD
BRANCH  15  18
ATOM     18  C   UNL     1       5.932   7.018  -3.710  0.00  0.00    -0.075 C 
ATOM     19  C   UNL     1       7.241   7.279  -4.459  0.00  0.00    -0.014 C 
ATOM     20  C   UNL     1       4.750   7.415  -4.596  0.00  0.00    -0.014 C 
ENDBRANCH  15  18
ENDBRANCH  12  15
ENDBRANCH   5   7
BRANCH   1  21
ATOM     21  S   UNL     1       0.118  -0.360   2.021  0.00  0.00    +0.061 S 
ATOM     22  O   UNL     1      -0.934   0.562   2.271  0.00  0.00    -0.153 OA
ATOM     23  O   UNL     1       0.360  -1.485   2.855  0.00  0.00    -0.153 OA
BRANCH  21  30
ATOM     24  C   UNL     1      -0.603   1.355  -0.357  0.00  0.00    +0.046 C 
ATOM     25  C   UNL     1      -0.464  -0.120  -0.633  0.00  0.00    -0.022 A 
ATOM     26  C   UNL     1      -0.660  -0.603  -1.915  0.00  0.00    +0.032 A 
ATOM     27  C   UNL     1      -0.532  -1.958  -2.167  0.00  0.00    +0.076 A 
ATOM     28  C   UNL     1      -0.207  -2.832  -1.130  0.00  0.00    +0.144 A 
ATOM     29  C   UNL     1      -0.012  -2.341   0.149  0.00  0.00    +0.076 A 
ATOM     30  C   UNL     1      -0.136  -0.985   0.393  0.00  0.00    +0.112 A 
ATOM     31  O   UNL     1      -0.088  -4.162  -1.389  0.00  0.00    -0.481 OA
ATOM     32  C   UNL     1      -0.937  -4.697  -2.407  0.00  0.00    +0.325 C 
ATOM     33  C   UNL     1      -0.908  -3.798  -3.616  0.00  0.00    +0.255 C 
ATOM     34  O   UNL     1      -1.047  -4.266  -4.726  0.00  0.00    -0.272 OA
ATOM     35  N   UNL     1      -0.726  -2.469  -3.458  0.00  0.00    -0.280 N 
ATOM     36  H   UNL     1      -0.730  -1.876  -4.226  0.00  0.00    +0.155 HD
ENDBRANCH  21  30
ENDBRANCH   1  21
TORSDOF 5
