REMARK  Name = ZINC44023440
REMARK  5 active torsions:
REMARK  status: ('A' for Active; 'I' for Inactive)
REMARK    1  A    between atoms: C_1  and  C_2
REMARK    2  A    between atoms: C_5  and  C_24
REMARK    3  A    between atoms: C_6  and  N_8
REMARK    4  A    between atoms: N_8  and  C_9
REMARK    5  A    between atoms: N_13  and  C_18
REMARK                            x       y       z     vdW  Elec       q    Type
REMARK                         _______ _______ _______ _____ _____    ______ ____
ROOT
ATOM      1  C   UNL     1       0.109  -2.048   3.540  0.00  0.00    +0.109 A 
ATOM      2  C   UNL     1       0.212  -2.659   4.758  0.00  0.00    +0.112 A 
ATOM      3  C   UNL     1       0.268  -1.868   5.917  0.00  0.00    +0.259 A 
ATOM      4  O   UNL     1       0.360  -2.392   7.014  0.00  0.00    -0.267 OA
ATOM      5  N   UNL     1       0.218  -0.525   5.808  0.00  0.00    -0.258 N 
ATOM      6  C   UNL     1       0.116   0.060   4.601  0.00  0.00    +0.331 A 
ATOM      7  O   UNL     1       0.072   1.273   4.526  0.00  0.00    -0.246 OA
ATOM      8  N   UNL     1       0.067  -0.676   3.476  0.00  0.00    -0.296 N 
ATOM      9  H   UNL     1      -0.003  -0.235   2.614  0.00  0.00    +0.172 HD
ENDROOT
BRANCH   5  10
ATOM     10  C   UNL     1       0.275   0.303   7.015  0.00  0.00    +0.095 C 
ATOM     11  C   UNL     1       1.494   1.225   6.944  0.00  0.00    +0.025 C 
ATOM     12  C   UNL     1       1.553   2.091   8.204  0.00  0.00    +0.002 C 
ATOM     13  C   UNL     1       0.281   2.934   8.304  0.00  0.00    +0.000 C 
ATOM     14  C   UNL     1      -0.938   2.012   8.376  0.00  0.00    +0.002 C 
ATOM     15  C   UNL     1      -0.998   1.147   7.115  0.00  0.00    +0.025 C 
ENDBRANCH   5  10
BRANCH   1  16
ATOM     16  N   UNL     1       0.053  -2.797   2.392  0.00  0.00    -0.300 N 
ATOM     17  H   UNL     1       0.765  -3.422   2.185  0.00  0.00    +0.154 HD
BRANCH  16  23
ATOM     18  C   UNL     1      -4.352  -0.858   1.389  0.00  0.00    +0.044 C 
ATOM     19  C   UNL     1      -3.180  -1.725   1.007  0.00  0.00    -0.049 A 
ATOM     20  C   UNL     1      -3.176  -2.385  -0.208  0.00  0.00    +0.004 A 
ATOM     21  C   UNL     1      -2.102  -3.182  -0.562  0.00  0.00    +0.005 A 
ATOM     22  C   UNL     1      -1.030  -3.320   0.298  0.00  0.00    -0.029 A 
ATOM     23  C   UNL     1      -1.031  -2.659   1.519  0.00  0.00    +0.036 A 
ATOM     24  C   UNL     1      -2.109  -1.855   1.869  0.00  0.00    +0.027 A 
ATOM     25  C   UNL     1       0.140  -4.189  -0.089  0.00  0.00    +0.045 C 
ENDBRANCH  16  23
ENDBRANCH   1  16
TORSDOF 3
