REMARK  Name = ZINC00651001
REMARK  14 active torsions:
REMARK  status: ('A' for Active; 'I' for Inactive)
REMARK    1  A    between atoms: C_1  and  C_2
REMARK    2  A    between atoms: C_4  and  C_39
REMARK    3  A    between atoms: C_5  and  C_20
REMARK    4  A    between atoms: C_7  and  C_8
REMARK    5  A    between atoms: C_8  and  O_9
REMARK    6  A    between atoms: O_9  and  C_10
REMARK    7  A    between atoms: C_11  and  O_18
REMARK    8  A    between atoms: C_15  and  O_16
REMARK    9  A    between atoms: O_16  and  C_17
REMARK   10  A    between atoms: O_18  and  C_19
REMARK   11  A    between atoms: C_29  and  C_37
REMARK   12  A    between atoms: C_30  and  N_36
REMARK   13  A    between atoms: C_31  and  C_32
REMARK   14  A    between atoms: C_31  and  C_34
REMARK                            x       y       z     vdW  Elec       q    Type
REMARK                         _______ _______ _______ _____ _____    ______ ____
ROOT
ATOM      1  C   UNL     1      -0.477   1.460  -0.013  0.00  0.00    +0.044 C 
ATOM      2  C   UNL     1      -0.217  -0.025  -0.009  0.00  0.00    -0.044 A 
ATOM      3  C   UNL     1      -0.275  -0.740  -1.191  0.00  0.00    +0.007 A 
ATOM      4  C   UNL     1      -0.037  -2.101  -1.187  0.00  0.00    -0.047 A 
ATOM      5  C   UNL     1       0.259  -2.748  -0.002  0.00  0.00    -0.038 A 
ATOM      6  C   UNL     1       0.318  -2.033   1.180  0.00  0.00    +0.011 A 
ATOM      7  C   UNL     1       0.084  -0.670   1.175  0.00  0.00    -0.007 A 
ATOM      8  C   UNL     1      -0.101  -2.881  -2.475  0.00  0.00    +0.044 C 
ENDROOT
BRANCH   5   9
ATOM      9  C   UNL     1       0.518  -4.233   0.003  0.00  0.00    +0.066 C 
ATOM     10  C   UNL     1       1.840  -4.520   0.717  0.00  0.00    +0.030 C 
ATOM     11  C   UNL     1       2.967  -3.670   0.179  0.00  0.00    +0.009 C 
ATOM     12  C   UNL     1       3.827  -4.434  -0.825  0.00  0.00    +0.005 C 
ATOM     13  C   UNL     1       4.403  -5.673  -0.125  0.00  0.00    +0.027 C 
ATOM     14  C   UNL     1       3.245  -6.534   0.311  0.00  0.00    -0.022 C 
ATOM     15  C   UNL     1       2.105  -5.995   0.642  0.00  0.00    -0.029 C 
ATOM     16  C   UNL     1       0.964  -6.899   0.943  0.00  0.00    +0.074 C 
ATOM     17  C   UNL     1      -0.294  -6.394   0.975  0.00  0.00    +0.054 C 
ATOM     18  C   UNL     1      -0.614  -4.947   0.743  0.00  0.00    +0.188 C 
BRANCH  17  19
ATOM     19  N   UNL     1      -1.329  -7.250   1.231  0.00  0.00    -0.358 N 
ATOM     20  H   UNL     1      -1.153  -8.191   1.384  0.00  0.00    +0.142 HD
ATOM     21  H   UNL     1      -2.239  -6.916   1.260  0.00  0.00    +0.142 HD
ENDBRANCH  17  19
BRANCH  18  22
ATOM     22  C   UNL     1      -0.828  -4.290   2.042  0.00  0.00    +0.091 C 
ATOM     23  N   UNL     1      -0.994  -3.782   3.045  0.00  0.00    -0.194 NA
ENDBRANCH  18  22
BRANCH  18  24
ATOM     24  C   UNL     1      -1.847  -4.847  -0.054  0.00  0.00    +0.091 C 
ATOM     25  N   UNL     1      -2.799  -4.769  -0.670  0.00  0.00    -0.194 NA
ENDBRANCH  18  24
BRANCH  16  26
ATOM     26  C   UNL     1       1.191  -8.290   1.196  0.00  0.00    +0.101 C 
ATOM     27  N   UNL     1       1.371  -9.394   1.397  0.00  0.00    -0.191 NA
ENDBRANCH  16  26
ENDBRANCH   5   9
BRANCH   7  28
ATOM     28  C   UNL     1       0.154   0.111   2.462  0.00  0.00    +0.265 C 
BRANCH  28  29
ATOM     29  O   UNL     1       0.479  -0.772   3.538  0.00  0.00    -0.480 OA
BRANCH  29  30
ATOM     30  C   UNL     1       0.581  -0.223   4.779  0.00  0.00    +0.204 A 
ATOM     31  C   UNL     1       1.803   0.268   5.225  0.00  0.00    +0.165 A 
ATOM     32  C   UNL     1       1.903   0.827   6.490  0.00  0.00    +0.049 A 
ATOM     33  C   UNL     1       0.790   0.896   7.307  0.00  0.00    +0.007 A 
ATOM     34  C   UNL     1      -0.427   0.409   6.867  0.00  0.00    +0.049 A 
ATOM     35  C   UNL     1      -0.537  -0.145   5.601  0.00  0.00    +0.165 A 
BRANCH  35  36
ATOM     36  O   UNL     1      -1.735  -0.619   5.166  0.00  0.00    -0.491 OA
ATOM     37  C   UNL     1      -2.841  -0.507   6.064  0.00  0.00    +0.277 C 
ENDBRANCH  35  36
BRANCH  31  38
ATOM     38  O   UNL     1       2.898   0.199   4.423  0.00  0.00    -0.491 OA
ATOM     39  C   UNL     1       4.120   0.723   4.947  0.00  0.00    +0.277 C 
ENDBRANCH  31  38
ENDBRANCH  29  30
ENDBRANCH  28  29
ENDBRANCH   7  28
TORSDOF 10
