REMARK  Name = ZINC08876461
REMARK  10 active torsions:
REMARK  status: ('A' for Active; 'I' for Inactive)
REMARK    1  A    between atoms: C_1  and  C_2
REMARK    2  A    between atoms: C_2  and  C_3
REMARK    3  A    between atoms: C_3  and  C_5
REMARK    4  A    between atoms: C_3  and  N_6
REMARK    5  A    between atoms: C_7  and  C_9
REMARK    6  A    between atoms: C_9  and  C_11
REMARK    7  A    between atoms: C_9  and  N_15
REMARK    8  A    between atoms: C_11  and  C_13
REMARK    9  A    between atoms: C_11  and  C_14
REMARK   10  A    between atoms: C_16  and  C_18
REMARK                            x       y       z     vdW  Elec       q    Type
REMARK                         _______ _______ _______ _____ _____    ______ ____
ROOT
ATOM      1  C   UNL     1       6.465   0.212   0.344  0.00  0.00    +0.167 C 
ATOM      2  C   UNL     1       5.145   0.961   0.115  0.00  0.00    +0.069 C 
ATOM      3  C   UNL     1       5.376   2.450   0.150  0.00  0.00    -0.015 A 
ATOM      4  C   UNL     1       4.373   3.493   0.270  0.00  0.00    +0.003 A 
ATOM      5  C   UNL     1       2.982   3.453   0.403  0.00  0.00    +0.010 A 
ATOM      6  C   UNL     1       2.332   4.660   0.484  0.00  0.00    +0.001 A 
ATOM      7  C   UNL     1       3.012   5.866   0.444  0.00  0.00    +0.002 A 
ATOM      8  C   UNL     1       4.388   5.934   0.314  0.00  0.00    +0.026 A 
ATOM      9  C   UNL     1       5.074   4.725   0.227  0.00  0.00    +0.047 A 
ATOM     10  N   UNL     1       6.401   4.432   0.095  0.00  0.00    -0.356 N 
ATOM     11  H   UNL     1       7.114   5.087   0.038  0.00  0.00    +0.166 HD
ATOM     12  C   UNL     1       6.572   3.075   0.056  0.00  0.00    +0.046 A 
ATOM     13  C   UNL     1       7.880   2.331  -0.068  0.00  0.00    +0.155 C 
ATOM     14  N   UNL     1       7.519   0.929  -0.381  0.00  0.00    -0.273 N 
ATOM     15  C   UNL     1       8.272   0.515  -1.409  0.00  0.00    +0.248 C 
ATOM     16  O   UNL     1       8.375  -0.637  -1.783  0.00  0.00    -0.270 OA
ATOM     17  C   UNL     1       8.953   1.664  -2.014  0.00  0.00    +0.042 A 
ATOM     18  C   UNL     1       8.699   2.801  -1.221  0.00  0.00    -0.009 A 
ATOM     19  C   UNL     1       9.177   4.045  -1.569  0.00  0.00    +0.006 A 
ATOM     20  C   UNL     1       9.937   4.128  -2.732  0.00  0.00    +0.000 A 
ATOM     21  C   UNL     1      10.204   3.018  -3.508  0.00  0.00    +0.001 A 
ATOM     22  C   UNL     1       9.723   1.760  -3.176  0.00  0.00    +0.013 A 
ENDROOT
BRANCH   1  24
ATOM     23  N   UNL     1       6.210  -1.413  -1.505  0.00  0.00    -0.302 N 
ATOM     24  C   UNL     1       6.350  -1.196  -0.182  0.00  0.00    +0.235 C 
ATOM     25  O   UNL     1       6.384  -2.134   0.586  0.00  0.00    -0.274 OA
ATOM     26  H   UNL     1       6.184  -0.662  -2.119  0.00  0.00    +0.150 HD
BRANCH  23  27
ATOM     27  C   UNL     1       6.099  -2.781  -2.015  0.00  0.00    +0.161 C 
BRANCH  27  29
ATOM     28  N   UNL     1       6.936  -3.991  -4.004  0.00  0.00    -0.311 N 
ATOM     29  C   UNL     1       6.560  -2.821  -3.449  0.00  0.00    +0.234 C 
ATOM     30  O   UNL     1       6.592  -1.802  -4.105  0.00  0.00    -0.274 OA
ATOM     31  H   UNL     1       6.839  -4.817  -3.505  0.00  0.00    +0.149 HD
BRANCH  28  32
ATOM     32  C   UNL     1       7.490  -4.014  -5.359  0.00  0.00    +0.070 C 
ATOM     33  C   UNL     1       6.349  -4.067  -6.377  0.00  0.00    +0.028 C 
BRANCH  32  35
ATOM     34  C   UNL     1       9.589  -5.135  -4.595  0.00  0.00    +0.005 C 
ATOM     35  C   UNL     1       8.379  -5.248  -5.526  0.00  0.00    +0.018 C 
ENDBRANCH  32  35
ENDBRANCH  28  32
ENDBRANCH  27  29
BRANCH  27  36
ATOM     36  C   UNL     1       4.641  -3.238  -1.935  0.00  0.00    +0.012 C 
ATOM     37  C   UNL     1       4.194  -3.263  -0.472  0.00  0.00    +0.009 C 
ATOM     38  C   UNL     1       3.758  -2.267  -2.721  0.00  0.00    +0.009 C 
ENDBRANCH  27  36
ENDBRANCH  23  27
ENDBRANCH   1  24
TORSDOF 6
