REMARK  Name = ZINC22824249
REMARK  7 active torsions:
REMARK  status: ('A' for Active; 'I' for Inactive)
REMARK    1  A    between atoms: C_1  and  C_2
REMARK    2  A    between atoms: C_11  and  N_30
REMARK    3  A    between atoms: C_13  and  S_15
REMARK    4  A    between atoms: S_15  and  C_16
REMARK    5  A    between atoms: C_16  and  C_17
REMARK    6  A    between atoms: N_19  and  C_20
REMARK    7  A    between atoms: C_22  and  N_27
REMARK                            x       y       z     vdW  Elec       q    Type
REMARK                         _______ _______ _______ _____ _____    ______ ____
ROOT
ATOM      1  C   UNL     1      -6.372   3.523  -0.188  0.00  0.00    +0.008 C 
ATOM      2  C   UNL     1      -4.939   3.056  -0.451  0.00  0.00    -0.009 C 
ATOM      3  C   UNL     1      -3.969   3.851   0.429  0.00  0.00    +0.008 C 
ATOM      4  C   UNL     1      -2.529   3.569   0.000  0.00  0.00    +0.037 C 
ATOM      5  C   UNL     1      -2.308   2.059  -0.026  0.00  0.00    -0.025 A 
ATOM      6  C   UNL     1      -3.355   1.211  -0.060  0.00  0.00    -0.004 A 
ATOM      7  S   UNL     1      -2.637  -0.410  -0.079  0.00  0.00    -0.073 S 
ATOM      8  C   UNL     1      -0.926   0.055  -0.033  0.00  0.00    +0.115 A 
ATOM      9  C   UNL     1      -0.971   1.463  -0.004  0.00  0.00    +0.051 A 
ATOM     10  C   UNL     1       0.293   2.116   0.037  0.00  0.00    +0.129 A 
ATOM     11  N   UNL     1       1.397   1.387   0.045  0.00  0.00    -0.207 NA
ATOM     12  C   UNL     1       1.367   0.060   0.016  0.00  0.00    +0.191 A 
ATOM     13  N   UNL     1       0.218  -0.601  -0.023  0.00  0.00    -0.214 NA
ATOM     14  C   UNL     1      -4.811   1.566  -0.084  0.00  0.00    +0.046 C 
ENDROOT
BRANCH  10  15
ATOM     15  N   UNL     1       0.366   3.497   0.069  0.00  0.00    -0.343 N 
ATOM     16  H   UNL     1       1.347   3.995   0.101  0.00  0.00    +0.144 HD
ATOM     17  H   UNL     1      -0.555   4.096   0.062  0.00  0.00    +0.144 HD
ENDBRANCH  10  15
BRANCH  12  18
ATOM     18  S   UNL     1       2.882  -0.839   0.029  0.00  0.00    -0.077 S 
BRANCH  18  19
ATOM     19  C   UNL     1       4.062   0.533   0.084  0.00  0.00    +0.173 C 
BRANCH  19  20
ATOM     20  C   UNL     1       5.466  -0.013   0.103  0.00  0.00    +0.228 C 
ATOM     21  O   UNL     1       5.652  -1.211   0.080  0.00  0.00    -0.275 OA
ATOM     22  N   UNL     1       6.516   0.831   0.144  0.00  0.00    -0.282 N 
ATOM     23  H   UNL     1       6.351   1.917   0.096  0.00  0.00    +0.155 HD
BRANCH  22  24
ATOM     24  C   UNL     1       7.818   0.325   0.247  0.00  0.00    +0.071 A 
ATOM     25  C   UNL     1       8.150  -0.874  -0.370  0.00  0.00    +0.059 A 
ATOM     26  C   UNL     1       9.436  -1.368  -0.271  0.00  0.00    +0.128 A 
ATOM     27  C   UNL     1      10.391  -0.677   0.452  0.00  0.00    +0.035 A 
ATOM     28  C   UNL     1      10.064   0.514   1.074  0.00  0.00    +0.042 A 
ATOM     29  C   UNL     1       8.780   1.018   0.974  0.00  0.00    +0.145 A 
ATOM     30  F   UNL     1       8.460   2.182   1.581  0.00  0.00    -0.204 F 
BRANCH  26  31
ATOM     31  N   UNL     1       9.790  -2.643  -0.934  0.00  0.00    +0.056 N 
ATOM     32  O   UNL     1      10.923  -3.082  -0.843  0.00  0.00    -0.126 OA
ATOM     33  O   UNL     1       8.950  -3.252  -1.571  0.00  0.00    -0.126 OA
ENDBRANCH  26  31
ENDBRANCH  22  24
ENDBRANCH  19  20
ENDBRANCH  18  19
ENDBRANCH  12  18
TORSDOF 6
