REMARK  Name = ZINC40982478
REMARK  10 active torsions:
REMARK  status: ('A' for Active; 'I' for Inactive)
REMARK    1  A    between atoms: C_1  and  C_2
REMARK    2  A    between atoms: C_2  and  C_3
REMARK    3  A    between atoms: C_3  and  S_4
REMARK    4  A    between atoms: S_4  and  C_5
REMARK    5  A    between atoms: C_10  and  C_26
REMARK    6  A    between atoms: C_12  and  C_16
REMARK    7  A    between atoms: C_13  and  C_15
REMARK    8  A    between atoms: N_18  and  C_19
REMARK    9  A    between atoms: C_22  and  C_25
REMARK   10  A    between atoms: C_30  and  O_32
REMARK                            x       y       z     vdW  Elec       q    Type
REMARK                         _______ _______ _______ _____ _____    ______ ____
ROOT
ATOM      1  C   UNL     1       1.565  -2.826  -2.746  0.00  0.00    +0.210 A 
ATOM      2  N   UNL     1       2.027  -1.915  -3.614  0.00  0.00    -0.187 NA
ATOM      3  C   UNL     1       2.611  -2.520  -4.612  0.00  0.00    +0.219 A 
ATOM      4  N   UNL     1       2.528  -3.857  -4.402  0.00  0.00    -0.220 N 
ATOM      5  N   UNL     1       1.858  -4.029  -3.191  0.00  0.00    -0.141 NA
ATOM      6  C   UNL     1       3.067  -4.855  -5.322  0.00  0.00    +0.177 C 
ATOM      7  C   UNL     1       3.955  -4.178  -6.331  0.00  0.00    +0.060 C 
ATOM      8  C   UNL     1       3.998  -2.848  -6.493  0.00  0.00    +0.018 C 
ATOM      9  N   UNL     1       3.237  -1.993  -5.734  0.00  0.00    -0.287 N 
ATOM     10  C   UNL     1       4.914  -2.271  -7.542  0.00  0.00    +0.061 C 
ATOM     11  H   UNL     1       3.140  -1.058  -5.973  0.00  0.00    +0.155 HD
ENDROOT
BRANCH   6  12
ATOM     12  C   UNL     1       1.932  -5.546  -6.033  0.00  0.00    -0.015 A 
ATOM     13  C   UNL     1       1.059  -4.814  -6.816  0.00  0.00    +0.006 A 
ATOM     14  C   UNL     1       0.018  -5.445  -7.470  0.00  0.00    +0.004 A 
ATOM     15  C   UNL     1      -0.154  -6.810  -7.343  0.00  0.00    +0.045 A 
ATOM     16  C   UNL     1       0.721  -7.547  -6.558  0.00  0.00    +0.117 A 
ATOM     17  C   UNL     1       1.769  -6.912  -5.907  0.00  0.00    +0.051 A 
BRANCH  16  18
ATOM     18  O   UNL     1       0.555  -8.890  -6.431  0.00  0.00    -0.507 OA
ATOM     19  H   UNL     1       1.026  -9.409  -7.097  0.00  0.00    +0.292 HD
ENDBRANCH  16  18
ENDBRANCH   6  12
BRANCH   7  20
ATOM     20  C   UNL     1       4.783  -4.984  -7.148  0.00  0.00    +0.248 C 
ATOM     21  O   UNL     1       5.831  -5.421  -6.709  0.00  0.00    -0.270 OA
ATOM     22  N   UNL     1       4.411  -5.268  -8.412  0.00  0.00    -0.282 N 
ATOM     23  H   UNL     1       3.620  -4.853  -8.790  0.00  0.00    +0.155 HD
BRANCH  22  24
ATOM     24  C   UNL     1       5.165  -6.162  -9.179  0.00  0.00    +0.034 A 
ATOM     25  C   UNL     1       5.924  -7.145  -8.556  0.00  0.00    +0.023 A 
ATOM     26  C   UNL     1       6.668  -8.025  -9.317  0.00  0.00    +0.005 A 
ATOM     27  C   UNL     1       6.659  -7.929 -10.696  0.00  0.00    -0.050 A 
ATOM     28  C   UNL     1       5.905  -6.951 -11.319  0.00  0.00    +0.005 A 
ATOM     29  C   UNL     1       5.154  -6.071 -10.565  0.00  0.00    +0.023 A 
ATOM     30  C   UNL     1       7.472  -8.891 -11.523  0.00  0.00    +0.044 C 
ENDBRANCH  22  24
ENDBRANCH   7  20
BRANCH   1  31
ATOM     31  S   UNL     1       0.709  -2.471  -1.248  0.00  0.00    -0.084 S 
BRANCH  31  32
ATOM     32  C   UNL     1       0.623  -0.659  -1.210  0.00  0.00    +0.077 C 
BRANCH  32  34
ATOM     33  C   UNL     1      -0.178   1.319   0.088  0.00  0.00    +0.004 C 
ATOM     34  C   UNL     1      -0.106  -0.209   0.057  0.00  0.00    +0.008 C 
ENDBRANCH  32  34
ENDBRANCH  31  32
ENDBRANCH   1  31
TORSDOF 7
