REMARK  Name = ZINC11461170
REMARK  8 active torsions:
REMARK  status: ('A' for Active; 'I' for Inactive)
REMARK    1  A    between atoms: C_4  and  S_9
REMARK    2  A    between atoms: C_5  and  C_7
REMARK    3  A    between atoms: S_9  and  C_10
REMARK    4  A    between atoms: C_15  and  C_16
REMARK    5  A    between atoms: C_16  and  O_18
REMARK    6  A    between atoms: O_18  and  C_19
REMARK    7  A    between atoms: C_19  and  C_20
REMARK    8  A    between atoms: N_22  and  C_23
REMARK                            x       y       z     vdW  Elec       q    Type
REMARK                         _______ _______ _______ _____ _____    ______ ____
ROOT
ATOM      1  C   UNL     1       8.023  -3.396   4.851  0.00  0.00    +0.341 C 
ATOM      2  O   UNL     1       8.896  -2.550   4.840  0.00  0.00    -0.245 OA
ENDROOT
BRANCH   1   8
ATOM      3  C   UNL     1       9.449  -4.907   6.231  0.00  0.00    +0.027 A 
ATOM      4  C   UNL     1       9.638  -6.112   6.899  0.00  0.00    +0.016 A 
ATOM      5  C   UNL     1       8.640  -7.063   6.904  0.00  0.00    +0.001 A 
ATOM      6  C   UNL     1       7.443  -6.829   6.245  0.00  0.00    +0.001 A 
ATOM      7  C   UNL     1       7.234  -5.640   5.582  0.00  0.00    +0.016 A 
ATOM      8  C   UNL     1       8.237  -4.667   5.562  0.00  0.00    +0.073 A 
BRANCH   3   9
ATOM      9  S   UNL     1      10.722  -3.688   6.223  0.00  0.00    -0.087 S 
BRANCH   9  13
ATOM     10  C   UNL     1      14.213  -5.732   8.284  0.00  0.00    +0.001 A 
ATOM     11  C   UNL     1      13.471  -4.772   8.953  0.00  0.00    +0.001 A 
ATOM     12  C   UNL     1      12.412  -4.145   8.328  0.00  0.00    +0.016 A 
ATOM     13  C   UNL     1      12.077  -4.482   7.022  0.00  0.00    +0.030 A 
ATOM     14  C   UNL     1      12.826  -5.455   6.341  0.00  0.00    +0.065 A 
ATOM     15  C   UNL     1      13.899  -6.076   6.987  0.00  0.00    +0.020 A 
BRANCH  14  16
ATOM     16  C   UNL     1      12.494  -5.807   4.994  0.00  0.00    +0.100 C 
ATOM     17  N   UNL     1      12.231  -6.087   3.925  0.00  0.00    -0.191 NA
ENDBRANCH  14  16
ENDBRANCH   9  13
ENDBRANCH   3   9
ENDBRANCH   1   8
BRANCH   1  18
ATOM     18  O   UNL     1       6.858  -3.170   4.210  0.00  0.00    -0.452 OA
BRANCH  18  19
ATOM     19  C   UNL     1       6.716  -1.895   3.530  0.00  0.00    +0.328 C 
BRANCH  19  20
ATOM     20  C   UNL     1       5.360  -1.822   2.877  0.00  0.00    +0.255 C 
ATOM     21  O   UNL     1       4.589  -2.753   2.975  0.00  0.00    -0.272 OA
ATOM     22  N   UNL     1       5.005  -0.723   2.183  0.00  0.00    -0.283 N 
ATOM     23  H   UNL     1       5.646  -0.009   2.043  0.00  0.00    +0.155 HD
BRANCH  22  24
ATOM     24  C   UNL     1       3.708  -0.611   1.665  0.00  0.00    +0.037 A 
ATOM     25  C   UNL     1       2.636  -1.169   2.349  0.00  0.00    +0.027 A 
ATOM     26  C   UNL     1       1.357  -1.059   1.839  0.00  0.00    +0.051 A 
ATOM     27  C   UNL     1       1.139  -0.392   0.644  0.00  0.00    +0.166 A 
ATOM     28  C   UNL     1       2.212   0.169  -0.044  0.00  0.00    +0.168 A 
ATOM     29  C   UNL     1       3.494   0.059   0.468  0.00  0.00    +0.072 A 
ATOM     30  O   UNL     1       1.740   0.764  -1.179  0.00  0.00    -0.453 OA
ATOM     31  C   UNL     1       0.324   0.916  -0.972  0.00  0.00    +0.466 C 
ATOM     32  O   UNL     1      -0.006  -0.148  -0.060  0.00  0.00    -0.453 OA
ENDBRANCH  22  24
ENDBRANCH  19  20
ENDBRANCH  18  19
ENDBRANCH   1  18
TORSDOF 8
