REMARK  Name = ZINC63480085
REMARK  5 active torsions:
REMARK  status: ('A' for Active; 'I' for Inactive)
REMARK    1  A    between atoms: C_1  and  C_2
REMARK    2  A    between atoms: C_6  and  N_8
REMARK    3  A    between atoms: C_13  and  C_31
REMARK    4  A    between atoms: C_23  and  C_30
REMARK    5  A    between atoms: C_31  and  C_32
REMARK                            x       y       z     vdW  Elec       q    Type
REMARK                         _______ _______ _______ _____ _____    ______ ____
ROOT
ATOM      1  N   UNL     1       0.050  -2.798   2.395  0.00  0.00    -0.210 N 
ATOM      2  C   UNL     1       0.141  -2.196   3.586  0.00  0.00    +0.232 C 
ATOM      3  O   UNL     1       0.217  -0.999   3.762  0.00  0.00    -0.274 OA
ATOM      4  C   UNL     1       0.132  -3.240   4.680  0.00  0.00    +0.107 C 
ATOM      5  C   UNL     1       1.522  -3.279   5.352  0.00  0.00    +0.072 C 
ATOM      6  N   UNL     1       1.858  -4.724   5.449  0.00  0.00    -0.295 NA
ATOM      7  C   UNL     1       1.354  -5.299   4.188  0.00  0.00    +0.136 C 
ATOM      8  C   UNL     1       0.014  -4.578   3.896  0.00  0.00    +0.123 C 
ATOM      9  C   UNL     1      -0.030  -4.133   2.452  0.00  0.00    +0.233 C 
ATOM     10  O   UNL     1      -0.122  -4.870   1.494  0.00  0.00    -0.274 OA
ATOM     11  C   UNL     1       1.162  -6.785   4.299  0.00  0.00    +0.004 A 
ATOM     12  C   UNL     1       0.396  -7.583   5.118  0.00  0.00    +0.011 A 
ATOM     13  C   UNL     1       0.433  -8.959   4.976  0.00  0.00    -0.050 A 
ATOM     14  C   UNL     1       1.241  -9.529   4.010  0.00  0.00    +0.005 A 
ATOM     15  C   UNL     1       2.009  -8.733   3.186  0.00  0.00    +0.024 A 
ATOM     16  C   UNL     1       1.978  -7.347   3.322  0.00  0.00    +0.039 A 
ATOM     17  N   UNL     1       2.652  -6.346   2.620  0.00  0.00    -0.283 N 
ATOM     18  C   UNL     1       2.341  -5.114   3.068  0.00  0.00    +0.243 C 
ATOM     19  O   UNL     1       2.773  -4.061   2.650  0.00  0.00    -0.273 OA
ATOM     20  C   UNL     1      -0.405  -9.834   5.873  0.00  0.00    +0.044 C 
ATOM     21  H   UNL     1       2.854  -4.859   5.535  0.00  0.00    +0.124 HD
ATOM     22  H   UNL     1       3.272  -6.517   1.894  0.00  0.00    +0.155 HD
ENDROOT
BRANCH   1  28
ATOM     23  C   UNL     1      -2.369  -1.348  -1.634  0.00  0.00    +0.044 C 
ATOM     24  C   UNL     1      -1.124  -1.369  -0.785  0.00  0.00    -0.049 A 
ATOM     25  C   UNL     1       0.006  -0.689  -1.200  0.00  0.00    +0.003 A 
ATOM     26  C   UNL     1       1.151  -0.707  -0.425  0.00  0.00    +0.002 A 
ATOM     27  C   UNL     1       1.169  -1.405   0.767  0.00  0.00    +0.024 A 
ATOM     28  C   UNL     1       0.035  -2.089   1.186  0.00  0.00    +0.044 A 
ATOM     29  C   UNL     1      -1.114  -2.064   0.408  0.00  0.00    +0.027 A 
ENDBRANCH   1  28
BRANCH   5  30
ATOM     30  C   UNL     1       1.457  -2.650   6.745  0.00  0.00    +0.052 C 
BRANCH  30  31
ATOM     31  C   UNL     1       2.843  -2.587   7.333  0.00  0.00    -0.040 C 
ATOM     32  C   UNL     1       3.693  -1.535   7.299  0.00  0.00    -0.001 A 
ATOM     33  C   UNL     1       3.587  -0.188   6.725  0.00  0.00    +0.010 A 
ATOM     34  C   UNL     1       4.629   0.663   6.853  0.00  0.00    +0.001 A 
ATOM     35  C   UNL     1       5.806   0.293   7.518  0.00  0.00    +0.002 A 
ATOM     36  C   UNL     1       5.979  -0.926   8.070  0.00  0.00    +0.026 A 
ATOM     37  C   UNL     1       4.947  -1.902   7.996  0.00  0.00    +0.043 A 
ATOM     38  N   UNL     1       4.874  -3.132   8.444  0.00  0.00    -0.380 N 
ATOM     39  C   UNL     1       3.562  -3.683   8.086  0.00  0.00    +0.144 C 
ATOM     40  H   UNL     1       5.570  -3.598   8.933  0.00  0.00    +0.160 HD
ENDBRANCH  30  31
ENDBRANCH   5  30
TORSDOF 3
