REMARK  Name = ZINC35424252
REMARK  8 active torsions:
REMARK  status: ('A' for Active; 'I' for Inactive)
REMARK    1  A    between atoms: C_1  and  O_2
REMARK    2  A    between atoms: O_2  and  C_3
REMARK    3  A    between atoms: C_3  and  C_5
REMARK    4  A    between atoms: C_21  and  C_31
REMARK    5  A    between atoms: C_24  and  N_27
REMARK    6  A    between atoms: N_27  and  C_28
REMARK    7  A    between atoms: C_28  and  C_29
REMARK    8  A    between atoms: C_34  and  C_37
REMARK                            x       y       z     vdW  Elec       q    Type
REMARK                         _______ _______ _______ _____ _____    ______ ____
ROOT
ATOM      1  C   UNL     1       0.657  -2.104  -1.120  0.00  0.00    +0.172 C 
ATOM      2  C   UNL     1       1.520  -2.641   0.031  0.00  0.00    +0.068 C 
ATOM      3  C   UNL     1       2.959  -2.300  -0.260  0.00  0.00    -0.016 A 
ATOM      4  C   UNL     1       4.100  -2.306   0.628  0.00  0.00    +0.003 A 
ATOM      5  C   UNL     1       4.246  -2.612   1.985  0.00  0.00    +0.010 A 
ATOM      6  C   UNL     1       5.509  -2.506   2.513  0.00  0.00    +0.001 A 
ATOM      7  C   UNL     1       6.596  -2.115   1.748  0.00  0.00    +0.002 A 
ATOM      8  C   UNL     1       6.480  -1.805   0.404  0.00  0.00    +0.026 A 
ATOM      9  C   UNL     1       5.210  -1.904  -0.159  0.00  0.00    +0.047 A 
ATOM     10  N   UNL     1       4.751  -1.677  -1.425  0.00  0.00    -0.356 N 
ATOM     11  H   UNL     1       5.297  -1.391  -2.174  0.00  0.00    +0.166 HD
ATOM     12  C   UNL     1       3.404  -1.914  -1.479  0.00  0.00    +0.038 A 
ATOM     13  C   UNL     1       2.497  -1.782  -2.676  0.00  0.00    +0.103 C 
ATOM     14  N   UNL     1       1.247  -2.505  -2.401  0.00  0.00    -0.274 NA
ATOM     15  C   UNL     1       0.297  -2.350  -3.510  0.00  0.00    +0.087 C 
ATOM     16  C   UNL     1       0.897  -2.962  -4.779  0.00  0.00    +0.008 C 
ATOM     17  C   UNL     1       2.220  -2.265  -5.106  0.00  0.00    -0.067 C 
ATOM     18  C   UNL     1       3.172  -2.380  -3.912  0.00  0.00    +0.009 C 
ENDROOT
BRANCH  15  19
ATOM     19  C   UNL     1      -0.991  -3.056  -3.171  0.00  0.00    -0.030 A 
ATOM     20  C   UNL     1      -0.960  -4.277  -2.523  0.00  0.00    +0.006 A 
ATOM     21  C   UNL     1      -2.141  -4.924  -2.212  0.00  0.00    +0.013 A 
ATOM     22  C   UNL     1      -3.353  -4.350  -2.548  0.00  0.00    +0.055 A 
ATOM     23  C   UNL     1      -3.384  -3.129  -3.195  0.00  0.00    +0.013 A 
ATOM     24  C   UNL     1      -2.202  -2.479  -3.502  0.00  0.00    +0.006 A 
BRANCH  22  25
ATOM     25  C   UNL     1      -4.641  -5.056  -2.210  0.00  0.00    +0.417 C 
ATOM     26  F   UNL     1      -5.071  -4.658  -0.940  0.00  0.00    -0.166 F 
ATOM     27  F   UNL     1      -5.616  -4.726  -3.157  0.00  0.00    -0.166 F 
ATOM     28  F   UNL     1      -4.431  -6.439  -2.220  0.00  0.00    -0.166 F 
ENDBRANCH  22  25
ENDBRANCH  15  19
BRANCH  17  29
ATOM     29  N   UNL     1       1.969  -0.845  -5.389  0.00  0.00    +0.388 N 
ATOM     30  H   UNL     1       1.477  -0.429  -4.612  0.00  0.00    -0.084 HD
ATOM     31  H   UNL     1       2.848  -0.368  -5.524  0.00  0.00    -0.084 HD
BRANCH  29  32
ATOM     32  C   UNL     1       1.155  -0.725  -6.606  0.00  0.00    +0.009 C 
BRANCH  32  33
ATOM     33  C   UNL     1       0.904   0.698  -6.889  0.00  0.00    -0.125 C 
ATOM     34  C   UNL     1       0.703   1.832  -7.115  0.00  0.00    +0.002 C 
ENDBRANCH  32  33
ENDBRANCH  29  32
ENDBRANCH  17  29
BRANCH   1  35
ATOM     35  C   UNL     1       0.598  -0.600  -1.043  0.00  0.00    +0.325 C 
ATOM     36  O   UNL     1       0.813   0.065  -2.029  0.00  0.00    -0.249 OA
BRANCH  35  38
ATOM     37  C   UNL     1       0.268   1.430   0.122  0.00  0.00    +0.280 C 
ATOM     38  O   UNL     1       0.307   0.002   0.121  0.00  0.00    -0.467 OA
ENDBRANCH  35  38
ENDBRANCH   1  35
TORSDOF 7
