REMARK  Name = ZINC40339929
REMARK  6 active torsions:
REMARK  status: ('A' for Active; 'I' for Inactive)
REMARK    1  A    between atoms: C_1  and  C_2
REMARK    2  A    between atoms: C_5  and  C_8
REMARK    3  A    between atoms: N_16  and  C_26
REMARK    4  A    between atoms: C_17  and  C_19
REMARK    5  A    between atoms: C_22  and  C_25
REMARK    6  A    between atoms: C_26  and  C_27
REMARK                            x       y       z     vdW  Elec       q    Type
REMARK                         _______ _______ _______ _____ _____    ______ ____
ROOT
ATOM      1  C   UNL     1       0.059  -4.256  -0.021  0.00  0.00    +0.099 A 
ATOM      2  C   UNL     1       0.717  -5.081   0.898  0.00  0.00    +0.035 A 
ATOM      3  C   UNL     1       0.457  -6.377   0.495  0.00  0.00    +0.126 A 
ATOM      4  N   UNL     1      -0.326  -6.277  -0.621  0.00  0.00    -0.272 N 
ATOM      5  H   UNL     1      -0.669  -7.029  -1.129  0.00  0.00    +0.189 HD
ATOM      6  N   UNL     1      -0.545  -5.040  -0.893  0.00  0.00    -0.173 NA
ATOM      7  C   UNL     1       1.122  -7.297   1.423  0.00  0.00    +0.266 C 
ATOM      8  O   UNL     1       1.088  -8.510   1.343  0.00  0.00    -0.268 OA
ATOM      9  N   UNL     1       1.777  -6.609   2.376  0.00  0.00    -0.281 N 
ATOM     10  C   UNL     1       1.579  -5.175   2.127  0.00  0.00    +0.142 C 
ENDROOT
BRANCH   1  15
ATOM     11  C   UNL     1      -0.018   1.503   0.010  0.00  0.00    +0.044 C 
ATOM     12  C   UNL     1       0.002  -0.004   0.002  0.00  0.00    -0.050 A 
ATOM     13  C   UNL     1       0.006  -0.687  -1.201  0.00  0.00    +0.004 A 
ATOM     14  C   UNL     1       0.024  -2.067  -1.214  0.00  0.00    +0.010 A 
ATOM     15  C   UNL     1       0.040  -2.772  -0.013  0.00  0.00    +0.002 A 
ATOM     16  C   UNL     1       0.036  -2.080   1.196  0.00  0.00    +0.010 A 
ATOM     17  C   UNL     1       0.023  -0.700   1.198  0.00  0.00    +0.004 A 
ENDBRANCH   1  15
BRANCH  10  18
ATOM     18  C   UNL     1       0.880  -4.537   3.300  0.00  0.00    -0.022 A 
ATOM     19  C   UNL     1      -0.094  -5.235   3.988  0.00  0.00    +0.006 A 
ATOM     20  C   UNL     1      -0.734  -4.650   5.064  0.00  0.00    +0.004 A 
ATOM     21  C   UNL     1      -0.401  -3.366   5.452  0.00  0.00    -0.050 A 
ATOM     22  C   UNL     1       0.574  -2.667   4.764  0.00  0.00    +0.004 A 
ATOM     23  C   UNL     1       1.218  -3.254   3.691  0.00  0.00    +0.006 A 
ATOM     24  C   UNL     1      -1.099  -2.727   6.625  0.00  0.00    +0.044 C 
ENDBRANCH  10  18
BRANCH   9  25
ATOM     25  C   UNL     1       2.554  -7.189   3.474  0.00  0.00    +0.145 C 
BRANCH  25  26
ATOM     26  C   UNL     1       3.985  -7.369   3.036  0.00  0.00    -0.012 A 
ATOM     27  C   UNL     1       4.432  -8.611   2.625  0.00  0.00    +0.006 A 
ATOM     28  C   UNL     1       5.744  -8.776   2.223  0.00  0.00    +0.000 A 
ATOM     29  C   UNL     1       6.611  -7.699   2.233  0.00  0.00    +0.001 A 
ATOM     30  C   UNL     1       6.166  -6.457   2.644  0.00  0.00    +0.020 A 
ATOM     31  C   UNL     1       4.851  -6.290   3.040  0.00  0.00    +0.046 A 
ATOM     32 CL   UNL     1       4.289  -4.729   3.550  0.00  0.00    -0.083 Cl
ENDBRANCH  25  26
ENDBRANCH   9  25
TORSDOF 4
