REMARK  Name = ZINC13189374
REMARK  11 active torsions:
REMARK  status: ('A' for Active; 'I' for Inactive)
REMARK    1  A    between atoms: C_1  and  O_2
REMARK    2  A    between atoms: O_2  and  C_3
REMARK    3  A    between atoms: C_6  and  N_9
REMARK    4  A    between atoms: C_10  and  C_12
REMARK    5  A    between atoms: C_12  and  S_13
REMARK    6  A    between atoms: S_13  and  C_14
REMARK    7  A    between atoms: C_15  and  C_35
REMARK    8  A    between atoms: C_16  and  C_26
REMARK    9  A    between atoms: C_29  and  O_34
REMARK   10  A    between atoms: C_30  and  O_32
REMARK   11  A    between atoms: O_32  and  C_33
REMARK                            x       y       z     vdW  Elec       q    Type
REMARK                         _______ _______ _______ _____ _____    ______ ____
ROOT
ATOM      1  C   UNL     1       4.293  -6.872  -6.560  0.00  0.00    +0.112 C 
ATOM      2  C   UNL     1       4.484  -8.238  -6.675  0.00  0.00    +0.073 C 
ATOM      3  C   UNL     1       5.284  -8.730  -7.868  0.00  0.00    +0.097 C 
ATOM      4  C   UNL     1       5.790  -7.657  -8.813  0.00  0.00    +0.029 C 
ATOM      5  C   UNL     1       6.504  -8.000  -9.897  0.00  0.00    +0.162 C 
ATOM      6  C   UNL     1       7.022  -6.960 -10.854  0.00  0.00    +0.080 C 
ATOM      7  C   UNL     1       6.077  -5.755 -10.851  0.00  0.00    +0.014 C 
ATOM      8  C   UNL     1       5.969  -5.215  -9.423  0.00  0.00    +0.056 C 
ATOM      9  C   UNL     1       5.483  -6.317  -8.511  0.00  0.00    +0.050 C 
ATOM     10  N   UNL     1       4.778  -6.006  -7.452  0.00  0.00    -0.244 NA
ATOM     11  O   UNL     1       6.762  -9.302 -10.133  0.00  0.00    -0.292 OA
ENDROOT
BRANCH   3  12
ATOM     12  C   UNL     1       4.417  -9.677  -8.658  0.00  0.00    -0.031 A 
ATOM     13  C   UNL     1       3.224  -9.233  -9.197  0.00  0.00    +0.008 A 
ATOM     14  C   UNL     1       2.426 -10.098  -9.922  0.00  0.00    +0.049 A 
ATOM     15  C   UNL     1       2.821 -11.413 -10.110  0.00  0.00    +0.158 A 
ATOM     16  C   UNL     1       4.022 -11.859  -9.568  0.00  0.00    +0.162 A 
ATOM     17  C   UNL     1       4.820 -10.986  -8.846  0.00  0.00    +0.054 A 
BRANCH  16  18
ATOM     18  O   UNL     1       4.415 -13.149  -9.749  0.00  0.00    -0.491 OA
ATOM     19  C   UNL     1       5.659 -13.537  -9.164  0.00  0.00    +0.277 C 
ENDBRANCH  16  18
BRANCH  15  20
ATOM     20  O   UNL     1       2.037 -12.265 -10.823  0.00  0.00    -0.503 OA
ATOM     21  H   UNL     1       2.231 -12.279 -11.770  0.00  0.00    +0.292 HD
ENDBRANCH  15  20
ENDBRANCH   3  12
BRANCH   2  22
ATOM     22  C   UNL     1       3.950  -9.149  -5.708  0.00  0.00    +0.098 C 
ATOM     23  N   UNL     1       3.526  -9.873  -4.941  0.00  0.00    -0.191 NA
ENDBRANCH   2  22
BRANCH   1  24
ATOM     24  S   UNL     1       3.370  -6.255  -5.192  0.00  0.00    -0.096 S 
BRANCH  24  25
ATOM     25  C   UNL     1       3.363  -4.458  -5.442  0.00  0.00    +0.172 C 
BRANCH  25  27
ATOM     26  N   UNL     1       2.458  -2.458  -4.302  0.00  0.00    -0.285 N 
ATOM     27  C   UNL     1       2.596  -3.798  -4.325  0.00  0.00    +0.227 C 
ATOM     28  O   UNL     1       2.102  -4.474  -3.447  0.00  0.00    -0.275 OA
ATOM     29  H   UNL     1       2.786  -1.924  -5.042  0.00  0.00    +0.155 HD
BRANCH  26  33
ATOM     30  C   UNL     1       0.623  -0.606  -1.048  0.00  0.00    +0.120 A 
ATOM     31  C   UNL     1       1.376  -1.755  -0.857  0.00  0.00    +0.047 A 
ATOM     32  C   UNL     1       1.984  -2.369  -1.935  0.00  0.00    +0.027 A 
ATOM     33  C   UNL     1       1.841  -1.835  -3.208  0.00  0.00    +0.034 A 
ATOM     34  C   UNL     1       1.087  -0.685  -3.398  0.00  0.00    +0.027 A 
ATOM     35  C   UNL     1       0.475  -0.075  -2.321  0.00  0.00    +0.047 A 
BRANCH  30  37
ATOM     36  C   UNL     1       0.219  -0.601   1.296  0.00  0.00    +0.277 C 
ATOM     37  O   UNL     1       0.025  -0.001   0.013  0.00  0.00    -0.495 OA
ENDBRANCH  30  37
ENDBRANCH  26  33
ENDBRANCH  25  27
ENDBRANCH  24  25
ENDBRANCH   1  24
TORSDOF 9
