REMARK  Name = ZINC20288718
REMARK  12 active torsions:
REMARK  status: ('A' for Active; 'I' for Inactive)
REMARK    1  A    between atoms: C_1  and  C_2
REMARK    2  A    between atoms: C_2  and  C_4
REMARK    3  A    between atoms: C_2  and  N_24
REMARK    4  A    between atoms: C_4  and  C_6
REMARK    5  A    between atoms: C_4  and  N_11
REMARK    6  A    between atoms: N_14  and  C_17
REMARK    7  A    between atoms: C_25  and  C_27
REMARK    8  A    between atoms: N_29  and  C_30
REMARK    9  A    between atoms: C_30  and  C_31
REMARK   10  A    between atoms: C_31  and  N_32
REMARK   11  A    between atoms: N_32  and  C_33
REMARK   12  A    between atoms: N_32  and  C_34
REMARK                            x       y       z     vdW  Elec       q    Type
REMARK                         _______ _______ _______ _____ _____    ______ ____
ROOT
ATOM      1  C   UNL     1      -0.734   1.609   1.271  0.00  0.00    +0.114 C 
ENDROOT
BRANCH   1   2
ATOM      2  N   UNL     1      -2.202   1.571   1.244  0.00  0.00    -0.290 NA
ATOM      3  C   UNL     1      -2.771   2.425   2.296  0.00  0.00    +0.104 C 
ATOM      4  C   UNL     1      -4.298   2.421   2.183  0.00  0.00    +0.120 C 
ATOM      5  N   UNL     1      -4.791   1.042   2.304  0.00  0.00    -0.325 N 
ATOM      6  C   UNL     1      -4.222   0.188   1.252  0.00  0.00    +0.120 C 
ATOM      7  C   UNL     1      -2.696   0.192   1.365  0.00  0.00    +0.104 C 
BRANCH   5   8
ATOM      8  C   UNL     1      -6.189   1.006   2.278  0.00  0.00    +0.065 A 
ATOM      9  C   UNL     1      -6.857  -0.199   2.453  0.00  0.00    +0.026 A 
ATOM     10  C   UNL     1      -8.238  -0.231   2.430  0.00  0.00    +0.002 A 
ATOM     11  C   UNL     1      -8.956   0.933   2.224  0.00  0.00    +0.003 A 
ATOM     12  C   UNL     1      -8.295   2.134   2.045  0.00  0.00    +0.040 A 
ATOM     13  C   UNL     1      -6.913   2.175   2.071  0.00  0.00    +0.144 A 
ATOM     14  F   UNL     1      -6.267   3.348   1.894  0.00  0.00    -0.204 F 
ENDBRANCH   5   8
ENDBRANCH   1   2
BRANCH   1  15
ATOM     15  C   UNL     1      -0.242   1.052   2.582  0.00  0.00    +0.009 A 
ATOM     16  C   UNL     1       0.539   1.641   3.521  0.00  0.00    +0.013 A 
ATOM     17  C   UNL     1       0.866   0.933   4.662  0.00  0.00    +0.008 A 
ATOM     18  C   UNL     1       0.405  -0.334   4.803  0.00  0.00    +0.045 A 
ATOM     19  S   UNL     1      -0.528  -0.558   3.298  0.00  0.00    -0.100 S 
ENDBRANCH   1  15
BRANCH   1  21
ATOM     20  C   UNL     1      -0.763   1.268  -1.204  0.00  0.00    +0.030 C 
ATOM     21  C   UNL     1      -0.180   0.768   0.120  0.00  0.00    +0.092 C 
BRANCH  21  22
ATOM     22  N   UNL     1       1.279   0.887   0.086  0.00  0.00    -0.303 N 
ATOM     23  C   UNL     1       2.023  -0.094  -0.464  0.00  0.00    +0.299 C 
ATOM     24  O   UNL     1       1.483  -1.075  -0.930  0.00  0.00    -0.265 OA
ATOM     25  H   UNL     1       1.769   1.776   0.509  0.00  0.00    +0.149 HD
BRANCH  23  26
ATOM     26  C   UNL     1       3.512   0.027  -0.498  0.00  0.00    +0.299 C 
ATOM     27  O   UNL     1       4.052   1.008  -0.031  0.00  0.00    -0.265 OA
ATOM     28  N   UNL     1       4.255  -0.954  -1.047  0.00  0.00    -0.309 N 
ATOM     29  H   UNL     1       3.766  -1.843  -1.470  0.00  0.00    +0.149 HD
BRANCH  28  30
ATOM     30  C   UNL     1       5.715  -0.835  -1.081  0.00  0.00    +0.086 C 
BRANCH  30  31
ATOM     31  C   UNL     1       6.312  -2.073  -1.752  0.00  0.00    -0.061 C 
BRANCH  31  32
ATOM     32  N   UNL     1       7.776  -1.954  -1.786  0.00  0.00    +0.377 N 
ATOM     33  C   UNL     1       8.398  -3.218  -2.205  0.00  0.00    -0.097 C 
ATOM     34  C   UNL     1       8.194  -0.848  -2.657  0.00  0.00    -0.097 C 
ATOM     35  H   UNL     1       8.120  -1.730  -0.766  0.00  0.00    -0.083 HD
ENDBRANCH  31  32
ENDBRANCH  30  31
ENDBRANCH  28  30
ENDBRANCH  23  26
ENDBRANCH  21  22
ENDBRANCH   1  21
TORSDOF 9
