REMARK  Name = ZINC18240572
REMARK  5 active torsions:
REMARK  status: ('A' for Active; 'I' for Inactive)
REMARK    1  A    between atoms: C_1  and  C_2
REMARK    2  A    between atoms: C_4  and  C_8
REMARK    3  A    between atoms: N_10  and  N_11
REMARK    4  A    between atoms: C_12  and  C_13
REMARK    5  A    between atoms: C_16  and  C_18
REMARK                            x       y       z     vdW  Elec       q    Type
REMARK                         _______ _______ _______ _____ _____    ______ ____
ROOT
ATOM      1  N   UNL     1       0.072  -5.732  -1.583  0.00  0.00    -0.184 NA
ATOM      2  C   UNL     1       0.090  -6.889  -0.986  0.00  0.00    +0.176 C 
ENDROOT
BRANCH   2   3
ATOM      3  C   UNL     1       0.103  -8.120  -1.777  0.00  0.00    +0.148 A 
ATOM      4  C   UNL     1       0.117  -9.403  -1.276  0.00  0.00    +0.051 A 
ATOM      5  C   UNL     1       0.125 -10.268  -2.379  0.00  0.00    +0.050 A 
ATOM      6  C   UNL     1       0.116  -9.490  -3.498  0.00  0.00    +0.136 A 
ATOM      7  O   UNL     1       0.097  -8.197  -3.124  0.00  0.00    -0.454 OA
BRANCH   6   8
ATOM      8  C   UNL     1       0.120  -9.983  -4.889  0.00  0.00    +0.017 A 
ATOM      9  C   UNL     1       0.128 -11.356  -5.147  0.00  0.00    +0.012 A 
ATOM     10  C   UNL     1       0.131 -11.811  -6.449  0.00  0.00    +0.016 A 
ATOM     11  C   UNL     1       0.126 -10.909  -7.500  0.00  0.00    +0.018 A 
ATOM     12  C   UNL     1       0.118  -9.547  -7.252  0.00  0.00    +0.016 A 
ATOM     13  C   UNL     1       0.109  -9.079  -5.954  0.00  0.00    +0.012 A 
ATOM     14 BR   UNL     1       0.131 -11.541  -9.282  0.00  0.00    -0.050 Br
ENDBRANCH   6   8
ENDBRANCH   2   3
BRANCH   1  17
ATOM     15  C   UNL     1       0.041  -3.355  -1.444  0.00  0.00    +0.281 C 
ATOM     16  O   UNL     1       0.034  -3.298  -2.659  0.00  0.00    -0.267 OA
ATOM     17  N   UNL     1       0.060  -4.553  -0.826  0.00  0.00    -0.202 N 
ATOM     18  H   UNL     1       0.065  -4.599   0.143  0.00  0.00    +0.178 HD
BRANCH  15  22
ATOM     19  C   UNL     1      -0.018   1.503   0.010  0.00  0.00    +0.067 C 
ATOM     20  C   UNL     1       0.002  -0.004   0.002  0.00  0.00    +0.060 A 
ATOM     21  C   UNL     1       0.008  -0.820  -1.131  0.00  0.00    +0.057 A 
ATOM     22  C   UNL     1       0.028  -2.118  -0.649  0.00  0.00    +0.122 A 
ATOM     23  N   UNL     1       0.033  -2.018   0.714  0.00  0.00    -0.272 N 
ATOM     24  H   UNL     1       0.046  -2.768   1.329  0.00  0.00    +0.189 HD
ATOM     25  N   UNL     1       0.023  -0.780   1.056  0.00  0.00    -0.178 NA
ENDBRANCH  15  22
ENDBRANCH   1  17
TORSDOF 4
