REMARK  Name = ZINC58385219
REMARK  5 active torsions:
REMARK  status: ('A' for Active; 'I' for Inactive)
REMARK    1  A    between atoms: C_1  and  C_2
REMARK    2  A    between atoms: C_2  and  C_3
REMARK    3  A    between atoms: C_2  and  N_15
REMARK    4  A    between atoms: C_16  and  C_18
REMARK    5  A    between atoms: C_19  and  C_20
REMARK                            x       y       z     vdW  Elec       q    Type
REMARK                         _______ _______ _______ _____ _____    ______ ____
ROOT
ATOM      1  N   UNL     1       0.688  -0.476  -1.203  0.00  0.00    -0.305 N 
ATOM      2  C   UNL     1       0.006  -0.608  -2.358  0.00  0.00    +0.237 C 
ATOM      3  O   UNL     1      -1.180  -0.334  -2.401  0.00  0.00    -0.271 OA
ATOM      4  H   UNL     1       1.632  -0.695  -1.170  0.00  0.00    +0.150 HD
ENDROOT
BRANCH   1   6
ATOM      5  C   UNL     1      -0.019   1.526   0.010  0.00  0.00    +0.033 C 
ATOM      6  C   UNL     1       0.002  -0.004   0.002  0.00  0.00    +0.100 C 
BRANCH   6   7
ATOM      7  C   UNL     1       0.731  -0.503   1.223  0.00  0.00    -0.025 A 
ATOM      8  C   UNL     1       2.115  -0.512   1.244  0.00  0.00    +0.007 A 
ATOM      9  C   UNL     1       2.792  -0.968   2.358  0.00  0.00    +0.028 A 
ATOM     10  C   UNL     1       2.082  -1.418   3.461  0.00  0.00    +0.067 A 
ATOM     11  C   UNL     1       0.686  -1.409   3.440  0.00  0.00    +0.067 A 
ATOM     12  C   UNL     1       0.015  -0.944   2.319  0.00  0.00    +0.033 A 
ATOM     13  N   UNL     1       0.262  -1.910   4.668  0.00  0.00    -0.306 N 
ATOM     14  H   UNL     1      -0.660  -2.023   4.947  0.00  0.00    +0.170 HD
ATOM     15  C   UNL     1       1.350  -2.210   5.402  0.00  0.00    +0.325 A 
ATOM     16  O   UNL     1       1.330  -2.670   6.529  0.00  0.00    -0.247 OA
ATOM     17  N   UNL     1       2.463  -1.924   4.701  0.00  0.00    -0.306 N 
ATOM     18  H   UNL     1       3.375  -2.050   5.007  0.00  0.00    +0.170 HD
ENDBRANCH   6   7
ENDBRANCH   1   6
BRANCH   2  19
ATOM     19  C   UNL     1       0.666  -1.063  -3.518  0.00  0.00    +0.069 C 
ATOM     20  C   UNL     1      -0.023  -1.196  -4.685  0.00  0.00    +0.034 C 
BRANCH  20  21
ATOM     21  C   UNL     1       0.637  -1.650  -5.845  0.00  0.00    +0.085 A 
ATOM     22  C   UNL     1       1.835  -1.171  -6.365  0.00  0.00    +0.155 A 
ATOM     23  N   UNL     1       2.114  -1.860  -7.459  0.00  0.00    -0.216 NA
ATOM     24  C   UNL     1       1.161  -2.764  -7.681  0.00  0.00    +0.140 A 
ATOM     25  N   UNL     1       0.225  -2.666  -6.689  0.00  0.00    -0.298 N 
ATOM     26  C   UNL     1      -0.860  -3.487  -6.675  0.00  0.00    +0.093 A 
ATOM     27  C   UNL     1      -1.031  -4.419  -7.640  0.00  0.00    +0.018 A 
ATOM     28  C   UNL     1      -0.088  -4.548  -8.669  0.00  0.00    +0.005 A 
ATOM     29  C   UNL     1       0.997  -3.723  -8.696  0.00  0.00    +0.047 A 
ATOM     30 CL   UNL     1       2.796   0.110  -5.694  0.00  0.00    -0.060 Cl
ENDBRANCH  20  21
ENDBRANCH   2  19
TORSDOF 4
