REMARK  Name = ZINC17087490
REMARK  9 active torsions:
REMARK  status: ('A' for Active; 'I' for Inactive)
REMARK    1  A    between atoms: C_1  and  O_2
REMARK    2  A    between atoms: O_2  and  C_3
REMARK    3  A    between atoms: C_6  and  C_15
REMARK    4  A    between atoms: C_8  and  C_9
REMARK    5  A    between atoms: C_9  and  N_57
REMARK    6  A    between atoms: N_16  and  N_17
REMARK    7  A    between atoms: N_17  and  C_18
REMARK    8  A    between atoms: C_18  and  N_20
REMARK    9  A    between atoms: N_20  and  C_21
REMARK                            x       y       z     vdW  Elec       q    Type
REMARK                         _______ _______ _______ _____ _____    ______ ____
ROOT
ATOM      1  C   UNL     1       2.425   0.022  -0.029  0.00  0.00    +0.121 A 
ATOM      2  C   UNL     1       2.428   1.411  -0.026  0.00  0.00    +0.046 A 
ATOM      3  C   UNL     1       1.237   2.104  -0.012  0.00  0.00    +0.013 A 
ATOM      4  C   UNL     1       0.026   1.407  -0.002  0.00  0.00    -0.005 A 
ATOM      5  C   UNL     1       0.028   0.010  -0.005  0.00  0.00    +0.014 A 
ATOM      6  C   UNL     1       1.224  -0.675  -0.018  0.00  0.00    -0.022 A 
ENDROOT
BRANCH   1   8
ATOM      7  C   UNL     1       4.800   0.121  -0.054  0.00  0.00    +0.277 C 
ATOM      8  O   UNL     1       3.602  -0.657  -0.043  0.00  0.00    -0.495 OA
ENDBRANCH   1   8
BRANCH   4   9
ATOM      9  C   UNL     1      -1.251   2.145   0.006  0.00  0.00    +0.138 C 
ATOM     10  N   UNL     1      -1.251   3.443   0.009  0.00  0.00    -0.188 NA
BRANCH  10  11
ATOM     11  N   UNL     1      -2.464   4.143   0.017  0.00  0.00    -0.218 N 
ATOM     12  H   UNL     1      -3.304   3.658   0.020  0.00  0.00    +0.176 HD
BRANCH  11  13
ATOM     13  C   UNL     1      -2.464   5.491   0.020  0.00  0.00    +0.150 C 
ATOM     14  S   UNL     1      -3.947   6.347   0.029  0.00  0.00    -0.017 S 
BRANCH  13  15
ATOM     15  N   UNL     1      -1.297   6.165   0.015  0.00  0.00    -0.322 N 
ATOM     16  H   UNL     1      -0.457   5.680   0.010  0.00  0.00    +0.148 HD
BRANCH  15  17
ATOM     17  C   UNL     1      -1.297   7.630   0.018  0.00  0.00    +0.072 C 
ATOM     18  C   UNL     1      -1.430   8.143  -1.417  0.00  0.00    +0.022 C 
ATOM     19  C   UNL     1      -1.430   9.673  -1.413  0.00  0.00    +0.002 C 
ATOM     20  C   UNL     1      -0.119  10.181  -0.809  0.00  0.00    +0.000 C 
ATOM     21  C   UNL     1       0.014   9.668   0.626  0.00  0.00    +0.002 C 
ATOM     22  C   UNL     1       0.014   8.138   0.623  0.00  0.00    +0.022 C 
ENDBRANCH  15  17
ENDBRANCH  13  15
ENDBRANCH  11  13
ENDBRANCH  10  11
ENDBRANCH   4   9
BRANCH   6  23
ATOM     23  C   UNL     1       1.228  -2.182  -0.021  0.00  0.00    -0.039 C 
BRANCH  23  29
ATOM     24  C   UNL     1       2.119  -4.043   1.238  0.00  0.00    -0.068 C 
ATOM     25  C   UNL     1       2.917  -4.367   2.506  0.00  0.00    +0.050 C 
ATOM     26  S   UNL     1       1.799  -4.238   3.936  0.00  0.00    -0.164 S 
ATOM     27  C   UNL     1       1.024  -2.609   3.693  0.00  0.00    +0.050 C 
ATOM     28  C   UNL     1       0.496  -2.536   2.255  0.00  0.00    -0.068 C 
ATOM     29  N   UNL     1       1.635  -2.645   1.317  0.00  0.00    +0.384 N 
ATOM     30  H   UNL     1       2.399  -2.050   1.656  0.00  0.00    -0.081 HD
ENDBRANCH  23  29
ENDBRANCH   6  23
TORSDOF 8
