REMARK  Name = ZINC13551363
REMARK  12 active torsions:
REMARK  status: ('A' for Active; 'I' for Inactive)
REMARK    1  A    between atoms: C_1  and  C_2
REMARK    2  A    between atoms: C_2  and  O_3
REMARK    3  A    between atoms: O_3  and  C_4
REMARK    4  A    between atoms: C_4  and  C_6
REMARK    5  A    between atoms: C_6  and  C_8
REMARK    6  A    between atoms: C_6  and  N_15
REMARK    7  A    between atoms: C_8  and  C_9
REMARK    8  A    between atoms: C_9  and  C_10
REMARK    9  A    between atoms: C_10  and  N_11
REMARK   10  A    between atoms: N_15  and  S_16
REMARK   11  A    between atoms: S_16  and  C_19
REMARK   12  A    between atoms: C_22  and  C_25
REMARK                            x       y       z     vdW  Elec       q    Type
REMARK                         _______ _______ _______ _____ _____    ______ ____
ROOT
ATOM      1  C   UNL     1      -2.881  -2.427   0.017  0.00  0.00    +0.185 C 
ENDROOT
BRANCH   1   2
ATOM      2  C   UNL     1      -1.496  -1.832   0.006  0.00  0.00    +0.326 C 
ATOM      3  O   UNL     1      -0.528  -2.555  -0.007  0.00  0.00    -0.249 OA
BRANCH   2   4
ATOM      4  O   UNL     1      -1.339  -0.499   0.012  0.00  0.00    -0.464 OA
BRANCH   4   6
ATOM      5  C   UNL     1      -0.019   1.526   0.010  0.00  0.00    +0.048 C 
ATOM      6  C   UNL     1       0.002  -0.004   0.002  0.00  0.00    +0.229 C 
ENDBRANCH   4   6
ENDBRANCH   2   4
ENDBRANCH   1   2
BRANCH   1   7
ATOM      7  N   UNL     1      -2.784  -3.888   0.008  0.00  0.00    -0.176 NA
ATOM      8  H   UNL     1      -2.671  -4.372   0.841  0.00  0.00    +0.149 HD
BRANCH   7   9
ATOM      9  S   UNL     1      -2.868  -4.715  -1.425  0.00  0.00    +0.059 S 
ATOM     10  O   UNL     1      -2.719  -6.092  -1.108  0.00  0.00    -0.153 OA
ATOM     11  O   UNL     1      -4.002  -4.212  -2.118  0.00  0.00    -0.153 OA
BRANCH   9  12
ATOM     12  C   UNL     1      -1.454  -4.260  -2.373  0.00  0.00    +0.105 A 
ATOM     13  C   UNL     1      -1.515  -3.174  -3.226  0.00  0.00    +0.029 A 
ATOM     14  C   UNL     1      -0.406  -2.817  -3.969  0.00  0.00    +0.005 A 
ATOM     15  C   UNL     1       0.764  -3.545  -3.859  0.00  0.00    -0.050 A 
ATOM     16  C   UNL     1       0.825  -4.630  -3.006  0.00  0.00    +0.005 A 
ATOM     17  C   UNL     1      -0.283  -4.985  -2.259  0.00  0.00    +0.029 A 
ATOM     18  C   UNL     1       1.973  -3.156  -4.671  0.00  0.00    +0.044 C 
ENDBRANCH   9  12
ENDBRANCH   7   9
ENDBRANCH   1   7
BRANCH   1  19
ATOM     19  C   UNL     1      -3.622  -1.972   1.275  0.00  0.00    +0.033 C 
BRANCH  19  20
ATOM     20  C   UNL     1      -5.067  -2.473   1.225  0.00  0.00    +0.023 C 
BRANCH  20  21
ATOM     21  C   UNL     1      -5.808  -2.018   2.484  0.00  0.00    +0.115 C 
BRANCH  21  22
ATOM     22  N   UNL     1      -7.192  -2.498   2.436  0.00  0.00    -0.358 N 
ATOM     23  C   UNL     1      -8.011  -2.224   3.413  0.00  0.00    +0.166 C 
ATOM     24  N   UNL     1      -7.576  -1.486   4.488  0.00  0.00    -0.372 N 
ATOM     25  N   UNL     1      -9.309  -2.674   3.368  0.00  0.00    -0.372 N 
ATOM     26  H   UNL     1      -6.660  -1.169   4.520  0.00  0.00    +0.159 HD
ATOM     27  H   UNL     1      -8.185  -1.283   5.215  0.00  0.00    +0.159 HD
ATOM     28  H   UNL     1      -9.616  -3.195   2.609  0.00  0.00    +0.159 HD
ATOM     29  H   UNL     1      -9.918  -2.471   4.095  0.00  0.00    +0.159 HD
ATOM     30  H   UNL     1      -7.499  -3.018   1.677  0.00  0.00    +0.162 HD
ENDBRANCH  21  22
ENDBRANCH  20  21
ENDBRANCH  19  20
ENDBRANCH   1  19
TORSDOF 10
