REMARK  Name = ZINC38576472
REMARK  5 active torsions:
REMARK  status: ('A' for Active; 'I' for Inactive)
REMARK    1  A    between atoms: C_4  and  S_7
REMARK    2  A    between atoms: S_7  and  C_10
REMARK    3  A    between atoms: N_22  and  N_26
REMARK    4  A    between atoms: C_23  and  N_25
REMARK    5  A    between atoms: C_27  and  C_28
REMARK                            x       y       z     vdW  Elec       q    Type
REMARK                         _______ _______ _______ _____ _____    ______ ____
ROOT
ATOM      1  C   UNL     1       4.575  -1.040   1.400  0.00  0.00    +0.224 C 
ATOM      2  C   UNL     1       3.352  -1.551   2.131  0.00  0.00    +0.111 A 
ATOM      3  C   UNL     1       3.693  -2.754   2.769  0.00  0.00    +0.166 A 
ATOM      4  N   UNL     1       2.778  -3.401   3.482  0.00  0.00    -0.227 NA
ATOM      5  C   UNL     1       1.542  -2.907   3.592  0.00  0.00    +0.091 A 
ATOM      6  C   UNL     1       0.558  -3.575   4.343  0.00  0.00    +0.030 A 
ATOM      7  C   UNL     1      -0.693  -3.048   4.437  0.00  0.00    +0.002 A 
ATOM      8  C   UNL     1      -1.018  -1.853   3.799  0.00  0.00    +0.002 A 
ATOM      9  C   UNL     1      -0.092  -1.179   3.063  0.00  0.00    +0.030 A 
ATOM     10  C   UNL     1       1.210  -1.691   2.943  0.00  0.00    +0.090 A 
ATOM     11  N   UNL     1       2.143  -1.052   2.227  0.00  0.00    -0.245 NA
ATOM     12  N   UNL     1       5.017  -3.096   2.535  0.00  0.00    -0.186 N 
ATOM     13  C   UNL     1       5.663  -2.087   1.688  0.00  0.00    +0.195 C 
ENDROOT
BRANCH   1  14
ATOM     14  S   UNL     1       4.250  -0.939  -0.382  0.00  0.00    +0.008 S 
ATOM     15  O   UNL     1       3.680  -2.155  -0.845  0.00  0.00    -0.169 OA
ATOM     16  O   UNL     1       5.363  -0.360  -1.050  0.00  0.00    -0.169 OA
BRANCH  14  20
ATOM     17  C   UNL     1       0.938   2.119  -0.791  0.00  0.00    +0.000 A 
ATOM     18  C   UNL     1       2.260   2.523  -0.826  0.00  0.00    +0.002 A 
ATOM     19  C   UNL     1       3.271   1.589  -0.701  0.00  0.00    +0.027 A 
ATOM     20  C   UNL     1       2.961   0.251  -0.540  0.00  0.00    +0.089 A 
ATOM     21  C   UNL     1       1.639  -0.152  -0.504  0.00  0.00    +0.027 A 
ATOM     22  C   UNL     1       0.628   0.782  -0.630  0.00  0.00    +0.002 A 
ENDBRANCH  14  20
ENDBRANCH   1  14
BRANCH  13  23
ATOM     23  N   UNL     1       6.128  -2.696   0.435  0.00  0.00    -0.309 NA
ATOM     24  H   UNL     1       6.926  -3.292   0.597  0.00  0.00    +0.120 HD
ATOM     25  H   UNL     1       5.383  -3.204  -0.018  0.00  0.00    +0.120 HD
ENDBRANCH  13  23
BRANCH  12  26
ATOM     26  N   UNL     1       5.598  -4.150   2.998  0.00  0.00    -0.185 NA
ATOM     27  C   UNL     1       6.885  -4.327   2.809  0.00  0.00    +0.136 C 
BRANCH  27  28
ATOM     28  C   UNL     1       7.492  -5.522   3.204  0.00  0.00    +0.000 C 
ATOM     29  C   UNL     1       8.839  -5.866   3.081  0.00  0.00    +0.004 A 
ATOM     30  C   UNL     1       9.955  -5.177   2.560  0.00  0.00    +0.010 A 
ATOM     31  C   UNL     1      11.177  -5.768   2.570  0.00  0.00    +0.001 A 
ATOM     32  C   UNL     1      11.363  -7.053   3.087  0.00  0.00    +0.002 A 
ATOM     33  C   UNL     1      10.337  -7.772   3.603  0.00  0.00    +0.026 A 
ATOM     34  C   UNL     1       9.030  -7.219   3.627  0.00  0.00    +0.043 A 
ATOM     35  N   UNL     1       7.886  -7.705   4.066  0.00  0.00    -0.380 N 
ATOM     36  C   UNL     1       6.827  -6.713   3.858  0.00  0.00    +0.150 C 
ATOM     37  H   UNL     1       7.765  -8.580   4.468  0.00  0.00    +0.160 HD
ENDBRANCH  27  28
ENDBRANCH  12  26
TORSDOF 5
