REMARK  Name = ZINC54751881
REMARK  2 active torsions:
REMARK  status: ('A' for Active; 'I' for Inactive)
REMARK    1  A    between atoms: C_4  and  C_7
REMARK    2  A    between atoms: C_20  and  C_22
REMARK                            x       y       z     vdW  Elec       q    Type
REMARK                         _______ _______ _______ _____ _____    ______ ____
ROOT
ATOM      1  C   UNL     1       3.711  -0.707  -0.038  0.00  0.00    +0.024 C 
ATOM      2  C   UNL     1       3.791  -1.587  -1.288  0.00  0.00    +0.013 C 
ATOM      3  C   UNL     1       5.208  -2.140  -1.445  0.00  0.00    +0.037 C 
ATOM      4  C   UNL     1       5.620  -2.818  -0.141  0.00  0.00    -0.023 A 
ATOM      5  C   UNL     1       4.966  -2.545   1.014  0.00  0.00    -0.004 A 
ATOM      6  S   UNL     1       5.767  -3.538   2.248  0.00  0.00    -0.073 S 
ATOM      7  C   UNL     1       6.971  -4.316   1.218  0.00  0.00    +0.116 A 
ATOM      8  C   UNL     1       6.710  -3.773  -0.061  0.00  0.00    +0.075 A 
ATOM      9  C   UNL     1       7.542  -4.217  -1.145  0.00  0.00    +0.260 A 
ATOM     10  O   UNL     1       7.396  -3.808  -2.283  0.00  0.00    -0.267 OA
ATOM     11  N   UNL     1       8.498  -5.119  -0.822  0.00  0.00    -0.305 N 
ATOM     12  H   UNL     1       9.083  -5.446  -1.523  0.00  0.00    +0.170 HD
ATOM     13  C   UNL     1       8.677  -5.588   0.447  0.00  0.00    +0.162 A 
ATOM     14  N   UNL     1       7.928  -5.199   1.467  0.00  0.00    -0.220 NA
ATOM     15  C   UNL     1       3.817  -1.602   1.205  0.00  0.00    +0.051 C 
ENDROOT
BRANCH   1  19
ATOM     16  C   UNL     1      -0.017   1.378   0.010  0.00  0.00    +0.000 A 
ATOM     17  C   UNL     1       1.171   2.086   0.002  0.00  0.00    +0.000 A 
ATOM     18  C   UNL     1       2.377   1.411  -0.013  0.00  0.00    +0.004 A 
ATOM     19  C   UNL     1       2.396   0.029  -0.020  0.00  0.00    -0.044 A 
ATOM     20  C   UNL     1       1.208  -0.679  -0.012  0.00  0.00    +0.004 A 
ATOM     21  C   UNL     1       0.002  -0.004   0.002  0.00  0.00    +0.000 A 
ENDBRANCH   1  19
BRANCH  13  22
ATOM     22  C   UNL     1       9.752  -6.573   0.693  0.00  0.00    +0.124 A 
ATOM     23  C   UNL     1       9.959  -7.078   1.979  0.00  0.00    +0.142 A 
ATOM     24  N   UNL     1      10.920  -7.957   2.192  0.00  0.00    -0.260 NA
ATOM     25  C   UNL     1      11.685  -8.359   1.192  0.00  0.00    +0.130 A 
ATOM     26  C   UNL     1      11.484  -7.860  -0.085  0.00  0.00    +0.131 A 
ATOM     27  N   UNL     1      10.523  -6.985  -0.310  0.00  0.00    -0.249 NA
ENDBRANCH  13  22
TORSDOF 2
