REMARK  Name = ZINC67581536
REMARK  7 active torsions:
REMARK  status: ('A' for Active; 'I' for Inactive)
REMARK    1  A    between atoms: C_1  and  C_2
REMARK    2  A    between atoms: N_5  and  C_8
REMARK    3  A    between atoms: C_8  and  C_9
REMARK    4  A    between atoms: C_9  and  C_11
REMARK    5  A    between atoms: C_9  and  O_26
REMARK    6  A    between atoms: C_11  and  N_12
REMARK    7  A    between atoms: N_15  and  C_16
REMARK                            x       y       z     vdW  Elec       q    Type
REMARK                         _______ _______ _______ _____ _____    ______ ____
ROOT
ATOM      1  N   UNL     1       3.964  -6.214   1.958  0.00  0.00    -0.297 N 
ATOM      2  C   UNL     1       4.412  -7.484   2.013  0.00  0.00    +0.300 C 
ATOM      3  O   UNL     1       4.039  -8.296   1.188  0.00  0.00    -0.253 OA
ATOM      4  N   UNL     1       5.272  -7.854   2.982  0.00  0.00    -0.294 N 
ATOM      5  H   UNL     1       4.261  -5.566   2.617  0.00  0.00    +0.150 HD
ATOM      6  H   UNL     1       5.570  -7.207   3.640  0.00  0.00    +0.151 HD
ENDROOT
BRANCH   4   7
ATOM      7  C   UNL     1       5.759  -9.235   3.041  0.00  0.00    +0.037 C 
ATOM      8  C   UNL     1       6.497  -9.571   1.743  0.00  0.00    +0.029 C 
ATOM      9  C   UNL     1       7.005 -11.013   1.805  0.00  0.00    -0.008 C 
ATOM     10  C   UNL     1       7.961 -11.166   2.989  0.00  0.00    +0.007 C 
ATOM     11  C   UNL     1       7.224 -10.829   4.287  0.00  0.00    -0.008 C 
ATOM     12  C   UNL     1       6.716  -9.388   4.225  0.00  0.00    +0.029 C 
ATOM     13  C   UNL     1       6.039 -11.781   4.462  0.00  0.00    +0.007 C 
ATOM     14  C   UNL     1       5.083 -11.628   3.277  0.00  0.00    -0.008 C 
ATOM     15  C   UNL     1       5.820 -11.965   1.980  0.00  0.00    +0.007 C 
ATOM     16  C   UNL     1       4.574 -10.186   3.216  0.00  0.00    +0.029 C 
ENDBRANCH   4   7
BRANCH   1  17
ATOM     17  C   UNL     1       3.028  -5.812   0.905  0.00  0.00    +0.135 C 
BRANCH  17  18
ATOM     18  C   UNL     1       2.681  -4.331   1.070  0.00  0.00    +0.115 C 
BRANCH  18  19
ATOM     19  O   UNL     1       2.077  -4.123   2.349  0.00  0.00    -0.392 OA
ATOM     20  H   UNL     1       1.262  -4.624   2.485  0.00  0.00    +0.210 HD
ENDBRANCH  18  19
BRANCH  18  21
ATOM     21  C   UNL     1       1.704  -3.911  -0.029  0.00  0.00    -0.046 C 
BRANCH  21  26
ATOM     22  C   UNL     1       0.801   1.694  -0.579  0.00  0.00    +0.007 C 
ATOM     23  C   UNL     1       1.167   0.235  -0.859  0.00  0.00    -0.018 C 
ATOM     24  C   UNL     1       2.284  -0.205   0.093  0.00  0.00    -0.016 C 
ATOM     25  C   UNL     1       2.590  -1.686  -0.138  0.00  0.00    -0.078 C 
ATOM     26  N   UNL     1       1.385  -2.484   0.118  0.00  0.00    +0.381 N 
ATOM     27  C   UNL     1       0.333  -2.118  -0.839  0.00  0.00    -0.078 C 
ATOM     28  C   UNL     1      -0.060  -0.654  -0.635  0.00  0.00    -0.016 C 
ATOM     29  H   UNL     1       1.060  -2.309   1.057  0.00  0.00    -0.082 HD
ENDBRANCH  21  26
ENDBRANCH  18  21
ENDBRANCH  17  18
ENDBRANCH   1  17
TORSDOF 6
