REMARK  Name = ZINC15947675
REMARK  10 active torsions:
REMARK  status: ('A' for Active; 'I' for Inactive)
REMARK    1  A    between atoms: C_1  and  C_2
REMARK    2  A    between atoms: C_11  and  O_35
REMARK    3  A    between atoms: C_13  and  C_16
REMARK    4  A    between atoms: C_19  and  O_22
REMARK    5  A    between atoms: O_22  and  C_23
REMARK    6  A    between atoms: C_23  and  C_25
REMARK    7  A    between atoms: C_28  and  C_31
REMARK    8  A    between atoms: C_31  and  C_32
REMARK    9  A    between atoms: C_31  and  C_33
REMARK   10  A    between atoms: C_31  and  C_34
REMARK                            x       y       z     vdW  Elec       q    Type
REMARK                         _______ _______ _______ _____ _____    ______ ____
ROOT
ATOM      1  C   UNL     1       1.204  -7.111   0.410  0.00  0.00    -0.005 A 
ATOM      2  C   UNL     1       2.537  -6.869   0.686  0.00  0.00    +0.011 A 
ATOM      3  C   UNL     1       3.500  -7.135  -0.268  0.00  0.00    +0.047 A 
ATOM      4  C   UNL     1       3.129  -7.645  -1.504  0.00  0.00    +0.132 A 
ATOM      5  C   UNL     1       1.791  -7.887  -1.778  0.00  0.00    +0.047 A 
ATOM      6  C   UNL     1       0.832  -7.625  -0.819  0.00  0.00    +0.011 A 
ENDROOT
BRANCH   1  18
ATOM      7  C   UNL     1      -0.430   1.448  -0.455  0.00  0.00    +0.008 C 
ATOM      8  C   UNL     1      -0.333  -0.077  -0.373  0.00  0.00    -0.009 C 
ATOM      9  C   UNL     1      -1.739  -0.677  -0.287  0.00  0.00    +0.008 C 
ATOM     10  C   UNL     1      -1.668  -2.196  -0.452  0.00  0.00    +0.037 C 
ATOM     11  C   UNL     1      -0.649  -2.748   0.534  0.00  0.00    -0.023 A 
ATOM     12  C   UNL     1       0.278  -1.945   1.105  0.00  0.00    -0.004 A 
ATOM     13  S   UNL     1       1.219  -3.017   2.156  0.00  0.00    -0.078 S 
ATOM     14  C   UNL     1       0.439  -4.448   1.858  0.00  0.00    +0.080 A 
ATOM     15  C   UNL     1      -0.575  -4.139   0.944  0.00  0.00    +0.068 A 
ATOM     16  C   UNL     1      -1.460  -5.247   0.500  0.00  0.00    +0.220 C 
ATOM     17  N   UNL     1      -1.092  -6.467   0.786  0.00  0.00    -0.223 NA
ATOM     18  C   UNL     1       0.155  -6.819   1.452  0.00  0.00    +0.224 C 
ATOM     19  N   UNL     1       0.634  -5.730   2.322  0.00  0.00    -0.313 N 
ATOM     20  C   UNL     1       0.457  -0.475   0.883  0.00  0.00    +0.046 C 
ATOM     21  H   UNL     1       1.062  -5.906   3.175  0.00  0.00    +0.149 HD
BRANCH  16  22
ATOM     22  O   UNL     1      -2.606  -5.001  -0.176  0.00  0.00    -0.492 OA
ATOM     23  H   UNL     1      -3.101  -5.796  -0.413  0.00  0.00    +0.294 HD
ENDBRANCH  16  22
ENDBRANCH   1  18
BRANCH   4  24
ATOM     24  O   UNL     1       4.075  -7.907  -2.444  0.00  0.00    -0.422 OA
BRANCH  24  25
ATOM     25  C   UNL     1       4.921  -8.932  -2.222  0.00  0.00    +0.344 C 
ATOM     26  O   UNL     1       4.760  -9.654  -1.258  0.00  0.00    -0.245 OA
BRANCH  25  27
ATOM     27  C   UNL     1       6.044  -9.177  -3.150  0.00  0.00    +0.059 A 
ATOM     28  C   UNL     1       6.234  -8.346  -4.255  0.00  0.00    +0.015 A 
ATOM     29  C   UNL     1       7.285  -8.580  -5.117  0.00  0.00    +0.005 A 
ATOM     30  C   UNL     1       8.149  -9.637  -4.889  0.00  0.00    -0.042 A 
ATOM     31  C   UNL     1       7.965 -10.466  -3.796  0.00  0.00    +0.005 A 
ATOM     32  C   UNL     1       6.922 -10.239  -2.922  0.00  0.00    +0.015 A 
BRANCH  30  33
ATOM     33  C   UNL     1       9.294  -9.887  -5.836  0.00  0.00    -0.013 C 
ATOM     34  C   UNL     1      10.208  -8.661  -5.866  0.00  0.00    +0.015 C 
ATOM     35  C   UNL     1      10.091 -11.105  -5.362  0.00  0.00    +0.015 C 
ATOM     36  C   UNL     1       8.747 -10.151  -7.240  0.00  0.00    +0.015 C 
ENDBRANCH  30  33
ENDBRANCH  25  27
ENDBRANCH  24  25
ENDBRANCH   4  24
TORSDOF 6
