REMARK  Name = ZINC16042051
REMARK  5 active torsions:
REMARK  status: ('A' for Active; 'I' for Inactive)
REMARK    1  A    between atoms: C_1  and  C_2
REMARK    2  A    between atoms: C_2  and  C_3
REMARK    3  A    between atoms: C_2  and  C_4
REMARK    4  A    between atoms: C_4  and  C_5
REMARK    5  A    between atoms: N_13  and  C_16
REMARK                            x       y       z     vdW  Elec       q    Type
REMARK                         _______ _______ _______ _____ _____    ______ ____
ROOT
ATOM      1  C   UNL     1       2.156  -0.126  -1.237  0.00  0.00    +0.068 C 
ATOM      2  C   UNL     1       2.951  -0.645  -2.454  0.00  0.00    +0.107 C 
ATOM      3  C   UNL     1       3.949   0.498  -2.794  0.00  0.00    +0.123 C 
ATOM      4  C   UNL     1       5.298  -0.118  -2.499  0.00  0.00    +0.233 C 
ATOM      5  O   UNL     1       6.366   0.441  -2.628  0.00  0.00    -0.274 OA
ATOM      6  N   UNL     1       5.130  -1.375  -2.074  0.00  0.00    -0.210 N 
ATOM      7  C   UNL     1       3.841  -1.786  -2.014  0.00  0.00    +0.232 C 
ATOM      8  O   UNL     1       3.455  -2.881  -1.666  0.00  0.00    -0.274 OA
ATOM      9  C   UNL     1       3.633   1.602  -1.778  0.00  0.00    +0.136 C 
ATOM     10  N   UNL     1       2.260   1.355  -1.314  0.00  0.00    -0.295 NA
ATOM     11  C   UNL     1       3.790   2.969  -2.381  0.00  0.00    +0.003 A 
ATOM     12  C   UNL     1       3.204   3.606  -3.451  0.00  0.00    +0.008 A 
ATOM     13  C   UNL     1       3.565   4.904  -3.768  0.00  0.00    +0.000 A 
ATOM     14  C   UNL     1       4.516   5.558  -3.007  0.00  0.00    +0.002 A 
ATOM     15  C   UNL     1       5.107   4.924  -1.934  0.00  0.00    +0.023 A 
ATOM     16  C   UNL     1       4.749   3.618  -1.608  0.00  0.00    +0.039 A 
ATOM     17  N   UNL     1       5.197   2.776  -0.588  0.00  0.00    -0.283 N 
ATOM     18  C   UNL     1       4.592   1.573  -0.619  0.00  0.00    +0.243 C 
ATOM     19  O   UNL     1       4.782   0.647   0.141  0.00  0.00    -0.273 OA
ATOM     20  H   UNL     1       1.594   1.731  -1.972  0.00  0.00    +0.123 HD
ATOM     21  H   UNL     1       5.867   3.028   0.067  0.00  0.00    +0.155 HD
ENDROOT
BRANCH   6  22
ATOM     22  C   UNL     1       6.203  -2.207  -1.723  0.00  0.00    +0.044 A 
ATOM     23  C   UNL     1       6.371  -2.605  -0.404  0.00  0.00    +0.025 A 
ATOM     24  C   UNL     1       7.428  -3.425  -0.060  0.00  0.00    +0.022 A 
ATOM     25  C   UNL     1       8.320  -3.848  -1.030  0.00  0.00    +0.041 A 
ATOM     26  C   UNL     1       8.155  -3.452  -2.346  0.00  0.00    +0.022 A 
ATOM     27  C   UNL     1       7.095  -2.638  -2.695  0.00  0.00    +0.025 A 
ATOM     28 CL   UNL     1       9.649  -4.878  -0.596  0.00  0.00    -0.084 Cl
ENDBRANCH   6  22
BRANCH   1  29
ATOM     29  C   UNL     1       0.693  -0.562  -1.332  0.00  0.00    +0.022 C 
BRANCH  29  31
ATOM     30  C   UNL     1      -0.092   1.416  -0.024  0.00  0.00    +0.007 C 
ATOM     31  C   UNL     1      -0.056  -0.112  -0.076  0.00  0.00    -0.016 C 
ATOM     32  C   UNL     1      -1.486  -0.655  -0.113  0.00  0.00    +0.007 C 
ENDBRANCH  29  31
ENDBRANCH   1  29
TORSDOF 3
