REMARK  Name = ZINC14475870
REMARK  9 active torsions:
REMARK  status: ('A' for Active; 'I' for Inactive)
REMARK    1  A    between atoms: C_1  and  C_2
REMARK    2  A    between atoms: C_2  and  O_3
REMARK    3  A    between atoms: O_3  and  C_4
REMARK    4  A    between atoms: C_7  and  N_10
REMARK    5  A    between atoms: N_10  and  S_11
REMARK    6  A    between atoms: S_11  and  C_14
REMARK    7  A    between atoms: C_27  and  C_30
REMARK    8  A    between atoms: C_32  and  N_37
REMARK    9  A    between atoms: C_35  and  O_36
REMARK                            x       y       z     vdW  Elec       q    Type
REMARK                         _______ _______ _______ _____ _____    ______ ____
ROOT
ATOM      1  C   UNL     1       2.139  -5.915  -4.383  0.00  0.00    +0.109 A 
ATOM      2  C   UNL     1       2.040  -4.660  -4.955  0.00  0.00    +0.030 A 
ATOM      3  C   UNL     1       3.060  -4.178  -5.751  0.00  0.00    +0.025 A 
ATOM      4  C   UNL     1       4.190  -4.951  -5.986  0.00  0.00    +0.031 A 
ATOM      5  C   UNL     1       4.278  -6.225  -5.414  0.00  0.00    -0.018 A 
ATOM      6  C   UNL     1       3.261  -6.691  -4.609  0.00  0.00    +0.034 A 
ATOM      7  C   UNL     1       5.480  -7.030  -5.721  0.00  0.00    +0.049 C 
ATOM      8  C   UNL     1       5.987  -8.071  -4.790  0.00  0.00    -0.023 C 
ATOM      9  C   UNL     1       7.307  -8.144  -4.914  0.00  0.00    -0.030 C 
ATOM     10  C   UNL     1       7.794  -7.113  -5.934  0.00  0.00    +0.033 C 
ATOM     11  C   UNL     1       6.692  -6.056  -5.830  0.00  0.00    +0.029 C 
ATOM     12  C   UNL     1       6.434  -5.226  -7.074  0.00  0.00    +0.108 C 
ATOM     13  N   UNL     1       5.221  -4.433  -6.780  0.00  0.00    -0.336 N 
ATOM     14  H   UNL     1       5.137  -3.538  -7.144  0.00  0.00    +0.147 HD
ENDROOT
BRANCH  12  15
ATOM     15  C   UNL     1       7.604  -4.314  -7.342  0.00  0.00    +0.017 A 
ATOM     16  C   UNL     1       7.587  -3.014  -6.876  0.00  0.00    +0.041 A 
ATOM     17  C   UNL     1       8.659  -2.176  -7.121  0.00  0.00    +0.127 A 
ATOM     18  C   UNL     1       9.751  -2.638  -7.835  0.00  0.00    +0.036 A 
ATOM     19  C   UNL     1       9.772  -3.937  -8.303  0.00  0.00    +0.048 A 
ATOM     20  C   UNL     1       8.699  -4.781  -8.053  0.00  0.00    +0.122 A 
BRANCH  17  21
ATOM     21  N   UNL     1       8.639  -0.784  -6.621  0.00  0.00    +0.056 N 
ATOM     22  O   UNL     1       7.686  -0.379  -5.997  0.00  0.00    -0.126 OA
ATOM     23  O   UNL     1       9.576  -0.051  -6.835  0.00  0.00    -0.126 OA
ENDBRANCH  17  21
BRANCH  20  24
ATOM     24  O   UNL     1       8.720  -6.061  -8.509  0.00  0.00    -0.506 OA
ATOM     25  H   UNL     1       8.348  -6.169  -9.395  0.00  0.00    +0.292 HD
ENDBRANCH  20  24
ENDBRANCH  12  15
BRANCH   1  26
ATOM     26  S   UNL     1       0.839  -6.522  -3.361  0.00  0.00    +0.072 S 
ATOM     27  O   UNL     1       1.005  -7.931  -3.286  0.00  0.00    -0.150 OA
ATOM     28  O   UNL     1      -0.360  -5.921  -3.829  0.00  0.00    -0.150 OA
BRANCH  26  29
ATOM     29  N   UNL     1       1.099  -5.933  -1.835  0.00  0.00    -0.216 N 
ATOM     30  H   UNL     1       0.443  -5.351  -1.421  0.00  0.00    +0.174 HD
BRANCH  29  34
ATOM     31  C   UNL     1       4.576  -6.952   0.227  0.00  0.00    +0.121 A 
ATOM     32  C   UNL     1       4.150  -5.632   0.195  0.00  0.00    +0.047 A 
ATOM     33  C   UNL     1       2.999  -5.294  -0.488  0.00  0.00    +0.028 A 
ATOM     34  C   UNL     1       2.267  -6.275  -1.143  0.00  0.00    +0.048 A 
ATOM     35  C   UNL     1       2.694  -7.596  -1.111  0.00  0.00    +0.028 A 
ATOM     36  C   UNL     1       3.849  -7.932  -0.433  0.00  0.00    +0.047 A 
BRANCH  31  37
ATOM     37  O   UNL     1       5.710  -7.285   0.899  0.00  0.00    -0.492 OA
BRANCH  37  39
ATOM     38  C   UNL     1       7.649  -6.787   2.253  0.00  0.00    +0.048 C 
ATOM     39  C   UNL     1       6.409  -6.225   1.556  0.00  0.00    +0.225 C 
ENDBRANCH  37  39
ENDBRANCH  31  37
ENDBRANCH  29  34
ENDBRANCH  26  29
ENDBRANCH   1  26
TORSDOF 8
