REMARK  Name = ZINC39887846
REMARK  7 active torsions:
REMARK  status: ('A' for Active; 'I' for Inactive)
REMARK    1  A    between atoms: C_1  and  C_2
REMARK    2  A    between atoms: C_5  and  C_8
REMARK    3  A    between atoms: C_11  and  C_13
REMARK    4  A    between atoms: N_14  and  N_15
REMARK    5  A    between atoms: C_20  and  C_23
REMARK    6  A    between atoms: C_23  and  C_24
REMARK    7  A    between atoms: N_26  and  C_27
REMARK                            x       y       z     vdW  Elec       q    Type
REMARK                         _______ _______ _______ _____ _____    ______ ____
ROOT
ATOM      1  N   UNL     1       0.117  -8.293  -3.713  0.00  0.00    -0.127 NA
ATOM      2  C   UNL     1       0.109  -8.102  -5.016  0.00  0.00    +0.183 C 
ATOM      3  N   UNL     1       0.092  -6.906  -5.702  0.00  0.00    -0.263 N 
ATOM      4  C   UNL     1       0.086  -6.845  -7.022  0.00  0.00    +0.233 C 
ATOM      5  O   UNL     1       0.071  -5.789  -7.618  0.00  0.00    -0.274 OA
ATOM      6  C   UNL     1       0.100  -8.181  -7.747  0.00  0.00    +0.149 C 
ATOM      7  S   UNL     1       0.126  -9.333  -6.311  0.00  0.00    -0.075 S 
ATOM      8  H   UNL     1       0.084  -6.078  -5.196  0.00  0.00    +0.157 HD
ENDROOT
BRANCH   1  10
ATOM      9  C   UNL     1       0.110  -7.471  -1.617  0.00  0.00    +0.181 C 
ATOM     10  N   UNL     1       0.103  -7.281  -2.913  0.00  0.00    -0.152 NA
BRANCH   9  14
ATOM     11  C   UNL     1       0.061  -4.287  -0.001  0.00  0.00    +0.136 A 
ATOM     12  C   UNL     1       0.079  -5.093   1.099  0.00  0.00    +0.050 A 
ATOM     13  C   UNL     1       0.100  -6.416   0.641  0.00  0.00    +0.051 A 
ATOM     14  C   UNL     1       0.094  -6.359  -0.738  0.00  0.00    +0.148 A 
ATOM     15  O   UNL     1       0.066  -5.061  -1.103  0.00  0.00    -0.454 OA
BRANCH  11  20
ATOM     16  C   UNL     1      -0.043   1.464   0.059  0.00  0.00    +0.044 C 
ATOM     17  C   UNL     1      -0.016  -0.043   0.043  0.00  0.00    -0.050 A 
ATOM     18  C   UNL     1      -0.012  -0.719  -1.164  0.00  0.00    +0.004 A 
ATOM     19  C   UNL     1       0.012  -2.098  -1.186  0.00  0.00    +0.012 A 
ATOM     20  C   UNL     1       0.035  -2.812   0.015  0.00  0.00    +0.017 A 
ATOM     21  C   UNL     1       0.032  -2.122   1.230  0.00  0.00    +0.012 A 
ATOM     22  C   UNL     1       0.012  -0.743   1.236  0.00  0.00    +0.004 A 
ENDBRANCH  11  20
ENDBRANCH   9  14
ENDBRANCH   1  10
BRANCH   6  23
ATOM     23  C   UNL     1      -1.163  -8.367  -8.591  0.00  0.00    +0.120 C 
BRANCH  23  24
ATOM     24  C   UNL     1      -1.054  -9.643  -9.385  0.00  0.00    +0.219 C 
ATOM     25  O   UNL     1      -0.063 -10.336  -9.285  0.00  0.00    -0.275 OA
ATOM     26  N   UNL     1      -2.056 -10.014 -10.205  0.00  0.00    -0.285 N 
ATOM     27  H   UNL     1      -2.876  -9.496 -10.235  0.00  0.00    +0.155 HD
BRANCH  26  28
ATOM     28  C   UNL     1      -1.915 -11.147 -11.015  0.00  0.00    +0.033 A 
ATOM     29  C   UNL     1      -2.476 -11.169 -12.285  0.00  0.00    +0.025 A 
ATOM     30  C   UNL     1      -2.335 -12.288 -13.082  0.00  0.00    +0.022 A 
ATOM     31  C   UNL     1      -1.635 -13.387 -12.615  0.00  0.00    +0.041 A 
ATOM     32  C   UNL     1      -1.075 -13.368 -11.350  0.00  0.00    +0.022 A 
ATOM     33  C   UNL     1      -1.208 -12.249 -10.552  0.00  0.00    +0.025 A 
ATOM     34 CL   UNL     1      -1.461 -14.793 -13.619  0.00  0.00    -0.084 Cl
ENDBRANCH  26  28
ENDBRANCH  23  24
ENDBRANCH   6  23
TORSDOF 6
