REMARK  Name = ZINC29492341
REMARK  8 active torsions:
REMARK  status: ('A' for Active; 'I' for Inactive)
REMARK    1  A    between atoms: C_4  and  C_7
REMARK    2  A    between atoms: C_10  and  C_35
REMARK    3  A    between atoms: N_12  and  C_13
REMARK    4  A    between atoms: C_16  and  C_19
REMARK    5  A    between atoms: C_20  and  C_21
REMARK    6  A    between atoms: C_20  and  C_23
REMARK    7  A    between atoms: N_25  and  C_26
REMARK    8  A    between atoms: C_30  and  N_32
REMARK                            x       y       z     vdW  Elec       q    Type
REMARK                         _______ _______ _______ _____ _____    ______ ____
ROOT
ATOM      1  C   UNL     1       2.704  12.291  -0.772  0.00  0.00    +0.052 A 
ATOM      2  C   UNL     1       3.860  11.534  -0.587  0.00  0.00    +0.025 A 
ATOM      3  C   UNL     1       3.775  10.183  -0.418  0.00  0.00    +0.010 A 
ATOM      4  C   UNL     1       2.521   9.554  -0.430  0.00  0.00    -0.024 A 
ATOM      5  C   UNL     1       1.359  10.319  -0.622  0.00  0.00    +0.010 A 
ATOM      6  C   UNL     1       1.454  11.671  -0.785  0.00  0.00    +0.025 A 
ENDROOT
BRANCH   1  11
ATOM      7  C   UNL     1       1.661  14.579  -1.147  0.00  0.00    +0.134 C 
ATOM      8  C   UNL     1       2.330  15.962  -1.278  0.00  0.00    +0.087 C 
ATOM      9  C   UNL     1       3.806  15.668  -1.129  0.00  0.00    +0.069 C 
ATOM     10  N   UNL     1       3.977  14.404  -0.946  0.00  0.00    -0.183 NA
ATOM     11  N   UNL     1       2.795  13.664  -0.944  0.00  0.00    -0.216 N 
BRANCH   7  15
ATOM     12  C   UNL     1      -0.447  13.587  -4.728  0.00  0.00    +0.000 A 
ATOM     13  C   UNL     1      -1.144  13.991  -3.605  0.00  0.00    +0.000 A 
ATOM     14  C   UNL     1      -0.462  14.311  -2.446  0.00  0.00    +0.005 A 
ATOM     15  C   UNL     1       0.917  14.229  -2.410  0.00  0.00    -0.025 A 
ATOM     16  C   UNL     1       1.615  13.831  -3.535  0.00  0.00    +0.005 A 
ATOM     17  C   UNL     1       0.933  13.504  -4.692  0.00  0.00    +0.000 A 
ENDBRANCH   7  15
BRANCH   9  18
ATOM     18  C   UNL     1       4.883  16.673  -1.181  0.00  0.00    -0.002 A 
ATOM     19  C   UNL     1       4.576  18.021  -1.386  0.00  0.00    +0.010 A 
ATOM     20  C   UNL     1       5.589  18.956  -1.428  0.00  0.00    +0.001 A 
ATOM     21  C   UNL     1       6.907  18.562  -1.278  0.00  0.00    +0.000 A 
ATOM     22  C   UNL     1       7.218  17.228  -1.080  0.00  0.00    +0.001 A 
ATOM     23  C   UNL     1       6.216  16.282  -1.030  0.00  0.00    +0.010 A 
ENDBRANCH   9  18
ENDBRANCH   1  11
BRANCH   4  24
ATOM     24  C   UNL     1       2.424   8.106  -0.250  0.00  0.00    +0.032 C 
ATOM     25  C   UNL     1       3.393   7.434   0.466  0.00  0.00    +0.114 C 
BRANCH  25  26
ATOM     26  C   UNL     1       3.398   5.963   0.494  0.00  0.00    +0.259 C 
ATOM     27  O   UNL     1       2.548   5.340  -0.113  0.00  0.00    -0.269 OA
ATOM     28  N   UNL     1       4.345   5.307   1.193  0.00  0.00    -0.281 N 
ATOM     29  H   UNL     1       5.061   5.868   1.811  0.00  0.00    +0.155 HD
BRANCH  28  30
ATOM     30  C   UNL     1       4.417   3.911   1.132  0.00  0.00    +0.036 A 
ATOM     31  C   UNL     1       4.950   3.195   2.196  0.00  0.00    +0.023 A 
ATOM     32  C   UNL     1       5.020   1.817   2.133  0.00  0.00    +0.004 A 
ATOM     33  C   UNL     1       4.561   1.151   1.011  0.00  0.00    +0.033 A 
ATOM     34  C   UNL     1       4.036   1.861  -0.052  0.00  0.00    +0.128 A 
ATOM     35  C   UNL     1       3.957   3.239   0.007  0.00  0.00    +0.056 A 
BRANCH  34  36
ATOM     36  N   UNL     1       3.551   1.145  -1.253  0.00  0.00    +0.056 N 
ATOM     37  O   UNL     1       3.616  -0.071  -1.304  0.00  0.00    -0.126 OA
ATOM     38  O   UNL     1       3.088   1.770  -2.190  0.00  0.00    -0.126 OA
ENDBRANCH  34  36
ENDBRANCH  28  30
ENDBRANCH  25  26
BRANCH  25  39
ATOM     39  C   UNL     1       4.393   8.167   1.180  0.00  0.00    +0.104 C 
ATOM     40  N   UNL     1       5.187   8.749   1.747  0.00  0.00    -0.191 NA
ENDBRANCH  25  39
ENDBRANCH   4  24
TORSDOF 8
