REMARK  Name = ZINC03318027
REMARK  12 active torsions:
REMARK  status: ('A' for Active; 'I' for Inactive)
REMARK    1  A    between atoms: C_1  and  N_59
REMARK    2  A    between atoms: C_2  and  N_59
REMARK    3  A    between atoms: C_3  and  C_5
REMARK    4  A    between atoms: C_3  and  C_27
REMARK    5  A    between atoms: C_3  and  N_59
REMARK    6  A    between atoms: C_5  and  N_6
REMARK    7  A    between atoms: C_7  and  C_9
REMARK    8  A    between atoms: C_10  and  C_11
REMARK    9  A    between atoms: C_14  and  S_17
REMARK   10  A    between atoms: S_17  and  N_20
REMARK   11  A    between atoms: N_20  and  C_21
REMARK   12  A    between atoms: C_21  and  C_22
REMARK                            x       y       z     vdW  Elec       q    Type
REMARK                         _______ _______ _______ _____ _____    ______ ____
ROOT
ATOM      1  C   UNL     1       0.066   3.913   1.066  0.00  0.00    +0.068 C 
ATOM      2  C   UNL     1      -0.937   4.797   1.246  0.00  0.00    +0.013 C 
ENDROOT
BRANCH   2   3
ATOM      3  C   UNL     1      -0.632   6.210   1.521  0.00  0.00    -0.025 A 
ATOM      4  C   UNL     1       0.697   6.640   1.602  0.00  0.00    +0.010 A 
ATOM      5  C   UNL     1       0.974   7.966   1.855  0.00  0.00    +0.029 A 
ATOM      6  C   UNL     1      -0.058   8.870   2.039  0.00  0.00    +0.105 A 
ATOM      7  C   UNL     1      -1.375   8.452   1.966  0.00  0.00    +0.029 A 
ATOM      8  C   UNL     1      -1.669   7.129   1.708  0.00  0.00    +0.010 A 
BRANCH   6   9
ATOM      9  S   UNL     1       0.307  10.562   2.368  0.00  0.00    +0.059 S 
ATOM     10  O   UNL     1       1.606  10.807   1.846  0.00  0.00    -0.153 OA
ATOM     11  O   UNL     1      -0.831  11.310   1.961  0.00  0.00    -0.153 OA
BRANCH   9  12
ATOM     12  N   UNL     1       0.419  10.728   4.012  0.00  0.00    -0.183 NA
ATOM     13  H   UNL     1      -0.223  11.276   4.489  0.00  0.00    +0.148 HD
BRANCH  12  14
ATOM     14  C   UNL     1       1.488  10.046   4.746  0.00  0.00    +0.180 C 
BRANCH  14  15
ATOM     15  C   UNL     1       1.601  10.633   6.129  0.00  0.00    +0.120 A 
ATOM     16  C   UNL     1       0.940  10.207   7.221  0.00  0.00    +0.046 A 
ATOM     17  C   UNL     1       1.343  11.036   8.293  0.00  0.00    +0.041 A 
ATOM     18  C   UNL     1       2.227  11.919   7.793  0.00  0.00    +0.195 A 
ATOM     19  O   UNL     1       2.383  11.666   6.483  0.00  0.00    -0.466 OA
ENDBRANCH  14  15
ENDBRANCH  12  14
ENDBRANCH   9  12
ENDBRANCH   6   9
ENDBRANCH   2   3
BRANCH   1  21
ATOM     20  N   UNL     1       0.765   1.624   0.613  0.00  0.00    -0.313 N 
ATOM     21  C   UNL     1      -0.238   2.507   0.793  0.00  0.00    +0.237 C 
ATOM     22  O   UNL     1      -1.395   2.136   0.728  0.00  0.00    -0.271 OA
ATOM     23  H   UNL     1       1.687   1.921   0.660  0.00  0.00    +0.149 HD
BRANCH  20  24
ATOM     24  C   UNL     1       0.461   0.217   0.340  0.00  0.00    +0.094 C 
BRANCH  24  25
ATOM     25  C   UNL     1       1.760  -0.537   0.046  0.00  0.00    -0.021 C 
BRANCH  25  26
ATOM     26  C   UNL     1       2.392   0.020  -1.204  0.00  0.00    -0.059 A 
ATOM     27  C   UNL     1       1.930  -0.372  -2.446  0.00  0.00    +0.002 A 
ATOM     28  C   UNL     1       2.507   0.141  -3.592  0.00  0.00    +0.000 A 
ATOM     29  C   UNL     1       3.553   1.040  -3.496  0.00  0.00    +0.000 A 
ATOM     30  C   UNL     1       4.018   1.429  -2.254  0.00  0.00    +0.000 A 
ATOM     31  C   UNL     1       3.438   0.918  -1.107  0.00  0.00    +0.002 A 
ENDBRANCH  25  26
BRANCH  25  34
ATOM     32  C   UNL     1       2.696  -2.728  -0.383  0.00  0.00    -0.096 C 
ATOM     33  C   UNL     1       0.717  -2.506   0.994  0.00  0.00    -0.096 C 
ATOM     34  N   UNL     1       1.448  -1.965  -0.172  0.00  0.00    +0.382 N 
ATOM     35  H   UNL     1       0.857  -2.054  -1.007  0.00  0.00    -0.082 HD
ENDBRANCH  25  34
ENDBRANCH  24  25
ENDBRANCH  20  24
ENDBRANCH   1  21
TORSDOF 10
