REMARK  Name = ZINC39984302
REMARK  5 active torsions:
REMARK  status: ('A' for Active; 'I' for Inactive)
REMARK    1  A    between atoms: N_7  and  S_8
REMARK    2  A    between atoms: S_8  and  C_11
REMARK    3  A    between atoms: C_18  and  N_23
REMARK    4  A    between atoms: N_23  and  C_24
REMARK    5  A    between atoms: C_29  and  C_30
REMARK                            x       y       z     vdW  Elec       q    Type
REMARK                         _______ _______ _______ _____ _____    ______ ____
ROOT
ATOM      1  C   UNL     1       0.298   1.501   0.108  0.00  0.00    +0.002 A 
ATOM      2  C   UNL     1       1.527   2.178   0.043  0.00  0.00    +0.002 A 
ATOM      3  C   UNL     1       2.712   1.535  -0.026  0.00  0.00    +0.028 A 
ATOM      4  C   UNL     1       2.760   0.117  -0.035  0.00  0.00    +0.064 A 
ATOM      5  N   UNL     1       3.918  -0.505  -0.102  0.00  0.00    -0.338 N 
ATOM      6  C   UNL     1       3.998  -1.845  -0.112  0.00  0.00    +0.170 C 
ATOM      7  N   UNL     1       5.154  -2.436  -0.179  0.00  0.00    -0.112 NA
ATOM      8  C   UNL     1       2.724  -2.656  -0.045  0.00  0.00    +0.235 C 
ATOM      9  N   UNL     1       1.448  -1.927   0.029  0.00  0.00    -0.359 N 
ATOM     10  C   UNL     1       1.476  -0.624   0.034  0.00  0.00    +0.061 A 
ATOM     11  C   UNL     1       0.229   0.151   0.107  0.00  0.00    +0.027 A 
ATOM     12  H   UNL     1       0.606  -2.406   0.074  0.00  0.00    +0.162 HD
ATOM     13  H   UNL     1       4.734   0.018  -0.145  0.00  0.00    +0.167 HD
ENDROOT
BRANCH   7  14
ATOM     14  S   UNL     1       6.542  -1.535  -0.252  0.00  0.00    +0.100 S 
ATOM     15  O   UNL     1       6.515  -0.846  -1.494  0.00  0.00    -0.146 OA
ATOM     16  O   UNL     1       6.652  -0.858   0.993  0.00  0.00    -0.146 OA
BRANCH  14  17
ATOM     17  C   UNL     1       7.893  -2.664  -0.331  0.00  0.00    +0.113 A 
ATOM     18  C   UNL     1       8.485  -3.117   0.833  0.00  0.00    +0.030 A 
ATOM     19  C   UNL     1       9.544  -4.002   0.771  0.00  0.00    +0.022 A 
ATOM     20  C   UNL     1      10.012  -4.436  -0.457  0.00  0.00    +0.041 A 
ATOM     21  C   UNL     1       9.419  -3.983  -1.622  0.00  0.00    +0.022 A 
ATOM     22  C   UNL     1       8.356  -3.102  -1.558  0.00  0.00    +0.030 A 
ATOM     23 CL   UNL     1      11.343  -5.548  -0.535  0.00  0.00    -0.084 Cl
ENDBRANCH  14  17
ENDBRANCH   7  14
BRANCH   8  24
ATOM     24  N   UNL     1       2.810  -3.527   1.130  0.00  0.00    -0.317 N 
ATOM     25  H   UNL     1       3.145  -3.176   1.970  0.00  0.00    +0.148 HD
BRANCH  24  26
ATOM     26  C   UNL     1       2.413  -4.853   1.042  0.00  0.00    +0.045 A 
ATOM     27  C   UNL     1       2.054  -5.394  -0.186  0.00  0.00    +0.043 A 
ATOM     28  C   UNL     1       1.659  -6.714  -0.272  0.00  0.00    +0.043 A 
ATOM     29  C   UNL     1       1.617  -7.511   0.865  0.00  0.00    +0.021 A 
ATOM     30  C   UNL     1       1.969  -6.993   2.090  0.00  0.00    +0.018 A 
ATOM     31  C   UNL     1       2.377  -5.658   2.193  0.00  0.00    +0.084 A 
ATOM     32 CL   UNL     1       1.210  -7.382  -1.810  0.00  0.00    -0.083 Cl
BRANCH  31  33
ATOM     33  C   UNL     1       2.761  -5.101   3.498  0.00  0.00    +0.388 C 
ATOM     34  O   UNL     1       2.837  -5.831   4.476  0.00  0.00    -0.241 OA
ATOM     35  O   UNL     1       3.005  -3.906   3.605  0.00  0.00    -0.241 OA
ENDBRANCH  31  33
ENDBRANCH  24  26
ENDBRANCH   8  24
TORSDOF 5
