REMARK  Name = ZINC05532667
REMARK  5 active torsions:
REMARK  status: ('A' for Active; 'I' for Inactive)
REMARK    1  A    between atoms: C_1  and  C_2
REMARK    2  A    between atoms: C_2  and  C_4
REMARK    3  A    between atoms: C_2  and  O_16
REMARK    4  A    between atoms: O_16  and  C_17
REMARK    5  A    between atoms: C_17  and  C_19
REMARK                            x       y       z     vdW  Elec       q    Type
REMARK                         _______ _______ _______ _____ _____    ______ ____
ROOT
ATOM      1  C   UNL     1       2.818   0.848   1.422  0.00  0.00    +0.060 C 
ATOM      2  C   UNL     1       2.372   1.127  -0.015  0.00  0.00    +0.239 C 
ENDROOT
BRANCH   2   3
ATOM      3  C   UNL     1       3.447   1.904  -0.731  0.00  0.00    +0.151 A 
ATOM      4  N   UNL     1       3.392   1.980  -2.086  0.00  0.00    -0.307 N 
ATOM      5  H   UNL     1       2.652   1.522  -2.579  0.00  0.00    +0.170 HD
ATOM      6  C   UNL     1       4.329   2.671  -2.776  0.00  0.00    +0.259 A 
ATOM      7  O   UNL     1       4.290   2.751  -3.990  0.00  0.00    -0.267 OA
ATOM      8  C   UNL     1       5.401   3.315  -2.003  0.00  0.00    +0.065 A 
ATOM      9  C   UNL     1       6.417   4.044  -2.617  0.00  0.00    +0.015 A 
ATOM     10  C   UNL     1       7.397   4.627  -1.843  0.00  0.00    +0.001 A 
ATOM     11  C   UNL     1       7.379   4.493  -0.461  0.00  0.00    +0.002 A 
ATOM     12  C   UNL     1       6.383   3.777   0.165  0.00  0.00    +0.028 A 
ATOM     13  C   UNL     1       5.379   3.177  -0.597  0.00  0.00    +0.078 A 
ATOM     14  N   UNL     1       4.380   2.463  -0.022  0.00  0.00    -0.230 NA
ENDBRANCH   2   3
BRANCH   2  15
ATOM     15  O   UNL     1       1.144   1.902   0.001  0.00  0.00    -0.449 OA
BRANCH  15  16
ATOM     16  C   UNL     1      -0.014   1.212   0.009  0.00  0.00    +0.356 C 
ATOM     17  O   UNL     1       0.002  -0.004   0.002  0.00  0.00    -0.243 OA
BRANCH  16  18
ATOM     18  C   UNL     1      -1.296   1.929   0.019  0.00  0.00    +0.125 A 
ATOM     19  C   UNL     1      -2.525   1.347   0.021  0.00  0.00    +0.042 A 
ATOM     20  C   UNL     1      -3.491   2.381   0.032  0.00  0.00    +0.000 A 
ATOM     21  C   UNL     1      -4.893   2.389   0.040  0.00  0.00    +0.010 A 
ATOM     22  C   UNL     1      -5.565   3.576   0.048  0.00  0.00    +0.001 A 
ATOM     23  C   UNL     1      -4.873   4.781   0.052  0.00  0.00    +0.002 A 
ATOM     24  C   UNL     1      -3.497   4.800   0.046  0.00  0.00    +0.026 A 
ATOM     25  C   UNL     1      -2.788   3.601   0.036  0.00  0.00    +0.047 A 
ATOM     26  N   UNL     1      -1.446   3.302   0.033  0.00  0.00    -0.349 N 
ATOM     27  H   UNL     1      -0.723   3.949   0.037  0.00  0.00    +0.166 HD
ENDBRANCH  16  18
ENDBRANCH  15  16
ENDBRANCH   2  15
TORSDOF 4
