REMARK  Name = ZINC02074178
REMARK  17 active torsions:
REMARK  status: ('A' for Active; 'I' for Inactive)
REMARK    1  A    between atoms: C_1  and  C_2
REMARK    2  A    between atoms: C_2  and  C_3
REMARK    3  A    between atoms: C_3  and  C_4
REMARK    4  A    between atoms: C_4  and  O_5
REMARK    5  A    between atoms: O_5  and  C_6
REMARK    6  A    between atoms: C_6  and  C_8
REMARK    7  A    between atoms: C_9  and  C_41
REMARK    8  A    between atoms: C_13  and  C_15
REMARK    9  A    between atoms: C_18  and  O_24
REMARK   10  A    between atoms: C_19  and  O_21
REMARK   11  A    between atoms: O_21  and  C_22
REMARK   12  A    between atoms: C_22  and  C_23
REMARK   13  A    between atoms: C_28  and  C_31
REMARK   14  A    between atoms: C_34  and  O_39
REMARK   15  A    between atoms: C_35  and  O_37
REMARK   16  A    between atoms: O_37  and  C_38
REMARK   17  A    between atoms: O_39  and  C_40
REMARK                            x       y       z     vdW  Elec       q    Type
REMARK                         _______ _______ _______ _____ _____    ______ ____
ROOT
ATOM      1  C   UNL     1       2.654  -3.637   1.204  0.00  0.00    +0.065 C 
ATOM      2  C   UNL     1       2.446  -4.965   1.170  0.00  0.00    +0.016 C 
ATOM      3  N   UNL     1       2.133  -5.587  -0.006  0.00  0.00    -0.321 N 
ATOM      4  C   UNL     1       2.404  -4.988  -1.207  0.00  0.00    +0.016 C 
ATOM      5  C   UNL     1       2.616  -3.657  -1.276  0.00  0.00    +0.024 C 
ATOM      6  C   UNL     1       2.543  -2.800  -0.037  0.00  0.00    +0.092 C 
ATOM      7  C   UNL     1       2.911  -3.031  -2.500  0.00  0.00    +0.162 C 
ATOM      8  O   UNL     1       3.087  -1.829  -2.529  0.00  0.00    -0.292 OA
ATOM      9  C   UNL     1       3.014  -3.823  -3.775  0.00  0.00    +0.088 C 
ATOM     10  C   UNL     1       3.459  -5.251  -3.440  0.00  0.00    +0.032 C 
ATOM     11  C   UNL     1       2.463  -5.849  -2.444  0.00  0.00    +0.059 C 
ATOM     12  C   UNL     1       2.560  -5.772   2.437  0.00  0.00    +0.061 C 
ATOM     13  H   UNL     1       1.659  -6.580   0.006  0.00  0.00    +0.152 HD
ENDROOT
BRANCH   6  14
ATOM     14  C   UNL     1       1.227  -2.064  -0.021  0.00  0.00    -0.032 A 
ATOM     15  C   UNL     1       0.041  -2.773  -0.013  0.00  0.00    +0.008 A 
ATOM     16  C   UNL     1      -1.168  -2.103   0.002  0.00  0.00    +0.049 A 
ATOM     17  C   UNL     1      -1.192  -0.718   0.015  0.00  0.00    +0.158 A 
ATOM     18  C   UNL     1       0.002  -0.004   0.002  0.00  0.00    +0.162 A 
ATOM     19  C   UNL     1       1.210  -0.682  -0.013  0.00  0.00    +0.054 A 
BRANCH  17  20
ATOM     20  O   UNL     1      -2.381  -0.057   0.036  0.00  0.00    -0.503 OA
ATOM     21  H   UNL     1      -2.399   1.043   0.047  0.00  0.00    +0.292 HD
ENDBRANCH  17  20
BRANCH  18  22
ATOM     22  O   UNL     1      -0.016   1.356   0.009  0.00  0.00    -0.489 OA
BRANCH  22  23
ATOM     23  C   UNL     1       1.248   2.022   0.001  0.00  0.00    +0.226 C 
ATOM     24  C   UNL     1       1.027   3.536   0.011  0.00  0.00    +0.048 C 
ENDBRANCH  22  23
ENDBRANCH  18  22
ENDBRANCH   6  14
BRANCH  10  25
ATOM     25  C   UNL     1       3.483  -6.085  -4.695  0.00  0.00    -0.040 A 
ATOM     26  C   UNL     1       2.328  -6.249  -5.437  0.00  0.00    +0.008 A 
ATOM     27  C   UNL     1       2.345  -7.013  -6.589  0.00  0.00    +0.049 A 
ATOM     28  C   UNL     1       3.522  -7.617  -7.002  0.00  0.00    +0.161 A 
ATOM     29  C   UNL     1       4.685  -7.452  -6.255  0.00  0.00    +0.162 A 
ATOM     30  C   UNL     1       4.662  -6.681  -5.104  0.00  0.00    +0.053 A 
BRANCH  29  31
ATOM     31  O   UNL     1       5.842  -8.043  -6.656  0.00  0.00    -0.491 OA
ATOM     32  C   UNL     1       6.996  -7.830  -5.841  0.00  0.00    +0.277 C 
ENDBRANCH  29  31
BRANCH  28  33
ATOM     33  O   UNL     1       3.541  -8.370  -8.134  0.00  0.00    -0.491 OA
ATOM     34  C   UNL     1       2.310  -8.495  -8.850  0.00  0.00    +0.277 C 
ENDBRANCH  28  33
ENDBRANCH  10  25
BRANCH   1  35
ATOM     35  C   UNL     1       2.984  -3.017   2.432  0.00  0.00    +0.338 C 
ATOM     36  O   UNL     1       3.077  -3.685   3.444  0.00  0.00    -0.245 OA
BRANCH  35  37
ATOM     37  O   UNL     1       3.195  -1.685   2.480  0.00  0.00    -0.461 OA
BRANCH  37  38
ATOM     38  C   UNL     1       3.525  -1.127   3.753  0.00  0.00    +0.232 C 
BRANCH  38  39
ATOM     39  C   UNL     1       3.726   0.383   3.610  0.00  0.00    +0.041 C 
BRANCH  39  41
ATOM     40  C   UNL     1       4.281   2.492   4.831  0.00  0.00    +0.004 C 
ATOM     41  C   UNL     1       4.079   0.982   4.974  0.00  0.00    -0.000 C 
ENDBRANCH  39  41
ENDBRANCH  38  39
ENDBRANCH  37  38
ENDBRANCH  35  37
ENDBRANCH   1  35
TORSDOF 12
