REMARK  Name = ZINC59490535
REMARK  14 active torsions:
REMARK  status: ('A' for Active; 'I' for Inactive)
REMARK    1  A    between atoms: C_1  and  C_2
REMARK    2  A    between atoms: C_2  and  C_3
REMARK    3  A    between atoms: C_3  and  C_4
REMARK    4  A    between atoms: C_4  and  C_5
REMARK    5  A    between atoms: C_5  and  C_6
REMARK    6  A    between atoms: C_6  and  O_7
REMARK    7  A    between atoms: O_7  and  C_8
REMARK    8  A    between atoms: C_11  and  N_14
REMARK    9  A    between atoms: C_18  and  S_22
REMARK   10  A    between atoms: S_22  and  C_23
REMARK   11  A    between atoms: N_24  and  C_25
REMARK   12  A    between atoms: C_25  and  C_26
REMARK   13  A    between atoms: N_35  and  C_36
REMARK   14  A    between atoms: C_36  and  C_37
REMARK                            x       y       z     vdW  Elec       q    Type
REMARK                         _______ _______ _______ _____ _____    ______ ____
ROOT
ATOM      1  N   UNL     1       4.239 -10.143  -4.229  0.00  0.00    -0.209 N 
ATOM      2  C   UNL     1       4.088 -11.012  -3.223  0.00  0.00    +0.228 C 
ATOM      3  O   UNL     1       4.041 -10.724  -2.046  0.00  0.00    -0.275 OA
ATOM      4  C   UNL     1       3.983 -12.412  -3.787  0.00  0.00    +0.120 C 
ATOM      5  C   UNL     1       4.102 -12.199  -5.309  0.00  0.00    +0.149 C 
ATOM      6  C   UNL     1       4.256 -10.700  -5.446  0.00  0.00    +0.240 C 
ATOM      7  O   UNL     1       4.377 -10.099  -6.492  0.00  0.00    -0.274 OA
ENDROOT
BRANCH   1  11
ATOM      8  C   UNL     1       4.614  -6.032  -3.622  0.00  0.00    +0.121 A 
ATOM      9  C   UNL     1       3.550  -6.530  -4.360  0.00  0.00    +0.047 A 
ATOM     10  C   UNL     1       3.425  -7.890  -4.561  0.00  0.00    +0.027 A 
ATOM     11  C   UNL     1       4.365  -8.760  -4.025  0.00  0.00    +0.044 A 
ATOM     12  C   UNL     1       5.430  -8.261  -3.287  0.00  0.00    +0.027 A 
ATOM     13  C   UNL     1       5.556  -6.900  -3.091  0.00  0.00    +0.047 A 
BRANCH   8  14
ATOM     14  O   UNL     1       4.736  -4.692  -3.425  0.00  0.00    -0.492 OA
BRANCH  14  15
ATOM     15  C   UNL     1       3.729  -3.857  -4.000  0.00  0.00    +0.229 C 
BRANCH  15  16
ATOM     16  C   UNL     1       4.033  -2.394  -3.674  0.00  0.00    +0.041 C 
BRANCH  16  17
ATOM     17  C   UNL     1       2.955  -1.500  -4.291  0.00  0.00    +0.003 C 
BRANCH  17  18
ATOM     18  C   UNL     1       3.259  -0.036  -3.965  0.00  0.00    -0.000 C 
BRANCH  18  20
ATOM     19  C   UNL     1       2.485   2.322  -4.255  0.00  0.00    +0.004 C 
ATOM     20  C   UNL     1       2.181   0.858  -4.581  0.00  0.00    -0.003 C 
ENDBRANCH  18  20
ENDBRANCH  17  18
ENDBRANCH  16  17
ENDBRANCH  15  16
ENDBRANCH  14  15
ENDBRANCH   8  14
ENDBRANCH   1  11
BRANCH   5  21
ATOM     21  S   UNL     1       2.599 -12.764  -6.153  0.00  0.00    -0.079 S 
BRANCH  21  22
ATOM     22  C   UNL     1       2.976 -12.581  -7.864  0.00  0.00    +0.129 C 
ATOM     23  N   UNL     1       2.091 -12.906  -8.765  0.00  0.00    -0.364 N 
ATOM     24  N   UNL     1       4.204 -12.097  -8.250  0.00  0.00    -0.326 N 
ATOM     25  H   UNL     1       5.014 -12.561  -7.986  0.00  0.00    +0.148 HD
ATOM     26  H   UNL     1       1.198 -13.171  -8.495  0.00  0.00    +0.162 HD
BRANCH  24  27
ATOM     27  C   UNL     1       4.290 -10.879  -9.059  0.00  0.00    +0.100 C 
ATOM     28  C   UNL     1       5.753 -10.453  -9.188  0.00  0.00    +0.024 C 
ENDBRANCH  24  27
BRANCH  23  29
ATOM     29  C   UNL     1       2.445 -12.870 -10.187  0.00  0.00    +0.150 C 
BRANCH  29  30
ATOM     30  C   UNL     1       1.338 -13.494 -10.996  0.00  0.00    -0.025 A 
ATOM     31  C   UNL     1       1.356 -14.851 -11.258  0.00  0.00    +0.009 A 
ATOM     32  C   UNL     1       0.342 -15.429 -12.000  0.00  0.00    +0.050 A 
ATOM     33  C   UNL     1      -0.695 -14.647 -12.483  0.00  0.00    +0.166 A 
ATOM     34  C   UNL     1      -0.713 -13.280 -12.220  0.00  0.00    +0.167 A 
ATOM     35  C   UNL     1       0.303 -12.709 -11.471  0.00  0.00    +0.055 A 
ATOM     36  O   UNL     1      -1.825 -12.739 -12.798  0.00  0.00    -0.453 OA
ATOM     37  C   UNL     1      -2.270 -13.713 -13.761  0.00  0.00    +0.466 C 
ATOM     38  O   UNL     1      -1.795 -14.963 -13.227  0.00  0.00    -0.453 OA
ENDBRANCH  29  30
ENDBRANCH  23  29
ENDBRANCH  21  22
ENDBRANCH   5  21
TORSDOF 12
