REMARK  Name = ZINC14625400
REMARK  10 active torsions:
REMARK  status: ('A' for Active; 'I' for Inactive)
REMARK    1  A    between atoms: C_1  and  C_2
REMARK    2  A    between atoms: C_2  and  C_3
REMARK    3  A    between atoms: C_3  and  C_4
REMARK    4  A    between atoms: C_4  and  N_5
REMARK    5  A    between atoms: C_6  and  N_32
REMARK    6  A    between atoms: C_7  and  N_14
REMARK    7  A    between atoms: N_14  and  C_15
REMARK    8  A    between atoms: C_15  and  C_16
REMARK    9  A    between atoms: C_22  and  C_24
REMARK   10  A    between atoms: C_24  and  C_25
REMARK                            x       y       z     vdW  Elec       q    Type
REMARK                         _______ _______ _______ _____ _____    ______ ____
ROOT
ATOM      1  N   UNL     1       1.129   3.533   0.028  0.00  0.00    -0.260 N 
ATOM      2  C   UNL     1       0.011   4.178   0.422  0.00  0.00    +0.225 C 
ATOM      3  O   UNL     1      -1.062   3.614   0.381  0.00  0.00    -0.275 OA
ENDROOT
BRANCH   1   6
ATOM      4  N   UNL     1       1.616  -0.108   0.081  0.00  0.00    -0.280 N 
ATOM      5  C   UNL     1       1.693   1.214   0.451  0.00  0.00    +0.127 A 
ATOM      6  C   UNL     1       1.068   2.169  -0.326  0.00  0.00    +0.140 A 
ATOM      7  C   UNL     1       0.369   1.758  -1.476  0.00  0.00    +0.277 A 
ATOM      8  O   UNL     1      -0.193   2.580  -2.179  0.00  0.00    -0.266 OA
ATOM      9  N   UNL     1       0.323   0.449  -1.794  0.00  0.00    -0.273 N 
ATOM     10  H   UNL     1      -0.173   0.156  -2.611  0.00  0.00    +0.173 HD
ATOM     11  C   UNL     1       0.939  -0.467  -1.025  0.00  0.00    +0.331 A 
ATOM     12  O   UNL     1       0.882  -1.641  -1.336  0.00  0.00    -0.246 OA
BRANCH   5  13
ATOM     13  N   UNL     1       2.380   1.580   1.583  0.00  0.00    -0.343 N 
ATOM     14  H   UNL     1       2.750   0.900   2.167  0.00  0.00    +0.144 HD
ATOM     15  H   UNL     1       2.495   2.519   1.799  0.00  0.00    +0.144 HD
ENDBRANCH   5  13
BRANCH   4  16
ATOM     16  C   UNL     1       2.274  -1.132   0.895  0.00  0.00    +0.128 C 
BRANCH  16  17
ATOM     17  C   UNL     1       1.302  -1.638   1.963  0.00  0.00    +0.021 C 
BRANCH  17  19
ATOM     18  C   UNL     1       1.016  -3.212   3.881  0.00  0.00    +0.004 C 
ATOM     19  C   UNL     1       1.989  -2.707   2.814  0.00  0.00    -0.002 C 
ENDBRANCH  17  19
ENDBRANCH  16  17
ENDBRANCH   4  16
ENDBRANCH   1   6
BRANCH   1  20
ATOM     20  C   UNL     1       2.405   4.250  -0.033  0.00  0.00    +0.149 C 
BRANCH  20  21
ATOM     21  C   UNL     1       2.643   4.734  -1.440  0.00  0.00    -0.030 A 
ATOM     22  C   UNL     1       3.244   3.902  -2.366  0.00  0.00    +0.005 A 
ATOM     23  C   UNL     1       3.457   4.344  -3.658  0.00  0.00    +0.000 A 
ATOM     24  C   UNL     1       3.078   5.623  -4.022  0.00  0.00    +0.000 A 
ATOM     25  C   UNL     1       2.482   6.457  -3.095  0.00  0.00    +0.000 A 
ATOM     26  C   UNL     1       2.264   6.013  -1.804  0.00  0.00    +0.005 A 
ENDBRANCH  20  21
ENDBRANCH   1  20
BRANCH   2  27
ATOM     27  C   UNL     1       0.096   5.601   0.914  0.00  0.00    +0.131 C 
BRANCH  27  28
ATOM     28  C   UNL     1      -1.251   6.034   1.433  0.00  0.00    -0.039 A 
ATOM     29  C   UNL     1      -2.160   6.632   0.581  0.00  0.00    +0.005 A 
ATOM     30  C   UNL     1      -3.397   7.025   1.056  0.00  0.00    +0.015 A 
ATOM     31  C   UNL     1      -3.722   6.829   2.386  0.00  0.00    +0.018 A 
ATOM     32  C   UNL     1      -2.809   6.235   3.240  0.00  0.00    +0.015 A 
ATOM     33  C   UNL     1      -1.575   5.837   2.763  0.00  0.00    +0.005 A 
ATOM     34 BR   UNL     1      -5.412   7.372   3.038  0.00  0.00    -0.050 Br
ENDBRANCH  27  28
ENDBRANCH   2  27
TORSDOF 9
