REMARK  Name = ZINC09012681
REMARK  6 active torsions:
REMARK  status: ('A' for Active; 'I' for Inactive)
REMARK    1  A    between atoms: C_1  and  C_2
REMARK    2  A    between atoms: N_24  and  C_27
REMARK    3  A    between atoms: C_29  and  O_37
REMARK    4  A    between atoms: C_30  and  N_34
REMARK    5  A    between atoms: C_32  and  C_33
REMARK    6  A    between atoms: O_37  and  C_38
REMARK                            x       y       z     vdW  Elec       q    Type
REMARK                         _______ _______ _______ _____ _____    ______ ____
ROOT
ATOM      1  C   UNL     1      -0.224   4.011   6.449  0.00  0.00    +0.044 C 
ATOM      2  C   UNL     1      -1.299   4.399   5.467  0.00  0.00    -0.049 A 
ATOM      3  C   UNL     1      -1.429   3.710   4.273  0.00  0.00    +0.008 A 
ATOM      4  C   UNL     1      -2.411   4.066   3.376  0.00  0.00    -0.026 A 
ATOM      5  C   UNL     1      -3.280   5.116   3.655  0.00  0.00    +0.054 A 
ATOM      6  C   UNL     1      -3.143   5.804   4.859  0.00  0.00    +0.063 A 
ATOM      7  C   UNL     1      -2.157   5.444   5.755  0.00  0.00    +0.025 A 
ATOM      8 CL   UNL     1      -4.214   7.119   5.231  0.00  0.00    -0.082 Cl
ATOM      9  N   UNL     1      -4.184   5.287   2.603  0.00  0.00    -0.285 N 
ATOM     10  C   UNL     1      -3.978   4.403   1.608  0.00  0.00    +0.212 C 
ATOM     11  O   UNL     1      -4.607   4.316   0.575  0.00  0.00    -0.277 OA
ATOM     12  C   UNL     1      -2.817   3.542   2.027  0.00  0.00    +0.053 C 
ATOM     13  C   UNL     1      -3.216   2.063   2.097  0.00  0.00    +0.089 C 
ATOM     14  C   UNL     1      -1.955   1.293   1.616  0.00  0.00    +0.074 C 
ATOM     15  C   UNL     1      -0.912   2.382   1.299  0.00  0.00    -0.054 C 
ATOM     16  C   UNL     1      -2.232   3.477  -0.319  0.00  0.00    -0.076 C 
ATOM     17  C   UNL     1      -1.096   2.800  -1.111  0.00  0.00    -0.020 C 
ATOM     18  C   UNL     1      -0.246   2.070  -0.053  0.00  0.00    -0.016 C 
ATOM     19  C   UNL     1      -1.523   0.528   2.845  0.00  0.00    +0.228 C 
ATOM     20  O   UNL     1      -0.563  -0.210   2.910  0.00  0.00    -0.275 OA
ATOM     21  N   UNL     1      -2.365   0.791   3.852  0.00  0.00    -0.210 N 
ATOM     22  C   UNL     1      -3.368   1.644   3.542  0.00  0.00    +0.229 C 
ATOM     23  O   UNL     1      -4.245   2.017   4.291  0.00  0.00    -0.275 OA
ATOM     24  H   UNL     1      -4.879   5.964   2.591  0.00  0.00    +0.155 HD
ATOM     25  N   UNL     1      -1.711   3.563   1.057  0.00  0.00    +0.395 N 
ATOM     26  H   UNL     1      -1.151   4.415   1.172  0.00  0.00    -0.079 HD
ENDROOT
BRANCH  21  27
ATOM     27  C   UNL     1      -2.223   0.225   5.126  0.00  0.00    +0.050 A 
ATOM     28  C   UNL     1      -1.117   0.533   5.905  0.00  0.00    +0.072 A 
ATOM     29  C   UNL     1      -0.980  -0.029   7.164  0.00  0.00    +0.152 A 
ATOM     30  C   UNL     1      -1.950  -0.898   7.644  0.00  0.00    +0.168 A 
ATOM     31  C   UNL     1      -3.051  -1.204   6.867  0.00  0.00    +0.041 A 
ATOM     32  C   UNL     1      -3.193  -0.641   5.614  0.00  0.00    -0.026 A 
ATOM     33  C   UNL     1      -4.399  -0.971   4.772  0.00  0.00    +0.046 C 
BRANCH  30  34
ATOM     34  N   UNL     1      -1.805  -1.499   8.989  0.00  0.00    +0.060 N 
ATOM     35  O   UNL     1      -2.656  -2.261   9.411  0.00  0.00    -0.126 OA
ATOM     36  O   UNL     1      -0.834  -1.230   9.674  0.00  0.00    -0.126 OA
ENDBRANCH  30  34
BRANCH  29  37
ATOM     37  O   UNL     1       0.103   0.270   7.929  0.00  0.00    -0.493 OA
ATOM     38  C   UNL     1       1.125   1.063   7.323  0.00  0.00    +0.277 C 
ENDBRANCH  29  37
ENDBRANCH  21  27
TORSDOF 3
