REMARK  Name = ZINC04282516
REMARK  9 active torsions:
REMARK  status: ('A' for Active; 'I' for Inactive)
REMARK    1  A    between atoms: C_1  and  C_2
REMARK    2  A    between atoms: C_2  and  O_3
REMARK    3  A    between atoms: O_3  and  C_4
REMARK    4  A    between atoms: C_4  and  C_6
REMARK    5  A    between atoms: C_10  and  N_11
REMARK    6  A    between atoms: C_12  and  C_14
REMARK    7  A    between atoms: N_16  and  N_17
REMARK    8  A    between atoms: C_18  and  C_19
REMARK    9  A    between atoms: C_34  and  C_38
REMARK                            x       y       z     vdW  Elec       q    Type
REMARK                         _______ _______ _______ _____ _____    ______ ____
ROOT
ATOM      1  C   UNL     1      -1.802  -1.030  -4.906  0.00  0.00    +0.318 C 
ATOM      2  O   UNL     1      -0.768  -0.427  -5.117  0.00  0.00    -0.263 OA
ATOM      3  N   UNL     1      -2.561  -1.448  -5.939  0.00  0.00    -0.199 N 
ATOM      4  H   UNL     1      -3.386  -1.929  -5.770  0.00  0.00    +0.178 HD
ENDROOT
BRANCH   1   6
ATOM      5  N   UNL     1      -1.470  -0.891  -2.474  0.00  0.00    -0.271 N 
ATOM      6  C   UNL     1      -2.229  -1.309  -3.507  0.00  0.00    +0.305 C 
ATOM      7  O   UNL     1      -3.262  -1.912  -3.296  0.00  0.00    -0.265 OA
ATOM      8  H   UNL     1      -0.645  -0.410  -2.643  0.00  0.00    +0.156 HD
BRANCH   5  13
ATOM      9  C   UNL     1      -1.226  -0.805   0.009  0.00  0.00    +0.091 A 
ATOM     10  C   UNL     1      -1.864  -1.194   1.255  0.00  0.00    -0.021 A 
ATOM     11  C   UNL     1      -3.028  -1.867   1.121  0.00  0.00    -0.004 A 
ATOM     12  S   UNL     1      -3.283  -1.986  -0.627  0.00  0.00    -0.077 S 
ATOM     13  C   UNL     1      -1.867  -1.150  -1.175  0.00  0.00    +0.087 A 
ATOM     14  C   UNL     1      -3.900  -2.391   2.219  0.00  0.00    +0.046 C 
ATOM     15  C   UNL     1      -3.091  -2.382   3.525  0.00  0.00    -0.009 C 
ATOM     16  C   UNL     1      -2.406  -1.020   3.671  0.00  0.00    +0.008 C 
ATOM     17  C   UNL     1      -1.291  -0.884   2.633  0.00  0.00    +0.037 C 
ATOM     18  C   UNL     1      -4.029  -2.618   4.710  0.00  0.00    +0.008 C 
BRANCH   9  19
ATOM     19  C   UNL     1       0.041  -0.071   0.001  0.00  0.00    +0.342 C 
ATOM     20  O   UNL     1       1.095  -0.677  -0.017  0.00  0.00    -0.245 OA
BRANCH  19  21
ATOM     21  O   UNL     1       0.040   1.278   0.013  0.00  0.00    -0.461 OA
BRANCH  21  23
ATOM     22  C   UNL     1       1.130   3.455   0.020  0.00  0.00    +0.048 C 
ATOM     23  C   UNL     1       1.332   1.939   0.004  0.00  0.00    +0.229 C 
ENDBRANCH  21  23
ENDBRANCH  19  21
ENDBRANCH   9  19
ENDBRANCH   5  13
ENDBRANCH   1   6
BRANCH   3  24
ATOM     24  N   UNL     1      -2.159  -1.186  -7.255  0.00  0.00    -0.187 NA
ATOM     25  C   UNL     1      -2.893  -1.589  -8.253  0.00  0.00    +0.139 C 
BRANCH  25  26
ATOM     26  C   UNL     1      -2.473  -1.316  -9.629  0.00  0.00    +0.010 A 
ATOM     27  C   UNL     1      -3.192  -1.856 -10.716  0.00  0.00    -0.009 A 
ATOM     28  C   UNL     1      -4.329  -2.655 -10.508  0.00  0.00    +0.009 A 
ATOM     29  C   UNL     1      -5.004  -3.156 -11.578  0.00  0.00    +0.001 A 
ATOM     30  C   UNL     1      -4.600  -2.892 -12.886  0.00  0.00    +0.001 A 
ATOM     31  C   UNL     1      -3.513  -2.123 -13.154  0.00  0.00    +0.008 A 
ATOM     32  C   UNL     1      -2.769  -1.573 -12.088  0.00  0.00    -0.017 A 
ATOM     33  C   UNL     1      -1.647  -0.778 -12.331  0.00  0.00    +0.017 A 
ATOM     34  C   UNL     1      -0.927  -0.244 -11.261  0.00  0.00    -0.017 A 
ATOM     35  C   UNL     1      -1.341  -0.513  -9.883  0.00  0.00    -0.009 A 
ATOM     36  C   UNL     1      -0.593   0.040  -8.830  0.00  0.00    +0.009 A 
ATOM     37  C   UNL     1       0.494   0.810  -9.109  0.00  0.00    +0.001 A 
ATOM     38  C   UNL     1       0.890   1.068 -10.421  0.00  0.00    +0.001 A 
ATOM     39  C   UNL     1       0.210   0.562 -11.483  0.00  0.00    +0.008 A 
ENDBRANCH  25  26
ENDBRANCH   3  24
TORSDOF 7
