REMARK  Name = ZINC63075010
REMARK  7 active torsions:
REMARK  status: ('A' for Active; 'I' for Inactive)
REMARK    1  A    between atoms: C_3  and  N_20
REMARK    2  A    between atoms: C_5  and  N_7
REMARK    3  A    between atoms: C_8  and  C_10
REMARK    4  A    between atoms: C_21  and  C_23
REMARK    5  A    between atoms: C_23  and  S_24
REMARK    6  A    between atoms: S_24  and  C_25
REMARK    7  A    between atoms: C_31  and  N_35
REMARK                            x       y       z     vdW  Elec       q    Type
REMARK                         _______ _______ _______ _____ _____    ______ ____
ROOT
ATOM      1  C   UNL     1       0.035   1.278  -0.234  0.00  0.00    +0.004 A 
ATOM      2  C   UNL     1       1.199   2.020  -0.174  0.00  0.00    +0.023 A 
ATOM      3  C   UNL     1       2.411   1.394   0.090  0.00  0.00    +0.035 A 
ATOM      4  C   UNL     1       2.452   0.022   0.293  0.00  0.00    +0.046 A 
ATOM      5  C   UNL     1       1.281  -0.720   0.232  0.00  0.00    +0.035 A 
ATOM      6  C   UNL     1       0.072  -0.088  -0.032  0.00  0.00    +0.023 A 
ENDROOT
BRANCH   5   7
ATOM      7  N   UNL     1       1.318  -2.104   0.436  0.00  0.00    -0.285 N 
ATOM      8  C   UNL     1       2.214  -2.635   1.292  0.00  0.00    +0.223 C 
ATOM      9  O   UNL     1       2.924  -1.909   1.956  0.00  0.00    -0.275 OA
ATOM     10  H   UNL     1       0.700  -2.681  -0.038  0.00  0.00    +0.155 HD
BRANCH   8  11
ATOM     11  C   UNL     1       2.333  -4.132   1.425  0.00  0.00    +0.048 C 
ATOM     12  C   UNL     1       0.994  -4.712   1.884  0.00  0.00    +0.019 C 
ATOM     13  C   UNL     1       1.116  -6.231   2.018  0.00  0.00    -0.009 C 
ATOM     14  C   UNL     1       2.197  -6.567   3.048  0.00  0.00    +0.007 C 
ATOM     15  C   UNL     1       3.536  -5.987   2.588  0.00  0.00    -0.009 C 
ATOM     16  C   UNL     1       3.415  -4.468   2.454  0.00  0.00    +0.019 C 
ATOM     17  C   UNL     1       3.916  -6.590   1.234  0.00  0.00    +0.007 C 
ATOM     18  C   UNL     1       2.835  -6.254   0.205  0.00  0.00    -0.009 C 
ATOM     19  C   UNL     1       1.495  -6.834   0.664  0.00  0.00    +0.007 C 
ATOM     20  C   UNL     1       2.713  -4.735   0.071  0.00  0.00    +0.019 C 
ENDBRANCH   8  11
ENDBRANCH   5   7
BRANCH   3  21
ATOM     21  N   UNL     1       3.589   2.147   0.150  0.00  0.00    -0.285 N 
ATOM     22  C   UNL     1       3.569   3.390   0.670  0.00  0.00    +0.227 C 
ATOM     23  O   UNL     1       2.517   3.889   1.008  0.00  0.00    -0.275 OA
ATOM     24  H   UNL     1       4.420   1.773  -0.183  0.00  0.00    +0.155 HD
BRANCH  22  25
ATOM     25  C   UNL     1       4.854   4.160   0.830  0.00  0.00    +0.169 C 
BRANCH  25  26
ATOM     26  S   UNL     1       4.499   5.786   1.551  0.00  0.00    -0.106 S 
BRANCH  26  27
ATOM     27  C   UNL     1       6.127   6.576   1.677  0.00  0.00    +0.236 C 
ATOM     28  N   UNL     1       7.025   5.751   2.495  0.00  0.00    -0.355 N 
ATOM     29  C   UNL     1       8.033   5.410   1.744  0.00  0.00    +0.061 A 
ATOM     30  C   UNL     1       9.235   4.602   1.992  0.00  0.00    +0.029 A 
ATOM     31  C   UNL     1      10.127   4.415   1.000  0.00  0.00    +0.035 A 
ATOM     32  C   UNL     1       9.960   4.965  -0.284  0.00  0.00    +0.128 A 
ATOM     33  C   UNL     1       8.895   5.721  -0.617  0.00  0.00    +0.060 A 
ATOM     34  C   UNL     1       7.856   5.992   0.386  0.00  0.00    +0.063 A 
ATOM     35  N   UNL     1       6.745   6.672   0.349  0.00  0.00    -0.355 N 
ATOM     36  H   UNL     1       6.390   7.153  -0.415  0.00  0.00    +0.162 HD
ATOM     37  H   UNL     1       6.893   5.505   3.424  0.00  0.00    +0.162 HD
BRANCH  32  38
ATOM     38  N   UNL     1      10.995   4.704  -1.309  0.00  0.00    +0.056 N 
ATOM     39  O   UNL     1      11.960   4.029  -1.036  0.00  0.00    -0.126 OA
ATOM     40  O   UNL     1      10.874   5.165  -2.420  0.00  0.00    -0.126 OA
ENDBRANCH  32  38
ENDBRANCH  26  27
ENDBRANCH  25  26
ENDBRANCH  22  25
ENDBRANCH   3  21
TORSDOF 7
