REMARK  Name = ZINC03037250
REMARK  10 active torsions:
REMARK  status: ('A' for Active; 'I' for Inactive)
REMARK    1  A    between atoms: C_1  and  C_2
REMARK    2  A    between atoms: C_2  and  C_3
REMARK    3  A    between atoms: C_6  and  N_9
REMARK    4  A    between atoms: N_9  and  C_10
REMARK    5  A    between atoms: C_10  and  N_12
REMARK    6  A    between atoms: N_12  and  N_13
REMARK    7  A    between atoms: C_17  and  S_27
REMARK    8  A    between atoms: N_21  and  C_24
REMARK    9  A    between atoms: C_24  and  C_25
REMARK   10  A    between atoms: S_27  and  N_30
REMARK                            x       y       z     vdW  Elec       q    Type
REMARK                         _______ _______ _______ _____ _____    ______ ____
ROOT
ATOM      1  N   UNL     1      -7.935  -2.720   0.122  0.00  0.00    -0.175 NA
ATOM      2  C   UNL     1      -9.196  -3.080   0.138  0.00  0.00    +0.153 C 
ATOM      3  C   UNL     1     -10.036  -3.372   1.323  0.00  0.00    +0.030 A 
ATOM      4  C   UNL     1      -9.789  -3.361   2.691  0.00  0.00    +0.040 A 
ATOM      5  C   UNL     1     -10.800  -3.689   3.572  0.00  0.00    +0.106 A 
ATOM      6  C   UNL     1     -12.055  -4.027   3.094  0.00  0.00    +0.030 A 
ATOM      7  C   UNL     1     -12.309  -4.041   1.738  0.00  0.00    +0.026 A 
ATOM      8  C   UNL     1     -11.304  -3.713   0.835  0.00  0.00    +0.046 A 
ATOM      9  N   UNL     1     -11.293  -3.650  -0.554  0.00  0.00    -0.262 N 
ATOM     10  C   UNL     1     -10.089  -3.279  -1.020  0.00  0.00    +0.272 C 
ATOM     11  O   UNL     1      -9.787  -3.134  -2.190  0.00  0.00    -0.268 OA
ENDROOT
BRANCH   5  12
ATOM     12  S   UNL     1     -10.493  -3.677   5.308  0.00  0.00    +0.061 S 
ATOM     13  O   UNL     1     -11.449  -4.549   5.895  0.00  0.00    -0.153 OA
ATOM     14  O   UNL     1      -9.094  -3.858   5.474  0.00  0.00    -0.153 OA
BRANCH  12  15
ATOM     15  N   UNL     1     -10.842  -2.154   5.856  0.00  0.00    -0.172 NA
ATOM     16  C   UNL     1      -9.810  -1.105   5.888  0.00  0.00    +0.137 C 
ATOM     17  C   UNL     1     -10.371   0.146   5.202  0.00  0.00    +0.177 C 
ATOM     18  O   UNL     1     -11.632   0.478   5.787  0.00  0.00    -0.377 OA
ATOM     19  C   UNL     1     -12.638  -0.524   5.618  0.00  0.00    +0.177 C 
ATOM     20  C   UNL     1     -12.195  -1.808   6.320  0.00  0.00    +0.137 C 
ENDBRANCH  12  15
ENDBRANCH   5  12
BRANCH   1  21
ATOM     21  N   UNL     1      -7.292  -2.476  -1.099  0.00  0.00    -0.217 N 
ATOM     22  H   UNL     1      -7.779  -2.575  -1.932  0.00  0.00    +0.176 HD
BRANCH  21  23
ATOM     23  C   UNL     1      -5.996  -2.106  -1.115  0.00  0.00    +0.154 C 
ATOM     24  S   UNL     1      -5.210  -1.808  -2.607  0.00  0.00    -0.017 S 
BRANCH  23  25
ATOM     25  N   UNL     1      -5.319  -1.969   0.042  0.00  0.00    -0.296 N 
ATOM     26  H   UNL     1      -5.739  -2.214   0.881  0.00  0.00    +0.154 HD
BRANCH  25  30
ATOM     27  C   UNL     1      -1.424  -0.492   0.017  0.00  0.00    -0.048 A 
ATOM     28  C   UNL     1      -2.387   0.086  -0.791  0.00  0.00    +0.005 A 
ATOM     29  C   UNL     1      -3.679  -0.401  -0.785  0.00  0.00    +0.023 A 
ATOM     30  C   UNL     1      -4.011  -1.473   0.033  0.00  0.00    +0.033 A 
ATOM     31  C   UNL     1      -3.042  -2.052   0.843  0.00  0.00    +0.023 A 
ATOM     32  C   UNL     1      -1.751  -1.563   0.828  0.00  0.00    +0.005 A 
BRANCH  27  34
ATOM     33  C   UNL     1       0.800  -0.687  -1.061  0.00  0.00    +0.009 C 
ATOM     34  C   UNL     1      -0.015   0.043   0.008  0.00  0.00    +0.032 C 
ENDBRANCH  27  34
ENDBRANCH  25  30
ENDBRANCH  23  25
ENDBRANCH  21  23
ENDBRANCH   1  21
BRANCH   9  35
ATOM     35  C   UNL     1     -12.451  -3.943  -1.402  0.00  0.00    +0.140 C 
BRANCH  35  36
ATOM     36  C   UNL     1     -13.239  -2.679  -1.633  0.00  0.00    -0.015 C 
ATOM     37  C   UNL     1     -13.497  -2.283  -2.855  0.00  0.00    +0.005 C 
ENDBRANCH  35  36
ENDBRANCH   9  35
TORSDOF 9
