REMARK  Name = ZINC15900662
REMARK  5 active torsions:
REMARK  status: ('A' for Active; 'I' for Inactive)
REMARK    1  A    between atoms: C_1  and  C_2
REMARK    2  A    between atoms: N_4  and  C_5
REMARK    3  A    between atoms: C_8  and  C_11
REMARK    4  A    between atoms: N_13  and  N_14
REMARK    5  A    between atoms: C_15  and  C_17
REMARK                            x       y       z     vdW  Elec       q    Type
REMARK                         _______ _______ _______ _____ _____    ______ ____
ROOT
ATOM      1  C   UNL     1      -1.064   7.786   0.421  0.00  0.00    +0.260 C 
ATOM      2  O   UNL     1      -2.102   8.413   0.516  0.00  0.00    -0.269 OA
ATOM      3  N   UNL     1       0.117   8.435   0.412  0.00  0.00    -0.230 N 
ATOM      4  H   UNL     1       0.944   7.935   0.336  0.00  0.00    +0.173 HD
ENDROOT
BRANCH   1   8
ATOM      5  C   UNL     1      -1.162   3.551   0.119  0.00  0.00    +0.033 A 
ATOM      6  C   UNL     1       0.058   4.219   0.115  0.00  0.00    +0.024 A 
ATOM      7  C   UNL     1       0.093   5.592   0.207  0.00  0.00    +0.015 A 
ATOM      8  C   UNL     1      -1.098   6.314   0.317  0.00  0.00    +0.038 A 
ATOM      9  C   UNL     1      -2.322   5.640   0.327  0.00  0.00    +0.015 A 
ATOM     10  C   UNL     1      -2.350   4.267   0.229  0.00  0.00    +0.024 A 
BRANCH   5  14
ATOM     11  C   UNL     1      -0.231   0.010  -0.731  0.00  0.00    +0.109 C 
ATOM     12  C   UNL     1      -0.267   1.516  -0.716  0.00  0.00    +0.214 C 
ATOM     13  O   UNL     1       0.535   2.149  -1.370  0.00  0.00    -0.276 OA
ATOM     14  N   UNL     1      -1.195   2.161   0.019  0.00  0.00    -0.286 N 
ATOM     15  H   UNL     1      -1.884   1.657   0.480  0.00  0.00    +0.155 HD
ENDBRANCH   5  14
ENDBRANCH   1   8
BRANCH   3  16
ATOM     16  N   UNL     1       0.149   9.833   0.511  0.00  0.00    -0.234 N 
ATOM     17  C   UNL     1       1.330  10.482   0.501  0.00  0.00    +0.235 C 
ATOM     18  O   UNL     1       2.365   9.856   0.407  0.00  0.00    -0.274 OA
ATOM     19  H   UNL     1      -0.679  10.333   0.587  0.00  0.00    +0.173 HD
BRANCH  17  20
ATOM     20  C   UNL     1       1.365  11.985   0.608  0.00  0.00    +0.049 C 
ATOM     21  C   UNL     1       0.597  12.597  -0.565  0.00  0.00    +0.019 C 
ATOM     22  C   UNL     1       0.632  14.123  -0.457  0.00  0.00    -0.009 C 
ATOM     23  C   UNL     1       2.084  14.603  -0.491  0.00  0.00    +0.007 C 
ATOM     24  C   UNL     1       2.853  13.991   0.682  0.00  0.00    -0.009 C 
ATOM     25  C   UNL     1       2.817  12.465   0.573  0.00  0.00    +0.019 C 
ATOM     26  C   UNL     1       2.204  14.424   1.998  0.00  0.00    +0.007 C 
ATOM     27  C   UNL     1       0.751  13.943   2.033  0.00  0.00    -0.009 C 
ATOM     28  C   UNL     1      -0.017  14.556   0.860  0.00  0.00    +0.007 C 
ATOM     29  C   UNL     1       0.716  12.417   1.924  0.00  0.00    +0.019 C 
ENDBRANCH  17  20
ENDBRANCH   3  16
TORSDOF 4
