REMARK  Name = ZINC21326479
REMARK  10 active torsions:
REMARK  status: ('A' for Active; 'I' for Inactive)
REMARK    1  A    between atoms: C_1  and  C_2
REMARK    2  A    between atoms: C_2  and  O_3
REMARK    3  A    between atoms: O_3  and  C_4
REMARK    4  A    between atoms: C_6  and  C_11
REMARK    5  A    between atoms: C_9  and  O_10
REMARK    6  A    between atoms: N_12  and  N_13
REMARK    7  A    between atoms: C_17  and  S_20
REMARK    8  A    between atoms: N_18  and  N_19
REMARK    9  A    between atoms: S_20  and  C_21
REMARK   10  A    between atoms: C_21  and  C_22
REMARK                            x       y       z     vdW  Elec       q    Type
REMARK                         _______ _______ _______ _____ _____    ______ ____
ROOT
ATOM      1  N   UNL     1      -1.438   7.183   2.415  0.00  0.00    -0.204 N 
ATOM      2  C   UNL     1      -1.074   5.997   1.795  0.00  0.00    +0.254 A 
ATOM      3  N   UNL     1      -0.431   5.887   0.658  0.00  0.00    -0.109 NA
ATOM      4  N   UNL     1      -0.263   4.523   0.386  0.00  0.00    -0.119 NA
ATOM      5  C   UNL     1      -0.809   3.844   1.366  0.00  0.00    +0.210 A 
ATOM      6  N   UNL     1      -1.329   4.736   2.260  0.00  0.00    -0.211 N 
ATOM      7  H   UNL     1      -1.978   7.160   3.373  0.00  0.00    +0.177 HD
ENDROOT
BRANCH   6   8
ATOM      8  N   UNL     1      -1.986   4.425   3.416  0.00  0.00    -0.294 N 
ATOM      9  H   UNL     1      -2.137   3.372   3.696  0.00  0.00    +0.163 HD
ATOM     10  H   UNL     1      -2.364   5.226   4.067  0.00  0.00    +0.163 HD
ENDBRANCH   6   8
BRANCH   1  12
ATOM     11  C   UNL     1      -1.456   9.522   2.401  0.00  0.00    +0.138 C 
ATOM     12  N   UNL     1      -1.116   8.411   1.821  0.00  0.00    -0.188 NA
BRANCH  11  15
ATOM     13  C   UNL     1      -1.163  13.218   1.809  0.00  0.00    +0.162 A 
ATOM     14  C   UNL     1      -1.483  12.010   2.399  0.00  0.00    +0.059 A 
ATOM     15  C   UNL     1      -1.118  10.813   1.776  0.00  0.00    -0.002 A 
ATOM     16  C   UNL     1      -0.427  10.845   0.562  0.00  0.00    +0.013 A 
ATOM     17  C   UNL     1      -0.116  12.054  -0.023  0.00  0.00    +0.050 A 
ATOM     18  C   UNL     1      -0.478  13.241   0.596  0.00  0.00    +0.158 A 
BRANCH  18  19
ATOM     19  O   UNL     1      -0.164  14.431   0.017  0.00  0.00    -0.503 OA
ATOM     20  H   UNL     1       0.376  14.451  -0.941  0.00  0.00    +0.292 HD
ENDBRANCH  18  19
BRANCH  13  21
ATOM     21  O   UNL     1      -1.517  14.384   2.412  0.00  0.00    -0.489 OA
BRANCH  21  23
ATOM     22  C   UNL     1      -2.529  15.690   4.176  0.00  0.00    +0.048 C 
ATOM     23  C   UNL     1      -2.218  14.286   3.654  0.00  0.00    +0.226 C 
ENDBRANCH  21  23
ENDBRANCH  13  21
ENDBRANCH  11  15
ENDBRANCH   1  12
BRANCH   5  24
ATOM     24  S   UNL     1      -0.867   2.088   1.503  0.00  0.00    -0.080 S 
BRANCH  24  25
ATOM     25  C   UNL     1      -0.018   1.503   0.010  0.00  0.00    +0.112 C 
BRANCH  25  26
ATOM     26  C   UNL     1       0.002  -0.004   0.002  0.00  0.00    -0.037 A 
ATOM     27  C   UNL     1       1.057  -0.684   0.582  0.00  0.00    +0.006 A 
ATOM     28  C   UNL     1       1.073  -2.066   0.580  0.00  0.00    +0.020 A 
ATOM     29  C   UNL     1       0.040  -2.769  -0.013  0.00  0.00    +0.041 A 
ATOM     30  C   UNL     1      -1.013  -2.088  -0.599  0.00  0.00    +0.020 A 
ATOM     31  C   UNL     1      -1.031  -0.706  -0.591  0.00  0.00    +0.006 A 
ATOM     32 CL   UNL     1       0.063  -4.505  -0.022  0.00  0.00    -0.084 Cl
ENDBRANCH  25  26
ENDBRANCH  24  25
ENDBRANCH   5  24
TORSDOF 9
