REMARK  Name = ZINC48856534
REMARK  2 active torsions:
REMARK  status: ('A' for Active; 'I' for Inactive)
REMARK    1  A    between atoms: C_8  and  C_10
REMARK    2  A    between atoms: C_10  and  C_12
REMARK                            x       y       z     vdW  Elec       q    Type
REMARK                         _______ _______ _______ _____ _____    ______ ____
ROOT
ATOM      1  C   UNL     1       3.902  -4.357   1.230  0.00  0.00    -0.023 A 
ATOM      2  C   UNL     1       5.095  -3.712   1.507  0.00  0.00    +0.007 A 
ATOM      3  C   UNL     1       5.778  -3.982   2.676  0.00  0.00    +0.028 A 
ATOM      4  C   UNL     1       5.266  -4.903   3.577  0.00  0.00    +0.067 A 
ATOM      5  C   UNL     1       4.063  -5.553   3.299  0.00  0.00    +0.067 A 
ATOM      6  C   UNL     1       3.381  -5.271   2.124  0.00  0.00    +0.033 A 
ATOM      7  N   UNL     1       3.808  -6.405   4.371  0.00  0.00    -0.306 N 
ATOM      8  H   UNL     1       3.039  -6.990   4.461  0.00  0.00    +0.170 HD
ATOM      9  C   UNL     1       4.810  -6.279   5.261  0.00  0.00    +0.325 A 
ATOM     10  O   UNL     1       4.894  -6.885   6.312  0.00  0.00    -0.247 OA
ATOM     11  N   UNL     1       5.705  -5.379   4.810  0.00  0.00    -0.306 N 
ATOM     12  H   UNL     1       6.518  -5.110   5.267  0.00  0.00    +0.170 HD
ENDROOT
BRANCH   1  13
ATOM     13  C   UNL     1       3.165  -4.055  -0.049  0.00  0.00    +0.147 C 
ATOM     14 CL   UNL     1       4.263  -4.324  -1.454  0.00  0.00    -0.111 Cl
BRANCH  13  22
ATOM     15  C   UNL     1      -0.016   1.355   0.009  0.00  0.00    +0.001 A 
ATOM     16  C   UNL     1       1.157   2.097   0.002  0.00  0.00    +0.001 A 
ATOM     17  C   UNL     1       2.374   1.445  -0.013  0.00  0.00    +0.015 A 
ATOM     18  C   UNL     1       2.406   0.067  -0.020  0.00  0.00    +0.020 A 
ATOM     19  C   UNL     1       1.228  -0.711  -0.013  0.00  0.00    -0.010 A 
ATOM     20  C   UNL     1       0.002  -0.004   0.002  0.00  0.00    +0.009 A 
ATOM     21  C   UNL     1       1.451  -2.149  -0.023  0.00  0.00    +0.021 A 
ATOM     22  C   UNL     1       2.706  -2.619  -0.038  0.00  0.00    +0.013 A 
ATOM     23  S   UNL     1       3.704  -1.142  -0.039  0.00  0.00    -0.091 S 
ENDBRANCH  13  22
ENDBRANCH   1  13
TORSDOF 2
