REMARK  Name = ZINC06197976
REMARK  10 active torsions:
REMARK  status: ('A' for Active; 'I' for Inactive)
REMARK    1  A    between atoms: C_1  and  C_2
REMARK    2  A    between atoms: C_2  and  C_3
REMARK    3  A    between atoms: C_10  and  C_15
REMARK    4  A    between atoms: C_15  and  C_17
REMARK    5  A    between atoms: C_15  and  N_72
REMARK    6  A    between atoms: N_21  and  C_22
REMARK    7  A    between atoms: C_30  and  C_33
REMARK    8  A    between atoms: C_33  and  O_35
REMARK    9  A    between atoms: O_35  and  C_36
REMARK   10  A    between atoms: C_36  and  C_37
REMARK                            x       y       z     vdW  Elec       q    Type
REMARK                         _______ _______ _______ _____ _____    ______ ____
ROOT
ATOM      1  C   UNL     1       6.159  -0.614  -0.058  0.00  0.00    +0.039 C 
ENDROOT
BRANCH   1   9
ATOM      2  C   UNL     1       0.002  -0.004   0.002  0.00  0.00    -0.047 A 
ATOM      3  C   UNL     1      -0.017   1.384   0.010  0.00  0.00    +0.005 A 
ATOM      4  C   UNL     1       1.159   2.104   0.002  0.00  0.00    +0.026 A 
ATOM      5  C   UNL     1       2.378   1.434  -0.013  0.00  0.00    +0.049 A 
ATOM      6  C   UNL     1       2.393   0.026  -0.020  0.00  0.00    -0.001 A 
ATOM      7  C   UNL     1       1.187  -0.683  -0.013  0.00  0.00    +0.013 A 
ATOM      8  C   UNL     1       3.681  -0.669  -0.035  0.00  0.00    +0.017 A 
ATOM      9  C   UNL     1       4.817   0.071  -0.042  0.00  0.00    +0.011 A 
ATOM     10  C   UNL     1       4.747   1.480  -0.034  0.00  0.00    +0.251 A 
ATOM     11  O   UNL     1       5.780   2.127  -0.040  0.00  0.00    -0.268 OA
ATOM     12  N   UNL     1       3.569   2.128  -0.020  0.00  0.00    -0.322 N 
ATOM     13  H   UNL     1       3.556   3.128  -0.014  0.00  0.00    +0.169 HD
BRANCH   2  15
ATOM     14  C   UNL     1      -1.750  -1.020  -1.429  0.00  0.00    +0.009 C 
ATOM     15  C   UNL     1      -1.297  -0.769   0.010  0.00  0.00    +0.032 C 
ENDBRANCH   2  15
ENDBRANCH   1   9
BRANCH   1  21
ATOM     16  C   UNL     1       6.216  -0.224   2.331  0.00  0.00    -0.077 C 
ATOM     17  C   UNL     1       7.030   0.415   3.458  0.00  0.00    -0.004 C 
ATOM     18  C   UNL     1       8.371  -0.312   3.589  0.00  0.00    +0.094 C 
ATOM     19  C   UNL     1       9.111  -0.246   2.250  0.00  0.00    -0.004 C 
ATOM     20  C   UNL     1       8.237  -0.867   1.158  0.00  0.00    -0.077 C 
ATOM     21  N   UNL     1       6.973  -0.106   1.066  0.00  0.00    +0.389 N 
ATOM     22  H   UNL     1       7.191   0.883   0.899  0.00  0.00    -0.080 HD
BRANCH  18  23
ATOM     23  C   UNL     1       9.201   0.351   4.657  0.00  0.00    +0.310 C 
ATOM     24  O   UNL     1      10.276   0.828   4.378  0.00  0.00    -0.251 OA
BRANCH  23  25
ATOM     25  O   UNL     1       8.748   0.411   5.919  0.00  0.00    -0.465 OA
BRANCH  25  26
ATOM     26  C   UNL     1       9.601   1.065   6.896  0.00  0.00    +0.229 C 
ATOM     27  C   UNL     1       8.921   1.037   8.266  0.00  0.00    +0.048 C 
ENDBRANCH  25  26
ENDBRANCH  23  25
ENDBRANCH  18  23
ENDBRANCH   1  21
BRANCH   1  28
ATOM     28  C   UNL     1       6.868  -0.300  -1.351  0.00  0.00    +0.143 A 
ATOM     29  N   UNL     1       7.441   0.833  -1.674  0.00  0.00    -0.115 NA
ATOM     30  N   UNL     1       7.936   0.706  -2.856  0.00  0.00    -0.023 NA
ATOM     31  N   UNL     1       7.687  -0.477  -3.299  0.00  0.00    -0.044 NA
ATOM     32  N   UNL     1       7.029  -1.128  -2.400  0.00  0.00    -0.227 N 
BRANCH  32  33
ATOM     33  C   UNL     1       6.550  -2.509  -2.501  0.00  0.00    +0.111 C 
ATOM     34  C   UNL     1       7.739  -3.448  -2.709  0.00  0.00    +0.027 C 
ATOM     35  C   UNL     1       7.238  -4.890  -2.815  0.00  0.00    +0.002 C 
ATOM     36  C   UNL     1       6.279  -5.011  -4.001  0.00  0.00    +0.000 C 
ATOM     37  C   UNL     1       5.089  -4.071  -3.792  0.00  0.00    +0.002 C 
ATOM     38  C   UNL     1       5.590  -2.630  -3.687  0.00  0.00    +0.027 C 
ENDBRANCH  32  33
ENDBRANCH   1  28
TORSDOF 8
