REMARK  Name = ZINC40985912
REMARK  13 active torsions:
REMARK  status: ('A' for Active; 'I' for Inactive)
REMARK    1  A    between atoms: C_1  and  N_2
REMARK    2  A    between atoms: N_2  and  C_3
REMARK    3  A    between atoms: N_2  and  C_4
REMARK    4  A    between atoms: C_7  and  C_10
REMARK    5  A    between atoms: C_10  and  C_12
REMARK    6  A    between atoms: C_10  and  N_32
REMARK    7  A    between atoms: C_12  and  N_13
REMARK    8  A    between atoms: C_14  and  C_16
REMARK    9  A    between atoms: C_19  and  S_23
REMARK   10  A    between atoms: S_23  and  C_24
REMARK   11  A    between atoms: C_24  and  C_25
REMARK   12  A    between atoms: N_32  and  C_33
REMARK   13  A    between atoms: N_32  and  C_34
REMARK                            x       y       z     vdW  Elec       q    Type
REMARK                         _______ _______ _______ _____ _____    ______ ____
ROOT
ATOM      1  N   UNL     1      -4.393  -3.835  -2.155  0.00  0.00    -0.312 N 
ATOM      2  C   UNL     1      -4.612  -4.055  -3.466  0.00  0.00    +0.248 C 
ATOM      3  O   UNL     1      -5.649  -3.683  -3.980  0.00  0.00    -0.270 OA
ATOM      4  H   UNL     1      -3.565  -4.132  -1.745  0.00  0.00    +0.149 HD
ENDROOT
BRANCH   2   5
ATOM      5  C   UNL     1      -3.594  -4.746  -4.278  0.00  0.00    +0.092 A 
ATOM      6  C   UNL     1      -2.394  -5.188  -3.704  0.00  0.00    +0.129 A 
ATOM      7  N   UNL     1      -1.509  -5.803  -4.464  0.00  0.00    -0.229 NA
ATOM      8  C   UNL     1      -1.741  -6.005  -5.755  0.00  0.00    +0.190 A 
ATOM      9  N   UNL     1      -2.863  -5.603  -6.338  0.00  0.00    -0.209 NA
ATOM     10  C   UNL     1      -3.803  -4.984  -5.645  0.00  0.00    +0.146 A 
ATOM     11 CL   UNL     1      -5.270  -4.468  -6.415  0.00  0.00    -0.061 Cl
BRANCH   8  12
ATOM     12  S   UNL     1      -0.523  -6.832  -6.724  0.00  0.00    -0.081 S 
BRANCH  12  13
ATOM     13  C   UNL     1      -1.248  -6.886  -8.387  0.00  0.00    +0.112 C 
BRANCH  13  14
ATOM     14  C   UNL     1      -0.295  -7.577  -9.328  0.00  0.00    -0.037 A 
ATOM     15  C   UNL     1       0.656  -6.842 -10.011  0.00  0.00    +0.007 A 
ATOM     16  C   UNL     1       1.530  -7.475 -10.874  0.00  0.00    +0.038 A 
ATOM     17  C   UNL     1       1.454  -8.846 -11.053  0.00  0.00    +0.123 A 
ATOM     18  C   UNL     1       0.502  -9.581 -10.368  0.00  0.00    +0.038 A 
ATOM     19  C   UNL     1      -0.368  -8.947  -9.502  0.00  0.00    +0.007 A 
ATOM     20  F   UNL     1       2.309  -9.465 -11.897  0.00  0.00    -0.205 F 
ENDBRANCH  13  14
ENDBRANCH  12  13
ENDBRANCH   8  12
ENDBRANCH   2   5
BRANCH   1  21
ATOM     21  C   UNL     1      -5.404  -3.148  -1.348  0.00  0.00    +0.094 C 
BRANCH  21  22
ATOM     22  C   UNL     1      -4.858  -2.911   0.061  0.00  0.00    -0.021 C 
BRANCH  22  26
ATOM     23  C   UNL     1      -1.547  -0.215  -0.131  0.00  0.00    +0.029 A 
ATOM     24  C   UNL     1      -1.326  -1.582  -0.025  0.00  0.00    +0.023 A 
ATOM     25  C   UNL     1      -2.398  -2.450   0.038  0.00  0.00    +0.004 A 
ATOM     26  C   UNL     1      -3.690  -1.960  -0.006  0.00  0.00    -0.059 A 
ATOM     27  C   UNL     1      -3.914  -0.600  -0.113  0.00  0.00    +0.004 A 
ATOM     28  C   UNL     1      -2.846   0.275  -0.170  0.00  0.00    +0.023 A 
BRANCH  23  30
ATOM     29  C   UNL     1      -0.700   2.108  -0.301  0.00  0.00    +0.129 C 
ATOM     30  N   UNL     1      -0.465   0.666  -0.194  0.00  0.00    -0.336 N 
ATOM     31  C   UNL     1       0.905   0.148  -0.154  0.00  0.00    +0.129 C 
ENDBRANCH  23  30
ENDBRANCH  22  26
BRANCH  22  32
ATOM     32  N   UNL     1      -5.912  -2.332   0.904  0.00  0.00    +0.382 N 
ATOM     33  C   UNL     1      -7.043  -3.267   0.985  0.00  0.00    -0.096 C 
ATOM     34  C   UNL     1      -5.382  -2.088   2.253  0.00  0.00    -0.096 C 
ATOM     35  H   UNL     1      -6.224  -1.461   0.502  0.00  0.00    -0.082 HD
ENDBRANCH  22  32
ENDBRANCH  21  22
ENDBRANCH   1  21
TORSDOF 9
