REMARK  Name = ZINC49587024
REMARK  4 active torsions:
REMARK  status: ('A' for Active; 'I' for Inactive)
REMARK    1  A    between atoms: C_7  and  C_25
REMARK    2  A    between atoms: N_9  and  C_12
REMARK    3  A    between atoms: C_12  and  C_13
REMARK    4  A    between atoms: C_16  and  C_18
REMARK                            x       y       z     vdW  Elec       q    Type
REMARK                         _______ _______ _______ _____ _____    ______ ____
ROOT
ATOM      1  C   UNL     1      -0.017   1.375  -0.028  0.00  0.00    +0.001 A 
ATOM      2  C   UNL     1       1.166   2.102  -0.035  0.00  0.00    +0.001 A 
ATOM      3  C   UNL     1       2.387   1.461  -0.037  0.00  0.00    +0.014 A 
ATOM      4  C   UNL     1       2.427   0.070  -0.033  0.00  0.00    +0.050 A 
ATOM      5  C   UNL     1       1.222  -0.670  -0.026  0.00  0.00    +0.022 A 
ATOM      6  C   UNL     1       0.002  -0.004  -0.024  0.00  0.00    +0.011 A 
ATOM      7  C   UNL     1       1.330  -2.139  -0.021  0.00  0.00    +0.180 A 
ATOM      8  N   UNL     1       2.519  -2.693  -0.024  0.00  0.00    -0.160 NA
ATOM      9  N   UNL     1       3.618  -2.039  -0.030  0.00  0.00    -0.219 N 
ATOM     10  C   UNL     1       3.683  -0.692  -0.035  0.00  0.00    +0.275 A 
ATOM     11  O   UNL     1       4.758  -0.121  -0.041  0.00  0.00    -0.266 OA
ENDROOT
BRANCH   7  12
ATOM     12  C   UNL     1       0.117  -2.974  -0.014  0.00  0.00    +0.407 C 
ATOM     13  O   UNL     1       0.211  -4.190  -0.113  0.00  0.00    -0.239 OA
ATOM     14  O   UNL     1      -0.985  -2.453   0.091  0.00  0.00    -0.239 OA
ENDBRANCH   7  12
BRANCH   9  15
ATOM     15  C   UNL     1       4.874  -2.794  -0.032  0.00  0.00    +0.241 C 
BRANCH  15  16
ATOM     16  C   UNL     1       5.309  -3.048   1.389  0.00  0.00    +0.196 A 
ATOM     17  N   UNL     1       4.985  -4.088   2.105  0.00  0.00    -0.331 N 
ATOM     18  C   UNL     1       5.553  -3.975   3.315  0.00  0.00    +0.132 A 
ATOM     19  C   UNL     1       6.253  -2.812   3.332  0.00  0.00    +0.153 A 
ATOM     20  O   UNL     1       6.097  -2.244   2.116  0.00  0.00    -0.440 OA
ATOM     21  H   UNL     1       4.425  -4.823   1.811  0.00  0.00    +0.168 HD
BRANCH  19  22
ATOM     22  C   UNL     1       7.040  -2.274   4.462  0.00  0.00    +0.020 A 
ATOM     23  C   UNL     1       7.120  -2.983   5.661  0.00  0.00    +0.012 A 
ATOM     24  C   UNL     1       7.856  -2.476   6.712  0.00  0.00    +0.002 A 
ATOM     25  C   UNL     1       8.516  -1.267   6.579  0.00  0.00    +0.020 A 
ATOM     26  C   UNL     1       8.441  -0.558   5.392  0.00  0.00    +0.042 A 
ATOM     27  C   UNL     1       7.712  -1.058   4.331  0.00  0.00    +0.031 A 
ATOM     28 CL   UNL     1       9.271   0.958   5.235  0.00  0.00    -0.084 Cl
ENDBRANCH  19  22
ENDBRANCH  15  16
ENDBRANCH   9  15
TORSDOF 4
