REMARK  Name = ZINC12003503
REMARK  9 active torsions:
REMARK  status: ('A' for Active; 'I' for Inactive)
REMARK    1  A    between atoms: C_1  and  O_2
REMARK    2  A    between atoms: O_2  and  C_3
REMARK    3  A    between atoms: C_8  and  C_9
REMARK    4  A    between atoms: C_9  and  C_10
REMARK    5  A    between atoms: C_10  and  N_61
REMARK    6  A    between atoms: C_11  and  N_61
REMARK    7  A    between atoms: N_22  and  C_25
REMARK    8  A    between atoms: C_25  and  C_26
REMARK    9  A    between atoms: C_26  and  C_27
REMARK                            x       y       z     vdW  Elec       q    Type
REMARK                         _______ _______ _______ _____ _____    ______ ____
ROOT
ATOM      1  C   UNL     1      -0.795   1.527  -1.120  0.00  0.00    -0.067 C 
ATOM      2  C   UNL     1      -2.287   1.479  -0.774  0.00  0.00    -0.011 C 
ATOM      3  C   UNL     1      -3.088   2.244  -1.829  0.00  0.00    +0.035 C 
ATOM      4  C   UNL     1      -2.720   1.712  -3.211  0.00  0.00    -0.023 A 
ATOM      5  C   UNL     1      -1.576   1.011  -3.396  0.00  0.00    -0.006 A 
ATOM      6  S   UNL     1      -1.557   0.601  -5.123  0.00  0.00    -0.073 S 
ATOM      7  C   UNL     1      -3.076   1.367  -5.592  0.00  0.00    +0.116 A 
ATOM      8  C   UNL     1      -3.552   1.921  -4.382  0.00  0.00    +0.076 A 
ATOM      9  C   UNL     1      -4.800   2.629  -4.436  0.00  0.00    +0.262 A 
ATOM     10  O   UNL     1      -5.296   3.143  -3.449  0.00  0.00    -0.267 OA
ATOM     11  N   UNL     1      -5.390   2.687  -5.653  0.00  0.00    -0.298 N 
ATOM     12  C   UNL     1      -4.855   2.122  -6.762  0.00  0.00    +0.203 A 
ATOM     13  N   UNL     1      -3.715   1.467  -6.753  0.00  0.00    -0.230 NA
ATOM     14  C   UNL     1      -0.551   0.659  -2.363  0.00  0.00    +0.027 C 
ENDROOT
BRANCH   1  15
ATOM     15  N   UNL     1      -0.015   0.998   0.015  0.00  0.00    +0.381 N 
ATOM     16  H   UNL     1      -0.475   1.261   0.894  0.00  0.00    -0.086 HD
ATOM     17  H   UNL     1       0.032  -0.025  -0.054  0.00  0.00    -0.086 HD
BRANCH  15  18
ATOM     18  C   UNL     1       1.353   1.550  -0.003  0.00  0.00    -0.077 C 
BRANCH  18  19
ATOM     19  C   UNL     1       2.136   0.985   1.184  0.00  0.00    +0.020 C 
BRANCH  19  25
ATOM     20  C   UNL     1       3.796   2.774   1.759  0.00  0.00    +0.123 A 
ATOM     21  C   UNL     1       5.086   3.286   1.748  0.00  0.00    +0.046 A 
ATOM     22  C   UNL     1       6.107   2.570   1.155  0.00  0.00    +0.004 A 
ATOM     23  C   UNL     1       5.845   1.343   0.572  0.00  0.00    +0.000 A 
ATOM     24  C   UNL     1       4.562   0.829   0.586  0.00  0.00    +0.007 A 
ATOM     25  C   UNL     1       3.536   1.544   1.173  0.00  0.00    -0.007 A 
BRANCH  20  27
ATOM     26  C   UNL     1       3.131   4.736   2.925  0.00  0.00    +0.277 C 
ATOM     27  O   UNL     1       2.790   3.477   2.342  0.00  0.00    -0.495 OA
ENDBRANCH  20  27
ENDBRANCH  19  25
ENDBRANCH  18  19
ENDBRANCH  15  18
ENDBRANCH   1  15
BRANCH  11  28
ATOM     28  C   UNL     1      -6.667   3.394  -5.776  0.00  0.00    +0.131 C 
BRANCH  28  29
ATOM     29  C   UNL     1      -7.818   2.414  -5.536  0.00  0.00    +0.058 C 
BRANCH  29  30
ATOM     30  C   UNL     1      -9.132   3.142  -5.663  0.00  0.00    -0.027 A 
ATOM     31  C   UNL     1      -9.761   3.635  -4.535  0.00  0.00    +0.005 A 
ATOM     32  C   UNL     1     -10.963   4.306  -4.652  0.00  0.00    +0.000 A 
ATOM     33  C   UNL     1     -11.543   4.476  -5.896  0.00  0.00    +0.001 A 
ATOM     34  C   UNL     1     -10.918   3.978  -7.023  0.00  0.00    +0.020 A 
ATOM     35  C   UNL     1      -9.711   3.311  -6.908  0.00  0.00    +0.044 A 
ATOM     36 CL   UNL     1      -8.925   2.686  -8.324  0.00  0.00    -0.083 Cl
ENDBRANCH  29  30
ENDBRANCH  28  29
ENDBRANCH  11  28
TORSDOF 8
