REMARK  Name = ZINC09059938
REMARK  2 active torsions:
REMARK  status: ('A' for Active; 'I' for Inactive)
REMARK    1  A    between atoms: N_11  and  C_12
REMARK    2  A    between atoms: C_12  and  C_14
REMARK                            x       y       z     vdW  Elec       q    Type
REMARK                         _______ _______ _______ _____ _____    ______ ____
ROOT
ATOM      1  C   UNL     1      -0.018   1.375  -0.018  0.00  0.00    +0.002 A 
ATOM      2  C   UNL     1       1.167   2.090  -0.015  0.00  0.00    +0.002 A 
ATOM      3  C   UNL     1       2.379   1.429  -0.021  0.00  0.00    +0.028 A 
ATOM      4  C   UNL     1       2.410   0.041  -0.029  0.00  0.00    +0.065 A 
ATOM      5  C   UNL     1       1.214  -0.680  -0.032  0.00  0.00    +0.065 A 
ATOM      6  C   UNL     1       0.001  -0.005  -0.026  0.00  0.00    +0.028 A 
ATOM      7  N   UNL     1       1.548  -2.030  -0.040  0.00  0.00    -0.326 N 
ATOM      8  H   UNL     1       0.922  -2.771  -0.044  0.00  0.00    +0.169 HD
ATOM      9  C   UNL     1       2.905  -2.133  -0.042  0.00  0.00    +0.199 A 
ATOM     10  N   UNL     1       3.448  -0.885  -0.036  0.00  0.00    -0.326 N 
ATOM     11  N   UNL     1       3.590  -3.270  -0.050  0.00  0.00    -0.140 NA
ATOM     12  H   UNL     1       4.395  -0.677  -0.036  0.00  0.00    +0.169 HD
ENDROOT
BRANCH  11  13
ATOM     13  C   UNL     1       4.925  -3.246  -0.164  0.00  0.00    +0.305 C 
ATOM     14  O   UNL     1       5.518  -2.181  -0.164  0.00  0.00    -0.265 OA
BRANCH  13  15
ATOM     15  C   UNL     1       5.676  -4.508  -0.289  0.00  0.00    +0.193 A 
ATOM     16  C   UNL     1       7.024  -4.606  -0.405  0.00  0.00    +0.063 A 
ATOM     17  C   UNL     1       7.320  -6.035  -0.500  0.00  0.00    +0.022 A 
ATOM     18  C   UNL     1       8.495  -6.779  -0.634  0.00  0.00    +0.031 A 
ATOM     19  C   UNL     1       8.429  -8.144  -0.696  0.00  0.00    +0.042 A 
ATOM     20  C   UNL     1       7.202  -8.793  -0.628  0.00  0.00    +0.023 A 
ATOM     21  C   UNL     1       6.033  -8.075  -0.497  0.00  0.00    +0.048 A 
ATOM     22  C   UNL     1       6.076  -6.688  -0.431  0.00  0.00    +0.136 A 
ATOM     23  O   UNL     1       5.126  -5.740  -0.300  0.00  0.00    -0.450 OA
ATOM     24 CL   UNL     1       9.887  -9.071  -0.862  0.00  0.00    -0.084 Cl
ENDBRANCH  13  15
ENDBRANCH  11  13
TORSDOF 2
