REMARK  Name = ZINC15007348
REMARK  7 active torsions:
REMARK  status: ('A' for Active; 'I' for Inactive)
REMARK    1  A    between atoms: C_1  and  C_2
REMARK    2  A    between atoms: N_9  and  C_19
REMARK    3  A    between atoms: C_11  and  C_14
REMARK    4  A    between atoms: C_19  and  C_20
REMARK    5  A    between atoms: N_22  and  C_23
REMARK    6  A    between atoms: C_23  and  C_24
REMARK    7  A    between atoms: C_24  and  C_25
REMARK                            x       y       z     vdW  Elec       q    Type
REMARK                         _______ _______ _______ _____ _____    ______ ____
ROOT
ATOM      1  C   UNL     1       1.530  -3.756   4.096  0.00  0.00    +0.019 C 
ENDROOT
BRANCH   1  10
ATOM      2  C   UNL     1      -0.018   1.503   0.010  0.00  0.00    +0.044 C 
ATOM      3  C   UNL     1       0.002  -0.004   0.002  0.00  0.00    -0.050 A 
ATOM      4  C   UNL     1       0.006  -0.688  -1.200  0.00  0.00    +0.007 A 
ATOM      5  C   UNL     1       0.033  -2.069  -1.214  0.00  0.00    +0.046 A 
ATOM      6  C   UNL     1       0.052  -2.767  -0.015  0.00  0.00    +0.123 A 
ATOM      7  C   UNL     1       0.034  -2.081   1.183  0.00  0.00    -0.022 A 
ATOM      8  C   UNL     1       0.023  -0.701   1.197  0.00  0.00    +0.008 A 
ATOM      9  C   UNL     1       0.006  -2.854   2.488  0.00  0.00    -0.038 C 
ATOM     10  N   UNL     1       1.296  -3.530   2.663  0.00  0.00    +0.391 N 
ATOM     11  C   UNL     1       1.320  -4.812   1.967  0.00  0.00    -0.028 C 
ATOM     12  C   UNL     1       1.330  -4.694   0.460  0.00  0.00    +0.188 C 
ATOM     13  O   UNL     1       0.102  -4.128  -0.015  0.00  0.00    -0.486 OA
ATOM     14  H   UNL     1       2.030  -2.942   2.298  0.00  0.00    -0.080 HD
BRANCH  12  15
ATOM     15  C   UNL     1       1.510  -6.064  -0.143  0.00  0.00    -0.002 A 
ATOM     16  C   UNL     1       2.768  -6.515  -0.495  0.00  0.00    +0.015 A 
ATOM     17  C   UNL     1       2.895  -7.752  -1.035  0.00  0.00    +0.045 A 
ATOM     18  S   UNL     1       1.203  -8.320  -1.060  0.00  0.00    -0.105 S 
ATOM     19  C   UNL     1       0.441  -6.873  -0.344  0.00  0.00    +0.052 A 
ENDBRANCH  12  15
ENDBRANCH   1  10
BRANCH   1  20
ATOM     20  C   UNL     1       1.672  -2.429   4.797  0.00  0.00    +0.196 C 
ATOM     21  O   UNL     1       1.586  -1.397   4.165  0.00  0.00    -0.278 OA
ATOM     22  N   UNL     1       1.893  -2.389   6.126  0.00  0.00    -0.316 N 
ATOM     23  H   UNL     1       1.962  -3.214   6.631  0.00  0.00    +0.149 HD
BRANCH  22  24
ATOM     24  C   UNL     1       2.031  -1.099   6.807  0.00  0.00    +0.112 C 
BRANCH  24  25
ATOM     25  C   UNL     1       2.275  -1.334   8.299  0.00  0.00    +0.093 C 
BRANCH  25  26
ATOM     26  C   UNL     1       2.416  -0.008   9.000  0.00  0.00    +0.112 A 
ATOM     27  N   UNL     1       2.319   1.076   8.292  0.00  0.00    -0.234 NA
ATOM     28  H   UNL     1       2.693  -0.850  10.818  0.00  0.00    +0.170 HD
ATOM     29  C   UNL     1       2.435   2.305   8.854  0.00  0.00    +0.078 A 
ATOM     30  C   UNL     1       2.331   3.472   8.093  0.00  0.00    +0.028 A 
ATOM     31  C   UNL     1       2.456   4.698   8.705  0.00  0.00    +0.002 A 
ATOM     32  C   UNL     1       2.685   4.792  10.072  0.00  0.00    +0.001 A 
ATOM     33  C   UNL     1       2.792   3.656  10.844  0.00  0.00    +0.015 A 
ATOM     34  C   UNL     1       2.667   2.404  10.244  0.00  0.00    +0.065 A 
ATOM     35  C   UNL     1       2.772   1.157  11.016  0.00  0.00    +0.259 A 
ATOM     36  O   UNL     1       2.972   1.172  12.217  0.00  0.00    -0.267 OA
ATOM     37  N   UNL     1       2.634  -0.007  10.341  0.00  0.00    -0.310 N 
ENDBRANCH  25  26
ENDBRANCH  24  25
ENDBRANCH  22  24
ENDBRANCH   1  20
TORSDOF 6
