REMARK  Name = ZINC46841737
REMARK  7 active torsions:
REMARK  status: ('A' for Active; 'I' for Inactive)
REMARK    1  A    between atoms: C_1  and  C_2
REMARK    2  A    between atoms: C_7  and  C_10
REMARK    3  A    between atoms: C_14  and  C_17
REMARK    4  A    between atoms: C_17  and  N_18
REMARK    5  A    between atoms: C_19  and  C_21
REMARK    6  A    between atoms: C_21  and  N_22
REMARK    7  A    between atoms: C_29  and  C_32
REMARK                            x       y       z     vdW  Elec       q    Type
REMARK                         _______ _______ _______ _____ _____    ______ ____
ROOT
ATOM      1  N   UNL     1      -3.369  -5.796  -4.369  0.00  0.00    -0.310 N 
ATOM      2  C   UNL     1      -3.827  -6.645  -5.310  0.00  0.00    +0.233 C 
ATOM      3  O   UNL     1      -4.914  -7.167  -5.179  0.00  0.00    -0.274 OA
ATOM      4  H   UNL     1      -2.500  -5.378  -4.474  0.00  0.00    +0.149 HD
ENDROOT
BRANCH   1   5
ATOM      5  C   UNL     1      -4.185  -5.503  -3.188  0.00  0.00    +0.141 C 
BRANCH   5  17
ATOM      6  C   UNL     1       0.024   1.508  -0.007  0.00  0.00    +0.039 C 
ATOM      7  C   UNL     1       0.027  -0.022  -0.001  0.00  0.00    +0.133 C 
ATOM      8  C   UNL     1      -1.417  -0.537   0.001  0.00  0.00    +0.137 C 
ATOM      9  N   UNL     1      -1.389  -1.995   0.196  0.00  0.00    -0.312 N 
ATOM     10  C   UNL     1      -0.598  -2.529   1.316  0.00  0.00    +0.137 C 
ATOM     11  C   UNL     1       0.806  -1.917   1.250  0.00  0.00    +0.133 C 
ATOM     12  O   UNL     1       0.698  -0.493   1.171  0.00  0.00    -0.371 OA
ATOM     13  C   UNL     1       1.591  -2.301   2.506  0.00  0.00    +0.039 C 
ATOM     14  C   UNL     1      -2.091  -2.844  -0.652  0.00  0.00    +0.099 A 
ATOM     15  C   UNL     1      -2.927  -2.308  -1.627  0.00  0.00    +0.042 A 
ATOM     16  C   UNL     1      -3.619  -3.164  -2.464  0.00  0.00    +0.010 A 
ATOM     17  C   UNL     1      -3.451  -4.533  -2.299  0.00  0.00    -0.014 A 
ATOM     18  C   UNL     1      -2.604  -4.995  -1.311  0.00  0.00    +0.089 A 
ATOM     19  N   UNL     1      -1.953  -4.155  -0.530  0.00  0.00    -0.349 N 
ATOM     20  H   UNL     1      -1.361  -4.507   0.154  0.00  0.00    +0.167 HD
ENDBRANCH   5  17
ENDBRANCH   1   5
BRANCH   2  21
ATOM     21  C   UNL     1      -2.989  -6.946  -6.526  0.00  0.00    +0.221 C 
BRANCH  21  22
ATOM     22  N   UNL     1      -3.702  -7.889  -7.390  0.00  0.00    -0.290 N 
ATOM     23  C   UNL     1      -3.527  -9.223  -7.207  0.00  0.00    +0.203 A 
ATOM     24  N   UNL     1      -4.147 -10.094  -7.958  0.00  0.00    -0.230 NA
ATOM     25  C   UNL     1      -4.970  -9.702  -8.927  0.00  0.00    +0.116 A 
ATOM     26  C   UNL     1      -5.213  -8.344  -9.190  0.00  0.00    +0.080 A 
ATOM     27  C   UNL     1      -4.523  -7.416  -8.346  0.00  0.00    +0.263 A 
ATOM     28  O   UNL     1      -4.673  -6.215  -8.495  0.00  0.00    -0.267 OA
ATOM     29  C   UNL     1      -6.140  -8.082 -10.285  0.00  0.00    +0.010 A 
ATOM     30  C   UNL     1      -6.681  -9.136 -10.946  0.00  0.00    +0.057 A 
ATOM     31  S   UNL     1      -5.967 -10.549 -10.125  0.00  0.00    -0.076 S 
BRANCH  29  32
ATOM     32  C   UNL     1      -6.484  -6.697 -10.667  0.00  0.00    +0.021 A 
ATOM     33  C   UNL     1      -6.478  -6.117 -11.907  0.00  0.00    +0.016 A 
ATOM     34  C   UNL     1      -6.842  -4.791 -12.020  0.00  0.00    +0.008 A 
ATOM     35  C   UNL     1      -7.193  -4.105 -10.904  0.00  0.00    +0.046 A 
ATOM     36  S   UNL     1      -7.023  -5.346  -9.632  0.00  0.00    -0.097 S 
ENDBRANCH  29  32
ENDBRANCH  21  22
ENDBRANCH   2  21
TORSDOF 5
