REMARK  Name = ZINC01269759
REMARK  10 active torsions:
REMARK  status: ('A' for Active; 'I' for Inactive)
REMARK    1  A    between atoms: C_1  and  C_2
REMARK    2  A    between atoms: C_2  and  N_3
REMARK    3  A    between atoms: N_3  and  C_4
REMARK    4  A    between atoms: N_3  and  C_6
REMARK    5  A    between atoms: C_4  and  C_5
REMARK    6  A    between atoms: C_9  and  C_12
REMARK    7  A    between atoms: C_17  and  C_36
REMARK    8  A    between atoms: C_29  and  C_31
REMARK    9  A    between atoms: C_31  and  C_32
REMARK   10  A    between atoms: C_32  and  C_33
REMARK                            x       y       z     vdW  Elec       q    Type
REMARK                         _______ _______ _______ _____ _____    ______ ____
ROOT
ATOM      1  C   UNL     1      -1.302  -6.165   0.447  0.00  0.00    +0.147 C 
ATOM      2  C   UNL     1      -2.651  -6.694   0.024  0.00  0.00    +0.037 C 
ATOM      3  C   UNL     1      -2.907  -6.567  -1.362  0.00  0.00    +0.163 C 
ATOM      4  C   UNL     1      -4.199  -7.008  -1.982  0.00  0.00    +0.088 C 
ATOM      5  C   UNL     1      -5.307  -6.896  -0.928  0.00  0.00    +0.032 C 
ATOM      6  C   UNL     1      -4.893  -7.744   0.273  0.00  0.00    +0.059 C 
ATOM      7  C   UNL     1      -3.573  -7.244   0.834  0.00  0.00    +0.017 C 
ATOM      8  N   UNL     1      -3.421  -7.415   2.172  0.00  0.00    -0.316 N 
ATOM      9  C   UNL     1      -2.948  -6.447   3.049  0.00  0.00    +0.053 A 
ATOM     10  C   UNL     1      -3.736  -5.903   4.049  0.00  0.00    +0.025 A 
ATOM     11  C   UNL     1      -3.186  -4.978   4.919  0.00  0.00    +0.002 A 
ATOM     12  C   UNL     1      -1.861  -4.603   4.792  0.00  0.00    +0.002 A 
ATOM     13  C   UNL     1      -1.077  -5.132   3.782  0.00  0.00    +0.025 A 
ATOM     14  C   UNL     1      -1.631  -6.042   2.897  0.00  0.00    +0.058 A 
ATOM     15  N   UNL     1      -0.918  -6.517   1.797  0.00  0.00    -0.258 N 
ATOM     16  C   UNL     1       0.150  -7.314   1.997  0.00  0.00    +0.221 C 
ATOM     17  O   UNL     1       0.782  -7.731   1.050  0.00  0.00    -0.275 OA
ATOM     18  O   UNL     1      -2.049  -6.085  -2.075  0.00  0.00    -0.292 OA
ATOM     19  H   UNL     1      -3.662  -8.277   2.544  0.00  0.00    +0.152 HD
ENDROOT
BRANCH   5  20
ATOM     20  C   UNL     1      -6.605  -7.410  -1.494  0.00  0.00    -0.043 A 
ATOM     21  C   UNL     1      -6.700  -8.719  -1.927  0.00  0.00    +0.007 A 
ATOM     22  C   UNL     1      -7.890  -9.192  -2.446  0.00  0.00    +0.038 A 
ATOM     23  C   UNL     1      -8.988  -8.353  -2.534  0.00  0.00    +0.123 A 
ATOM     24  C   UNL     1      -8.892  -7.042  -2.100  0.00  0.00    +0.038 A 
ATOM     25  C   UNL     1      -7.702  -6.573  -1.576  0.00  0.00    +0.007 A 
ATOM     26  F   UNL     1     -10.152  -8.814  -3.042  0.00  0.00    -0.205 F 
ENDBRANCH   5  20
BRANCH   1  30
ATOM     27  C   UNL     1      -1.357  -1.906   0.119  0.00  0.00    +0.013 A 
ATOM     28  C   UNL     1      -0.523  -2.651  -0.693  0.00  0.00    +0.022 A 
ATOM     29  C   UNL     1      -0.505  -4.029  -0.587  0.00  0.00    +0.007 A 
ATOM     30  C   UNL     1      -1.321  -4.663   0.332  0.00  0.00    -0.022 A 
ATOM     31  C   UNL     1      -2.155  -3.917   1.145  0.00  0.00    +0.007 A 
ATOM     32  C   UNL     1      -2.170  -2.539   1.042  0.00  0.00    +0.022 A 
BRANCH  27  33
ATOM     33  N   UNL     1      -1.376  -0.513   0.012  0.00  0.00    -0.394 NA
ATOM     34  H   UNL     1      -2.032  -0.133   0.677  0.00  0.00    +0.126 HD
BRANCH  33  36
ATOM     35  C   UNL     1      -0.081   1.547   0.296  0.00  0.00    +0.022 C 
ATOM     36  C   UNL     1      -0.034   0.018   0.291  0.00  0.00    +0.081 C 
ENDBRANCH  33  36
BRANCH  33  37
ATOM     37  C   UNL     1      -1.780  -0.132  -1.348  0.00  0.00    +0.081 C 
ATOM     38  C   UNL     1      -3.223  -0.575  -1.594  0.00  0.00    +0.022 C 
ENDBRANCH  33  37
ENDBRANCH  27  33
ENDBRANCH   1  30
BRANCH  16  39
ATOM     39  C   UNL     1       0.561  -7.686   3.399  0.00  0.00    +0.107 C 
BRANCH  39  40
ATOM     40  C   UNL     1       1.793  -8.591   3.346  0.00  0.00    +0.134 C 
BRANCH  40  41
ATOM     41  C   UNL     1       2.203  -8.964   4.747  0.00  0.00    +0.356 C 
ATOM     42  O   UNL     1       1.568  -8.545   5.700  0.00  0.00    -0.246 OA
ATOM     43  O   UNL     1       3.170  -9.685   4.928  0.00  0.00    -0.246 OA
ENDBRANCH  40  41
ENDBRANCH  39  40
ENDBRANCH  16  39
TORSDOF 8
