REMARK  Name = ZINC63372169
REMARK  11 active torsions:
REMARK  status: ('A' for Active; 'I' for Inactive)
REMARK    1  A    between atoms: C_1  and  C_2
REMARK    2  A    between atoms: C_2  and  C_3
REMARK    3  A    between atoms: C_3  and  O_4
REMARK    4  A    between atoms: O_4  and  C_5
REMARK    5  A    between atoms: C_8  and  C_14
REMARK    6  A    between atoms: C_10  and  O_11
REMARK    7  A    between atoms: O_11  and  C_12
REMARK    8  A    between atoms: C_12  and  C_13
REMARK    9  A    between atoms: N_20  and  C_35
REMARK   10  A    between atoms: C_23  and  C_34
REMARK   11  A    between atoms: C_39  and  C_41
REMARK                            x       y       z     vdW  Elec       q    Type
REMARK                         _______ _______ _______ _____ _____    ______ ____
ROOT
ATOM      1  C   UNL     1       3.209  -4.407  -5.665  0.00  0.00    +0.065 C 
ATOM      2  C   UNL     1       2.546  -3.961  -6.983  0.00  0.00    +0.123 C 
ATOM      3  N   UNL     1       3.461  -4.268  -8.086  0.00  0.00    -0.268 N 
ATOM      4  C   UNL     1       3.221  -4.994  -9.185  0.00  0.00    +0.317 C 
ATOM      5  O   UNL     1       2.125  -5.424  -9.487  0.00  0.00    -0.252 OA
ATOM      6  N   UNL     1       4.327  -5.194  -9.914  0.00  0.00    -0.192 N 
ATOM      7  C   UNL     1       5.393  -4.558  -9.386  0.00  0.00    +0.253 C 
ATOM      8  O   UNL     1       6.532  -4.570  -9.801  0.00  0.00    -0.272 OA
ATOM      9  C   UNL     1       4.873  -3.827  -8.167  0.00  0.00    +0.137 C 
ATOM     10  C   UNL     1       5.571  -4.346  -6.904  0.00  0.00    +0.139 C 
ATOM     11  C   UNL     1       4.659  -3.995  -5.733  0.00  0.00    -0.027 C 
ATOM     12  C   UNL     1       5.398  -3.287  -4.885  0.00  0.00    -0.000 A 
ATOM     13  C   UNL     1       5.102  -2.742  -3.550  0.00  0.00    +0.010 A 
ATOM     14  C   UNL     1       6.101  -2.036  -2.956  0.00  0.00    +0.001 A 
ATOM     15  C   UNL     1       7.349  -1.822  -3.549  0.00  0.00    +0.002 A 
ATOM     16  C   UNL     1       7.710  -2.294  -4.769  0.00  0.00    +0.026 A 
ATOM     17  C   UNL     1       6.745  -3.058  -5.489  0.00  0.00    +0.043 A 
ATOM     18  N   UNL     1       6.833  -3.645  -6.660  0.00  0.00    -0.375 N 
ATOM     19  C   UNL     1       4.993  -2.309  -8.315  0.00  0.00    +0.044 C 
ATOM     20  H   UNL     1       7.595  -3.623  -7.260  0.00  0.00    +0.160 HD
ENDROOT
BRANCH   6  21
ATOM     21  C   UNL     1       4.372  -5.968 -11.082  0.00  0.00    +0.046 A 
ATOM     22  C   UNL     1       5.535  -6.019 -11.839  0.00  0.00    +0.024 A 
ATOM     23  C   UNL     1       5.575  -6.782 -12.989  0.00  0.00    +0.002 A 
ATOM     24  C   UNL     1       4.459  -7.495 -13.387  0.00  0.00    +0.003 A 
ATOM     25  C   UNL     1       3.300  -7.446 -12.636  0.00  0.00    -0.049 A 
ATOM     26  C   UNL     1       3.255  -6.689 -11.481  0.00  0.00    +0.027 A 
ATOM     27  C   UNL     1       2.086  -8.225 -13.073  0.00  0.00    +0.044 C 
ENDBRANCH   6  21
BRANCH   1  31
ATOM     28  C   UNL     1       1.303  -2.484  -2.355  0.00  0.00    +0.162 A 
ATOM     29  C   UNL     1       1.893  -1.727  -3.353  0.00  0.00    +0.050 A 
ATOM     30  C   UNL     1       2.509  -2.352  -4.422  0.00  0.00    +0.008 A 
ATOM     31  C   UNL     1       2.537  -3.732  -4.497  0.00  0.00    -0.035 A 
ATOM     32  C   UNL     1       1.949  -4.493  -3.505  0.00  0.00    +0.053 A 
ATOM     33  C   UNL     1       1.336  -3.874  -2.428  0.00  0.00    +0.162 A 
BRANCH  28  34
ATOM     34  O   UNL     1       0.697  -1.871  -1.303  0.00  0.00    -0.488 OA
BRANCH  34  35
ATOM     35  C   UNL     1       0.702  -0.443  -1.294  0.00  0.00    +0.229 C 
BRANCH  35  37
ATOM     36  C   UNL     1      -0.015   1.592  -0.033  0.00  0.00    +0.007 C 
ATOM     37  C   UNL     1      -0.020   0.062  -0.043  0.00  0.00    +0.038 C 
ENDBRANCH  35  37
ENDBRANCH  34  35
ENDBRANCH  28  34
BRANCH  33  38
ATOM     38  O   UNL     1       0.762  -4.621  -1.447  0.00  0.00    -0.489 OA
BRANCH  38  39
ATOM     39  C   UNL     1       0.835  -6.042  -1.588  0.00  0.00    +0.226 C 
ATOM     40  C   UNL     1       0.141  -6.708  -0.399  0.00  0.00    +0.048 C 
ENDBRANCH  38  39
ENDBRANCH  33  38
ENDBRANCH   1  31
TORSDOF 7
