REMARK  Name = ZINC41022174
REMARK  9 active torsions:
REMARK  status: ('A' for Active; 'I' for Inactive)
REMARK    1  A    between atoms: C_1  and  C_2
REMARK    2  A    between atoms: C_5  and  C_8
REMARK    3  A    between atoms: C_8  and  C_10
REMARK    4  A    between atoms: C_8  and  N_28
REMARK    5  A    between atoms: C_10  and  N_11
REMARK    6  A    between atoms: C_12  and  C_14
REMARK    7  A    between atoms: C_14  and  C_15
REMARK    8  A    between atoms: C_15  and  C_16
REMARK    9  A    between atoms: C_19  and  C_21
REMARK                            x       y       z     vdW  Elec       q    Type
REMARK                         _______ _______ _______ _____ _____    ______ ____
ROOT
ATOM      1  N   UNL     1       1.872  -3.923   1.573  0.00  0.00    -0.317 N 
ATOM      2  C   UNL     1       3.143  -3.964   2.019  0.00  0.00    +0.213 C 
ATOM      3  O   UNL     1       3.993  -4.539   1.374  0.00  0.00    -0.276 OA
ATOM      4  H   UNL     1       1.191  -3.462   2.090  0.00  0.00    +0.149 HD
ENDROOT
BRANCH   1   5
ATOM      5  C   UNL     1       1.517  -4.574   0.310  0.00  0.00    +0.093 C 
BRANCH   5   6
ATOM      6  C   UNL     1       0.056  -4.269  -0.028  0.00  0.00    -0.020 C 
BRANCH   6   7
ATOM      7  N   UNL     1      -0.798  -4.650   1.104  0.00  0.00    +0.385 N 
ATOM      8  C   UNL     1      -0.637  -6.096   1.353  0.00  0.00    -0.078 C 
ATOM      9  C   UNL     1      -0.988  -6.371   2.794  0.00  0.00    -0.019 C 
ATOM     10  C   UNL     1      -2.450  -6.833   2.939  0.00  0.00    -0.002 C 
ATOM     11  C   UNL     1      -3.397  -6.032   2.024  0.00  0.00    -0.002 C 
ATOM     12  C   UNL     1      -3.065  -4.562   1.998  0.00  0.00    -0.019 C 
ATOM     13  C   UNL     1      -2.114  -4.282   0.816  0.00  0.00    -0.078 C 
ATOM     14  H   UNL     1      -0.493  -4.147   1.923  0.00  0.00    -0.081 HD
ENDBRANCH   6   7
BRANCH   6  19
ATOM     15  C   UNL     1      -0.544   1.383  -1.074  0.00  0.00    +0.044 C 
ATOM     16  C   UNL     1      -0.387  -0.091  -0.801  0.00  0.00    -0.050 A 
ATOM     17  C   UNL     1      -0.292  -0.983  -1.854  0.00  0.00    +0.003 A 
ATOM     18  C   UNL     1      -0.148  -2.335  -1.604  0.00  0.00    +0.002 A 
ATOM     19  C   UNL     1      -0.099  -2.795  -0.301  0.00  0.00    -0.059 A 
ATOM     20  C   UNL     1      -0.194  -1.904   0.751  0.00  0.00    +0.002 A 
ATOM     21  C   UNL     1      -0.333  -0.551   0.501  0.00  0.00    +0.003 A 
ENDBRANCH   6  19
ENDBRANCH   5   6
ENDBRANCH   1   5
BRANCH   2  22
ATOM     22  C   UNL     1       3.508  -3.294   3.319  0.00  0.00    +0.105 C 
BRANCH  22  23
ATOM     23  C   UNL     1       5.001  -3.488   3.591  0.00  0.00    +0.105 C 
BRANCH  23  24
ATOM     24  C   UNL     1       5.365  -2.818   4.891  0.00  0.00    +0.197 A 
ATOM     25  N   UNL     1       5.342  -3.383   6.066  0.00  0.00    -0.221 NA
ATOM     26  C   UNL     1       5.728  -2.487   6.986  0.00  0.00    +0.161 A 
ATOM     27  C   UNL     1       5.998  -1.325   6.338  0.00  0.00    +0.155 A 
ATOM     28  O   UNL     1       5.772  -1.548   5.025  0.00  0.00    -0.440 OA
BRANCH  27  29
ATOM     29  C   UNL     1       6.457  -0.060   6.950  0.00  0.00    +0.019 A 
ATOM     30  C   UNL     1       6.689   1.061   6.152  0.00  0.00    +0.013 A 
ATOM     31  C   UNL     1       7.117   2.238   6.729  0.00  0.00    +0.021 A 
ATOM     32  C   UNL     1       7.316   2.309   8.098  0.00  0.00    +0.041 A 
ATOM     33  C   UNL     1       7.088   1.200   8.895  0.00  0.00    +0.021 A 
ATOM     34  C   UNL     1       6.654   0.019   8.330  0.00  0.00    +0.013 A 
ATOM     35 CL   UNL     1       7.855   3.795   8.817  0.00  0.00    -0.084 Cl
ENDBRANCH  27  29
ENDBRANCH  23  24
ENDBRANCH  22  23
ENDBRANCH   2  22
TORSDOF 8
