REMARK  Name = ZINC10950930
REMARK  2 active torsions:
REMARK  status: ('A' for Active; 'I' for Inactive)
REMARK    1  A    between atoms: C_10  and  C_13
REMARK    2  A    between atoms: C_18  and  C_19
REMARK                            x       y       z     vdW  Elec       q    Type
REMARK                         _______ _______ _______ _____ _____    ______ ____
ROOT
ATOM      1  C   UNL     1       3.389  -1.699  -2.212  0.00  0.00    +0.036 A 
ATOM      2  C   UNL     1       3.830  -0.602  -2.866  0.00  0.00    +0.112 A 
ATOM      3  N   UNL     1       4.002  -0.931  -4.164  0.00  0.00    -0.284 N 
ATOM      4  H   UNL     1       4.311  -0.338  -4.866  0.00  0.00    +0.188 HD
ATOM      5  N   UNL     1       3.656  -2.280  -4.322  0.00  0.00    -0.174 NA
ATOM      6  C   UNL     1       3.291  -2.748  -3.147  0.00  0.00    +0.099 A 
ENDROOT
BRANCH   1  16
ATOM      7  C   UNL     1       7.363   0.382   0.628  0.00  0.00    +0.001 A 
ATOM      8  C   UNL     1       7.633  -0.972   0.509  0.00  0.00    +0.002 A 
ATOM      9  C   UNL     1       6.610  -1.876   0.295  0.00  0.00    +0.024 A 
ATOM     10  C   UNL     1       5.306  -1.424   0.200  0.00  0.00    +0.041 A 
ATOM     11  C   UNL     1       5.028  -0.051   0.324  0.00  0.00    +0.058 A 
ATOM     12  C   UNL     1       6.069   0.850   0.537  0.00  0.00    +0.015 A 
ATOM     13  C   UNL     1       3.625   0.393   0.227  0.00  0.00    +0.247 C 
ATOM     14  O   UNL     1       3.310   1.516   0.571  0.00  0.00    -0.270 OA
ATOM     15  N   UNL     1       2.695  -0.461  -0.249  0.00  0.00    -0.289 N 
ATOM     16  C   UNL     1       3.066  -1.787  -0.743  0.00  0.00    +0.193 C 
ATOM     17  N   UNL     1       4.240  -2.289  -0.020  0.00  0.00    -0.322 N 
ATOM     18  H   UNL     1       1.764  -0.191  -0.263  0.00  0.00    +0.151 HD
ATOM     19  H   UNL     1       4.272  -3.205   0.298  0.00  0.00    +0.148 HD
ENDBRANCH   1  16
BRANCH   6  20
ATOM     20  C   UNL     1       2.851  -4.136  -2.859  0.00  0.00    +0.006 A 
ATOM     21  C   UNL     1       3.313  -4.793  -1.720  0.00  0.00    +0.014 A 
ATOM     22  C   UNL     1       2.904  -6.083  -1.455  0.00  0.00    +0.050 A 
ATOM     23  C   UNL     1       2.032  -6.732  -2.319  0.00  0.00    +0.162 A 
ATOM     24  C   UNL     1       1.566  -6.080  -3.456  0.00  0.00    +0.163 A 
ATOM     25  C   UNL     1       1.972  -4.783  -3.724  0.00  0.00    +0.059 A 
ATOM     26  O   UNL     1       0.705  -6.698  -4.310  0.00  0.00    -0.485 OA
ATOM     27  C   UNL     1       0.608  -8.123  -4.206  0.00  0.00    +0.270 C 
ATOM     28  C   UNL     1       0.481  -8.489  -2.721  0.00  0.00    +0.270 C 
ATOM     29  O   UNL     1       1.644  -8.007  -2.040  0.00  0.00    -0.485 OA
ENDBRANCH   6  20
TORSDOF 2
