REMARK  Name = ZINC22504745
REMARK  3 active torsions:
REMARK  status: ('A' for Active; 'I' for Inactive)
REMARK    1  A    between atoms: C_4  and  C_7
REMARK    2  A    between atoms: C_9  and  C_13
REMARK    3  A    between atoms: C_16  and  C_21
REMARK                            x       y       z     vdW  Elec       q    Type
REMARK                         _______ _______ _______ _____ _____    ______ ____
ROOT
ATOM      1  C   UNL     1       0.002  -0.004   0.002  0.00  0.00    +0.150 A 
ATOM      2  N   UNL     1       1.286  -0.262  -0.012  0.00  0.00    -0.154 NA
ATOM      3  N   UNL     1       2.224   0.761  -0.015  0.00  0.00    -0.185 N 
ATOM      4  C   UNL     1       3.601   0.937  -0.027  0.00  0.00    +0.186 A 
ATOM      5  N   UNL     1       3.841   2.228  -0.023  0.00  0.00    -0.126 NA
ATOM      6  N   UNL     1       2.731   2.880  -0.009  0.00  0.00    -0.120 NA
ATOM      7  C   UNL     1       1.734   2.044  -0.004  0.00  0.00    +0.219 A 
ATOM      8  S   UNL     1      -0.022   1.782   0.012  0.00  0.00    -0.025 S 
ENDROOT
BRANCH   1  11
ATOM      9  C   UNL     1      -3.198  -1.808   0.023  0.00  0.00    +0.093 A 
ATOM     10  C   UNL     1      -2.458  -0.615   0.023  0.00  0.00    +0.060 A 
ATOM     11  C   UNL     1      -1.133  -0.947   0.008  0.00  0.00    +0.093 A 
ATOM     12  N   UNL     1      -1.051  -2.309  -0.005  0.00  0.00    -0.274 N 
ATOM     13  H   UNL     1      -0.067  -2.801  -0.024  0.00  0.00    +0.189 HD
ATOM     14  N   UNL     1      -2.355  -2.820   0.009  0.00  0.00    -0.173 NA
BRANCH   9  18
ATOM     15  C   UNL     1      -7.441  -2.105   0.064  0.00  0.00    +0.000 A 
ATOM     16  C   UNL     1      -6.670  -3.253   0.049  0.00  0.00    +0.001 A 
ATOM     17  C   UNL     1      -5.292  -3.163   0.035  0.00  0.00    +0.010 A 
ATOM     18  C   UNL     1      -4.679  -1.912   0.037  0.00  0.00    +0.002 A 
ATOM     19  C   UNL     1      -5.460  -0.758   0.057  0.00  0.00    +0.010 A 
ATOM     20  C   UNL     1      -6.837  -0.861   0.065  0.00  0.00    +0.001 A 
ENDBRANCH   9  18
ENDBRANCH   1  11
BRANCH   4  21
ATOM     21  C   UNL     1       4.616  -0.137  -0.043  0.00  0.00    +0.021 A 
ATOM     22  C   UNL     1       4.254  -1.449   0.272  0.00  0.00    +0.011 A 
ATOM     23  C   UNL     1       5.205  -2.447   0.250  0.00  0.00    +0.001 A 
ATOM     24  C   UNL     1       6.518  -2.150  -0.071  0.00  0.00    +0.000 A 
ATOM     25  C   UNL     1       6.884  -0.852  -0.379  0.00  0.00    +0.001 A 
ATOM     26  C   UNL     1       5.942   0.155  -0.366  0.00  0.00    +0.011 A 
ENDBRANCH   4  21
TORSDOF 3
