REMARK  Name = ZINC36485002
REMARK  11 active torsions:
REMARK  status: ('A' for Active; 'I' for Inactive)
REMARK    1  A    between atoms: C_1  and  C_2
REMARK    2  A    between atoms: C_2  and  C_3
REMARK    3  A    between atoms: C_2  and  C_4
REMARK    4  A    between atoms: C_2  and  N_5
REMARK    5  A    between atoms: C_6  and  C_8
REMARK    6  A    between atoms: C_8  and  C_10
REMARK    7  A    between atoms: C_8  and  N_19
REMARK    8  A    between atoms: N_19  and  C_20
REMARK    9  A    between atoms: C_27  and  C_29
REMARK   10  A    between atoms: C_30  and  O_36
REMARK   11  A    between atoms: C_34  and  O_35
REMARK                            x       y       z     vdW  Elec       q    Type
REMARK                         _______ _______ _______ _____ _____    ______ ____
ROOT
ATOM      1  N   UNL     1       4.287  -0.518  -2.793  0.00  0.00    -0.251 N 
ATOM      2  C   UNL     1       4.895  -1.349  -1.925  0.00  0.00    +0.259 C 
ATOM      3  O   UNL     1       4.259  -1.854  -1.019  0.00  0.00    -0.269 OA
ENDROOT
BRANCH   1   4
ATOM      4  C   UNL     1       5.038   0.146  -3.769  0.00  0.00    +0.039 A 
ATOM      5  C   UNL     1       4.875  -0.175  -5.110  0.00  0.00    +0.023 A 
ATOM      6  C   UNL     1       5.617   0.482  -6.072  0.00  0.00    +0.003 A 
ATOM      7  C   UNL     1       6.522   1.460  -5.700  0.00  0.00    +0.020 A 
ATOM      8  C   UNL     1       6.688   1.782  -4.365  0.00  0.00    +0.043 A 
ATOM      9  C   UNL     1       5.943   1.131  -3.398  0.00  0.00    +0.043 A 
ATOM     10 CL   UNL     1       7.825   3.009  -3.903  0.00  0.00    -0.083 Cl
ENDBRANCH   1   4
BRANCH   2  11
ATOM     11  C   UNL     1       6.329  -1.647  -2.072  0.00  0.00    +0.120 A 
ATOM     12  C   UNL     1       7.278  -0.939  -1.320  0.00  0.00    +0.133 A 
ATOM     13  C   UNL     1       8.625  -1.227  -1.466  0.00  0.00    +0.046 A 
ATOM     14  C   UNL     1       9.036  -2.209  -2.349  0.00  0.00    +0.007 A 
ATOM     15  C   UNL     1       8.109  -2.913  -3.095  0.00  0.00    +0.046 A 
ATOM     16  C   UNL     1       6.756  -2.644  -2.961  0.00  0.00    +0.133 A 
BRANCH  16  17
ATOM     17  O   UNL     1       5.848  -3.340  -3.690  0.00  0.00    -0.506 OA
ATOM     18  H   UNL     1       5.643  -2.942  -4.547  0.00  0.00    +0.292 HD
ENDBRANCH  16  17
BRANCH  12  19
ATOM     19  O   UNL     1       6.878   0.025  -0.453  0.00  0.00    -0.506 OA
ATOM     20  H   UNL     1       6.703  -0.298   0.441  0.00  0.00    +0.292 HD
ENDBRANCH  12  19
ENDBRANCH   2  11
BRANCH   1  21
ATOM     21  C   UNL     1       2.839  -0.309  -2.716  0.00  0.00    +0.198 C 
BRANCH  21  22
ATOM     22  C   UNL     1       2.388   0.527  -3.886  0.00  0.00    -0.014 A 
ATOM     23  C   UNL     1       2.945   1.775  -4.097  0.00  0.00    +0.010 A 
ATOM     24  C   UNL     1       2.536   2.545  -5.169  0.00  0.00    +0.050 A 
ATOM     25  C   UNL     1       1.565   2.068  -6.035  0.00  0.00    +0.166 A 
ATOM     26  C   UNL     1       1.004   0.812  -5.822  0.00  0.00    +0.167 A 
ATOM     27  C   UNL     1       1.423   0.043  -4.749  0.00  0.00    +0.055 A 
ATOM     28  O   UNL     1       0.082   0.574  -6.801  0.00  0.00    -0.453 OA
ATOM     29  C   UNL     1      -0.209   1.862  -7.375  0.00  0.00    +0.466 C 
ATOM     30  O   UNL     1       0.995   2.618  -7.147  0.00  0.00    -0.453 OA
ENDBRANCH  21  22
BRANCH  21  32
ATOM     31  N   UNL     1       1.220   0.703  -1.142  0.00  0.00    -0.309 N 
ATOM     32  C   UNL     1       2.502   0.403  -1.431  0.00  0.00    +0.239 C 
ATOM     33  O   UNL     1       3.385   0.706  -0.656  0.00  0.00    -0.273 OA
ATOM     34  H   UNL     1       0.514   0.460  -1.762  0.00  0.00    +0.149 HD
BRANCH  31  36
ATOM     35  C   UNL     1       1.606   2.748   0.143  0.00  0.00    +0.031 C 
ATOM     36  C   UNL     1       0.893   1.394   0.107  0.00  0.00    +0.026 C 
ATOM     37  C   UNL     1       1.350   0.545   1.295  0.00  0.00    +0.031 C 
ATOM     38  C   UNL     1      -0.620   1.613   0.188  0.00  0.00    +0.031 C 
ENDBRANCH  31  36
ENDBRANCH  21  32
ENDBRANCH   1  21
TORSDOF 8
