REMARK  Name = ZINC31025026
REMARK  7 active torsions:
REMARK  status: ('A' for Active; 'I' for Inactive)
REMARK    1  A    between atoms: C_1  and  C_2
REMARK    2  A    between atoms: C_2  and  C_3
REMARK    3  A    between atoms: C_2  and  N_4
REMARK    4  A    between atoms: N_7  and  C_8
REMARK    5  A    between atoms: C_11  and  N_14
REMARK    6  A    between atoms: C_15  and  C_17
REMARK    7  A    between atoms: C_17  and  N_18
REMARK                            x       y       z     vdW  Elec       q    Type
REMARK                         _______ _______ _______ _____ _____    ______ ____
ROOT
ATOM      1  N   UNL     1      -5.850  -1.163   0.383  0.00  0.00    -0.284 N 
ATOM      2  C   UNL     1      -6.961  -0.773  -0.273  0.00  0.00    +0.235 C 
ATOM      3  O   UNL     1      -6.974   0.283  -0.869  0.00  0.00    -0.274 OA
ATOM      4  H   UNL     1      -5.862  -2.082   0.986  0.00  0.00    +0.155 HD
ENDROOT
BRANCH   1   8
ATOM      5  C   UNL     1      -2.369   1.120   0.129  0.00  0.00    +0.035 A 
ATOM      6  C   UNL     1      -2.288  -0.265   0.201  0.00  0.00    +0.025 A 
ATOM      7  C   UNL     1      -3.440  -1.020   0.290  0.00  0.00    +0.025 A 
ATOM      8  C   UNL     1      -4.681  -0.396   0.297  0.00  0.00    +0.034 A 
ATOM      9  C   UNL     1      -4.762   0.988   0.219  0.00  0.00    +0.025 A 
ATOM     10  C   UNL     1      -3.610   1.744   0.135  0.00  0.00    +0.025 A 
BRANCH   5  14
ATOM     11  N   UNL     1       0.016   3.786   0.646  0.00  0.00    -0.297 N 
ATOM     12  C   UNL     1      -1.139   3.092   0.643  0.00  0.00    +0.304 C 
ATOM     13  O   UNL     1      -2.125   3.551   1.187  0.00  0.00    -0.253 OA
ATOM     14  N   UNL     1      -1.200   1.887   0.043  0.00  0.00    -0.269 N 
ATOM     15  H   UNL     1       0.908   3.371   0.154  0.00  0.00    +0.151 HD
ATOM     16  H   UNL     1      -0.331   1.505  -0.513  0.00  0.00    +0.156 HD
BRANCH  11  18
ATOM     17  C   UNL     1       0.367   4.901   2.794  0.00  0.00    +0.027 C 
ATOM     18  C   UNL     1       0.084   5.094   1.303  0.00  0.00    +0.068 C 
ATOM     19  C   UNL     1       1.205   5.923   0.674  0.00  0.00    +0.027 C 
ENDBRANCH  11  18
ENDBRANCH   5  14
ENDBRANCH   1   8
BRANCH   2  20
ATOM     20  C   UNL     1      -8.187  -1.650  -0.266  0.00  0.00    +0.213 C 
BRANCH  20  21
ATOM     21  N   UNL     1      -9.250  -1.009  -1.044  0.00  0.00    -0.225 N 
ATOM     22  C   UNL     1     -10.167  -0.169  -0.532  0.00  0.00    +0.254 C 
ATOM     23  O   UNL     1     -10.243   0.174   0.631  0.00  0.00    -0.270 OA
ATOM     24  C   UNL     1     -11.064   0.270  -1.621  0.00  0.00    +0.049 A 
ATOM     25  C   UNL     1     -12.162   1.114  -1.690  0.00  0.00    +0.015 A 
ATOM     26  C   UNL     1     -12.800   1.313  -2.904  0.00  0.00    +0.016 A 
ATOM     27  C   UNL     1     -12.350   0.675  -4.046  0.00  0.00    +0.019 A 
ATOM     28  C   UNL     1     -11.253  -0.172  -3.991  0.00  0.00    +0.029 A 
ATOM     29  C   UNL     1     -10.605  -0.380  -2.785  0.00  0.00    +0.050 A 
ATOM     30  C   UNL     1      -9.441  -1.188  -2.364  0.00  0.00    +0.254 C 
ATOM     31  O   UNL     1      -8.770  -1.895  -3.088  0.00  0.00    -0.270 OA
ATOM     32 BR   UNL     1     -13.237   0.959  -5.691  0.00  0.00    -0.050 Br
ENDBRANCH  20  21
ENDBRANCH   2  20
TORSDOF 5
