REMARK  Name = ZINC25375140
REMARK  6 active torsions:
REMARK  status: ('A' for Active; 'I' for Inactive)
REMARK    1  A    between atoms: C_1  and  C_2
REMARK    2  A    between atoms: C_2  and  C_4
REMARK    3  A    between atoms: C_2  and  N_18
REMARK    4  A    between atoms: C_4  and  C_5
REMARK    5  A    between atoms: N_7  and  C_8
REMARK    6  A    between atoms: C_19  and  C_21
REMARK                            x       y       z     vdW  Elec       q    Type
REMARK                         _______ _______ _______ _____ _____    ______ ____
ROOT
ATOM      1  C   UNL     1      -1.187   1.624   0.017  0.00  0.00    +0.215 C 
ATOM      2  O   UNL     1      -1.204   2.837   0.023  0.00  0.00    -0.276 OA
ATOM      3  N   UNL     1      -0.011   0.966   0.007  0.00  0.00    -0.310 N 
ATOM      4  H   UNL     1       0.004  -0.134   0.006  0.00  0.00    +0.149 HD
ENDROOT
BRANCH   3   5
ATOM      5  C   UNL     1       1.248   1.716  -0.001  0.00  0.00    +0.035 C 
ATOM      6  C   UNL     1       1.305   2.603  -1.246  0.00  0.00    +0.029 C 
ATOM      7  C   UNL     1       2.619   3.386  -1.254  0.00  0.00    -0.008 C 
ATOM      8  C   UNL     1       3.795   2.408  -1.271  0.00  0.00    +0.007 C 
ATOM      9  C   UNL     1       3.738   1.520  -0.025  0.00  0.00    -0.008 C 
ATOM     10  C   UNL     1       2.424   0.737  -0.017  0.00  0.00    +0.029 C 
ATOM     11  C   UNL     1       3.819   2.394   1.228  0.00  0.00    +0.007 C 
ATOM     12  C   UNL     1       2.643   3.372   1.244  0.00  0.00    -0.008 C 
ATOM     13  C   UNL     1       2.700   4.260  -0.001  0.00  0.00    +0.007 C 
ATOM     14  C   UNL     1       1.329   2.589   1.253  0.00  0.00    +0.029 C 
ENDBRANCH   3   5
BRANCH   1  15
ATOM     15  C   UNL     1      -2.482   0.853   0.018  0.00  0.00    +0.117 C 
BRANCH  15  17
ATOM     16  C   UNL     1      -4.970   1.053  -0.094  0.00  0.00    +0.028 C 
ATOM     17  C   UNL     1      -3.658   1.831   0.029  0.00  0.00    +0.079 C 
BRANCH  17  18
ATOM     18  N   UNL     1      -3.655   2.585   1.285  0.00  0.00    -0.308 N 
ATOM     19  C   UNL     1      -4.231   3.802   1.342  0.00  0.00    +0.244 C 
ATOM     20  O   UNL     1      -4.755   4.273   0.352  0.00  0.00    -0.270 OA
ATOM     21  H   UNL     1      -3.181   2.159   2.182  0.00  0.00    +0.149 HD
BRANCH  19  22
ATOM     22  C   UNL     1      -4.228   4.563   2.610  0.00  0.00    +0.037 A 
ATOM     23  C   UNL     1      -3.633   4.022   3.751  0.00  0.00    +0.013 A 
ATOM     24  C   UNL     1      -3.628   4.740   4.929  0.00  0.00    +0.001 A 
ATOM     25  C   UNL     1      -4.221   5.989   4.984  0.00  0.00    +0.000 A 
ATOM     26  C   UNL     1      -4.818   6.528   3.858  0.00  0.00    +0.001 A 
ATOM     27  C   UNL     1      -4.824   5.823   2.672  0.00  0.00    +0.013 A 
ENDBRANCH  19  22
ENDBRANCH  17  18
ENDBRANCH  15  17
ENDBRANCH   1  15
TORSDOF 5
