REMARK  Name = ZINC02358998
REMARK  2 active torsions:
REMARK  status: ('A' for Active; 'I' for Inactive)
REMARK    1  A    between atoms: C_21  and  C_23
REMARK    2  A    between atoms: C_28  and  O_29
REMARK                            x       y       z     vdW  Elec       q    Type
REMARK                         _______ _______ _______ _____ _____    ______ ____
ROOT
ATOM      1  C   UNL     1      -0.017   1.379   0.010  0.00  0.00    +0.000 A 
ATOM      2  C   UNL     1       1.167   2.095   0.002  0.00  0.00    +0.001 A 
ATOM      3  C   UNL     1       2.377   1.430  -0.025  0.00  0.00    +0.010 A 
ATOM      4  C   UNL     1       2.400   0.039  -0.049  0.00  0.00    +0.004 A 
ATOM      5  C   UNL     1       1.205  -0.680  -0.015  0.00  0.00    -0.037 A 
ATOM      6  C   UNL     1       0.002  -0.004   0.002  0.00  0.00    +0.004 A 
ATOM      7  C   UNL     1       1.228  -2.184   0.033  0.00  0.00    +0.047 C 
ATOM      8  C   UNL     1       2.386  -2.733  -0.800  0.00  0.00    +0.005 C 
ATOM      9  C   UNL     1       2.528  -4.236  -0.536  0.00  0.00    +0.012 C 
ATOM     10  C   UNL     1       1.222  -4.942  -0.904  0.00  0.00    +0.001 C 
ATOM     11  C   UNL     1       0.920  -4.716  -2.387  0.00  0.00    +0.000 C 
ATOM     12  C   UNL     1       0.784  -3.216  -2.656  0.00  0.00    +0.001 C 
ATOM     13  C   UNL     1       2.089  -2.510  -2.286  0.00  0.00    +0.012 C 
ATOM     14  C   UNL     1       3.666  -2.041  -0.436  0.00  0.00    +0.029 A 
ATOM     15  C   UNL     1       3.684  -0.699  -0.091  0.00  0.00    +0.080 A 
ATOM     16  N   UNL     1       4.837  -0.077   0.203  0.00  0.00    -0.235 NA
ATOM     17  C   UNL     1       6.000  -0.682   0.205  0.00  0.00    +0.225 A 
ATOM     18  N   UNL     1       6.048  -2.003  -0.105  0.00  0.00    -0.201 N 
ATOM     19  C   UNL     1       4.901  -2.707  -0.429  0.00  0.00    +0.164 A 
ATOM     20  N   UNL     1       5.250  -3.945  -0.680  0.00  0.00    -0.206 NA
ATOM     21  C   UNL     1       6.573  -4.076  -0.533  0.00  0.00    +0.186 A 
ATOM     22  N   UNL     1       7.096  -2.910  -0.182  0.00  0.00    -0.143 NA
ENDROOT
BRANCH  21  23
ATOM     23  C   UNL     1       7.337  -5.332  -0.732  0.00  0.00    +0.062 A 
ATOM     24  C   UNL     1       6.678  -6.500  -1.108  0.00  0.00    +0.015 A 
ATOM     25  C   UNL     1       7.393  -7.665  -1.292  0.00  0.00    +0.001 A 
ATOM     26  C   UNL     1       8.764  -7.679  -1.104  0.00  0.00    +0.004 A 
ATOM     27  C   UNL     1       9.428  -6.526  -0.731  0.00  0.00    +0.046 A 
ATOM     28  C   UNL     1       8.723  -5.347  -0.548  0.00  0.00    +0.128 A 
BRANCH  28  29
ATOM     29  O   UNL     1       9.375  -4.212  -0.186  0.00  0.00    -0.506 OA
ATOM     30  H   UNL     1       9.449  -4.089   0.770  0.00  0.00    +0.292 HD
ENDBRANCH  28  29
ENDBRANCH  21  23
TORSDOF 2
