REMARK  Name = ZINC59385519
REMARK  5 active torsions:
REMARK  status: ('A' for Active; 'I' for Inactive)
REMARK    1  A    between atoms: C_1  and  C_2
REMARK    2  A    between atoms: C_3  and  C_17
REMARK    3  A    between atoms: C_4  and  C_10
REMARK    4  A    between atoms: N_19  and  N_20
REMARK    5  A    between atoms: C_21  and  C_22
REMARK                            x       y       z     vdW  Elec       q    Type
REMARK                         _______ _______ _______ _____ _____    ______ ____
ROOT
ATOM      1  C   UNL     1      -0.041   1.493   0.084  0.00  0.00    +0.061 C 
ATOM      2  C   UNL     1      -0.011  -0.013   0.026  0.00  0.00    +0.019 C 
ATOM      3  C   UNL     1      -1.171  -0.701   0.032  0.00  0.00    +0.057 C 
ATOM      4  C   UNL     1      -1.095  -2.213  -0.028  0.00  0.00    +0.142 C 
ATOM      5  N   UNL     1       0.249  -2.812  -0.087  0.00  0.00    -0.288 N 
ATOM      6  C   UNL     1       1.318  -1.991  -0.085  0.00  0.00    +0.304 C 
ATOM      7  O   UNL     1       2.432  -2.476  -0.133  0.00  0.00    -0.252 OA
ATOM      8  N   UNL     1       1.192  -0.659  -0.036  0.00  0.00    -0.273 N 
ATOM      9  H   UNL     1       0.362  -3.775  -0.126  0.00  0.00    +0.151 HD
ATOM     10  H   UNL     1       2.001  -0.122  -0.042  0.00  0.00    +0.156 HD
ENDROOT
BRANCH   4  11
ATOM     11  C   UNL     1      -1.794  -2.762   1.189  0.00  0.00    -0.022 A 
ATOM     12  C   UNL     1      -1.187  -2.684   2.429  0.00  0.00    +0.007 A 
ATOM     13  C   UNL     1      -1.828  -3.186   3.545  0.00  0.00    +0.015 A 
ATOM     14  C   UNL     1      -3.077  -3.768   3.422  0.00  0.00    +0.018 A 
ATOM     15  C   UNL     1      -3.684  -3.846   2.182  0.00  0.00    +0.015 A 
ATOM     16  C   UNL     1      -3.045  -3.338   1.067  0.00  0.00    +0.007 A 
ATOM     17 BR   UNL     1      -3.954  -4.456   4.950  0.00  0.00    -0.050 Br
ENDBRANCH   4  11
BRANCH   3  18
ATOM     18  C   UNL     1      -2.419  -0.033   0.091  0.00  0.00    +0.263 C 
ATOM     19  O   UNL     1      -3.079   0.117  -0.922  0.00  0.00    -0.269 OA
ATOM     20  N   UNL     1      -2.875   0.438   1.268  0.00  0.00    -0.203 N 
ATOM     21  H   UNL     1      -2.318   0.386   2.061  0.00  0.00    +0.178 HD
BRANCH  20  22
ATOM     22  N   UNL     1      -4.155   1.003   1.348  0.00  0.00    -0.187 NA
ATOM     23  C   UNL     1      -4.595   1.456   2.482  0.00  0.00    +0.139 C 
BRANCH  23  24
ATOM     24  C   UNL     1      -5.942   2.050   2.566  0.00  0.00    +0.013 A 
ATOM     25  C   UNL     1      -6.416   2.544   3.784  0.00  0.00    +0.012 A 
ATOM     26  C   UNL     1      -7.676   3.099   3.855  0.00  0.00    +0.021 A 
ATOM     27  C   UNL     1      -8.473   3.167   2.724  0.00  0.00    +0.042 A 
ATOM     28  C   UNL     1      -8.010   2.679   1.514  0.00  0.00    +0.040 A 
ATOM     29  C   UNL     1      -6.748   2.127   1.426  0.00  0.00    +0.051 A 
ATOM     30 CL   UNL     1      -6.165   1.522  -0.094  0.00  0.00    -0.083 Cl
ATOM     31 CL   UNL     1     -10.059   3.866   2.824  0.00  0.00    -0.083 Cl
ENDBRANCH  23  24
ENDBRANCH  20  22
ENDBRANCH   3  18
TORSDOF 4
