REMARK  Name = ZINC17307159
REMARK  8 active torsions:
REMARK  status: ('A' for Active; 'I' for Inactive)
REMARK    1  A    between atoms: C_1  and  C_2
REMARK    2  A    between atoms: C_2  and  O_3
REMARK    3  A    between atoms: O_3  and  C_4
REMARK    4  A    between atoms: C_6  and  C_11
REMARK    5  A    between atoms: C_9  and  O_10
REMARK    6  A    between atoms: N_17  and  C_18
REMARK    7  A    between atoms: C_21  and  C_25
REMARK    8  A    between atoms: C_23  and  C_24
REMARK                            x       y       z     vdW  Elec       q    Type
REMARK                         _______ _______ _______ _____ _____    ______ ____
ROOT
ATOM      1  C   UNL     1       0.806  -5.198   1.130  0.00  0.00    +0.028 C 
ATOM      2  C   UNL     1       0.550  -6.470   0.730  0.00  0.00    +0.078 C 
ATOM      3  C   UNL     1       0.924  -7.149  -0.525  0.00  0.00    +0.256 C 
ATOM      4  O   UNL     1       1.553  -6.577  -1.396  0.00  0.00    -0.269 OA
ATOM      5  N   UNL     1       0.544  -8.409  -0.661  0.00  0.00    -0.260 N 
ATOM      6  C   UNL     1      -0.168  -9.039   0.336  0.00  0.00    +0.166 C 
ATOM      7  N   UNL     1      -0.618 -10.274   0.363  0.00  0.00    -0.225 NA
ATOM      8  S   UNL     1      -0.322  -7.774   1.586  0.00  0.00    -0.049 S 
ATOM      9  H   UNL     1       0.768  -8.893  -1.471  0.00  0.00    +0.157 HD
ENDROOT
BRANCH   7  10
ATOM     10  C   UNL     1      -1.416 -10.688   1.394  0.00  0.00    +0.069 A 
ATOM     11  C   UNL     1      -2.518  -9.922   1.781  0.00  0.00    +0.028 A 
ATOM     12  C   UNL     1      -3.319 -10.346   2.821  0.00  0.00    +0.005 A 
ATOM     13  C   UNL     1      -3.032 -11.528   3.481  0.00  0.00    -0.050 A 
ATOM     14  C   UNL     1      -1.942 -12.292   3.104  0.00  0.00    +0.008 A 
ATOM     15  C   UNL     1      -1.136 -11.883   2.062  0.00  0.00    -0.025 A 
ATOM     16  C   UNL     1       0.048 -12.719   1.649  0.00  0.00    +0.046 C 
ATOM     17  C   UNL     1      -3.911 -11.985   4.617  0.00  0.00    +0.044 C 
ENDBRANCH   7  10
BRANCH   1  20
ATOM     18  C   UNL     1       2.881  -2.405  -0.269  0.00  0.00    +0.162 A 
ATOM     19  C   UNL     1       2.340  -3.308   0.624  0.00  0.00    +0.057 A 
ATOM     20  C   UNL     1       1.385  -4.234   0.186  0.00  0.00    -0.020 A 
ATOM     21  C   UNL     1       0.986  -4.238  -1.156  0.00  0.00    +0.012 A 
ATOM     22  C   UNL     1       1.532  -3.333  -2.040  0.00  0.00    +0.050 A 
ATOM     23  C   UNL     1       2.474  -2.412  -1.602  0.00  0.00    +0.158 A 
BRANCH  23  24
ATOM     24  O   UNL     1       3.005  -1.518  -2.477  0.00  0.00    -0.503 OA
ATOM     25  H   UNL     1       3.803  -1.832  -2.924  0.00  0.00    +0.292 HD
ENDBRANCH  23  24
BRANCH  18  26
ATOM     26  O   UNL     1       3.808  -1.504   0.154  0.00  0.00    -0.489 OA
BRANCH  26  28
ATOM     27  C   UNL     1       5.224  -0.472   1.819  0.00  0.00    +0.048 C 
ATOM     28  C   UNL     1       4.179  -1.553   1.533  0.00  0.00    +0.226 C 
ENDBRANCH  26  28
ENDBRANCH  18  26
ENDBRANCH   1  20
TORSDOF 5
