REMARK  Name = ZINC12705855
REMARK  9 active torsions:
REMARK  status: ('A' for Active; 'I' for Inactive)
REMARK    1  A    between atoms: C_1  and  C_2
REMARK    2  A    between atoms: C_2  and  N_3
REMARK    3  A    between atoms: C_7  and  C_9
REMARK    4  A    between atoms: C_9  and  N_10
REMARK    5  A    between atoms: N_10  and  C_11
REMARK    6  A    between atoms: C_11  and  C_12
REMARK    7  A    between atoms: C_16  and  C_25
REMARK    8  A    between atoms: C_18  and  C_24
REMARK    9  A    between atoms: N_28  and  C_29
REMARK                            x       y       z     vdW  Elec       q    Type
REMARK                         _______ _______ _______ _____ _____    ______ ____
ROOT
ATOM      1  N   UNL     1      -1.197  -0.709   0.556  0.00  0.00    -0.283 N 
ATOM      2  C   UNL     1      -0.147  -0.069   0.004  0.00  0.00    +0.303 C 
ATOM      3  O   UNL     1       0.944  -0.605  -0.026  0.00  0.00    -0.253 OA
ATOM      4  N   UNL     1      -0.307   1.164  -0.516  0.00  0.00    -0.296 N 
ATOM      5  H   UNL     1      -1.309   1.616  -0.561  0.00  0.00    +0.151 HD
ENDROOT
BRANCH   4   6
ATOM      6  C   UNL     1       0.853   1.902  -1.021  0.00  0.00    +0.074 C 
ATOM      7  C   UNL     1       1.533   2.637   0.136  0.00  0.00    +0.022 C 
ATOM      8  C   UNL     1       2.745   3.408  -0.392  0.00  0.00    +0.002 C 
ATOM      9  C   UNL     1       2.287   4.422  -1.442  0.00  0.00    +0.000 C 
ATOM     10  C   UNL     1       1.607   3.687  -2.598  0.00  0.00    +0.002 C 
ATOM     11  C   UNL     1       0.395   2.916  -2.071  0.00  0.00    +0.022 C 
ENDBRANCH   4   6
BRANCH   1  12
ATOM     12  C   UNL     1      -2.534  -0.112   0.493  0.00  0.00    +0.094 C 
BRANCH  12  17
ATOM     13  N   UNL     1      -4.688  -0.205  -0.691  0.00  0.00    +0.382 N 
ATOM     14  C   UNL     1      -4.922   0.570  -1.928  0.00  0.00    -0.078 C 
ATOM     15  C   UNL     1      -3.877   0.032  -2.937  0.00  0.00    -0.020 C 
ATOM     16  C   UNL     1      -2.652  -0.213  -2.018  0.00  0.00    -0.016 C 
ATOM     17  C   UNL     1      -3.296  -0.693  -0.700  0.00  0.00    -0.051 C 
ATOM     18  H   UNL     1      -5.378  -1.060  -0.650  0.00  0.00    -0.081 HD
BRANCH  13  20
ATOM     19  C   UNL     1      -6.363   1.197   0.416  0.00  0.00    -0.017 C 
ATOM     20  C   UNL     1      -4.952   0.612   0.501  0.00  0.00    -0.082 C 
ENDBRANCH  13  20
ENDBRANCH  12  17
ENDBRANCH   1  12
BRANCH   1  21
ATOM     21  C   UNL     1      -1.002  -2.001   1.218  0.00  0.00    +0.149 C 
BRANCH  21  22
ATOM     22  C   UNL     1      -0.827  -1.785   2.699  0.00  0.00    +0.035 A 
ATOM     23  C   UNL     1      -1.897  -1.881   3.527  0.00  0.00    +0.020 A 
ATOM     24  C   UNL     1      -1.693  -1.670   4.961  0.00  0.00    -0.001 A 
ATOM     25  C   UNL     1      -2.757  -1.762   5.865  0.00  0.00    +0.013 A 
ATOM     26  C   UNL     1      -2.535  -1.554   7.196  0.00  0.00    -0.050 A 
ATOM     27  C   UNL     1      -1.261  -1.253   7.661  0.00  0.00    +0.008 A 
ATOM     28  C   UNL     1      -0.199  -1.157   6.790  0.00  0.00    -0.026 A 
ATOM     29  C   UNL     1      -0.401  -1.365   5.429  0.00  0.00    +0.052 A 
ATOM     30  N   UNL     1       0.644  -1.276   4.534  0.00  0.00    -0.322 N 
ATOM     31  H   UNL     1       1.657  -1.038   4.893  0.00  0.00    +0.169 HD
ATOM     32  C   UNL     1       0.448  -1.477   3.219  0.00  0.00    +0.254 A 
ATOM     33  O   UNL     1       1.395  -1.391   2.457  0.00  0.00    -0.268 OA
ATOM     34  C   UNL     1       1.178  -0.830   7.308  0.00  0.00    +0.046 C 
ATOM     35  C   UNL     1      -3.681  -1.652   8.169  0.00  0.00    +0.044 C 
ENDBRANCH  21  22
ENDBRANCH   1  21
TORSDOF 6
