REMARK  Name = ZINC16249357
REMARK  11 active torsions:
REMARK  status: ('A' for Active; 'I' for Inactive)
REMARK    1  A    between atoms: C_1  and  C_2
REMARK    2  A    between atoms: C_3  and  C_14
REMARK    3  A    between atoms: C_4  and  O_13
REMARK    4  A    between atoms: N_5  and  C_7
REMARK    5  A    between atoms: C_16  and  C_31
REMARK    6  A    between atoms: C_17  and  C_29
REMARK    7  A    between atoms: N_20  and  C_23
REMARK    8  A    between atoms: C_23  and  C_24
REMARK    9  A    between atoms: C_24  and  O_25
REMARK   10  A    between atoms: O_25  and  C_26
REMARK   11  A    between atoms: C_26  and  C_28
REMARK                            x       y       z     vdW  Elec       q    Type
REMARK                         _______ _______ _______ _____ _____    ______ ____
ROOT
ATOM      1  C   UNL     1       0.313  -0.134  -2.395  0.00  0.00    +0.028 C 
ATOM      2  C   UNL     1       1.145  -0.741  -3.338  0.00  0.00    +0.042 C 
ATOM      3  C   UNL     1       1.941  -1.850  -2.979  0.00  0.00    -0.016 C 
ATOM      4  C   UNL     1       2.755  -2.427  -3.944  0.00  0.00    +0.117 C 
ATOM      5  C   UNL     1       2.770  -1.877  -5.300  0.00  0.00    +0.264 C 
ATOM      6  O   UNL     1       3.484  -2.383  -6.147  0.00  0.00    -0.269 OA
ATOM      7  N   UNL     1       2.005  -0.819  -5.622  0.00  0.00    -0.230 N 
ATOM      8  C   UNL     1       1.198  -0.237  -4.717  0.00  0.00    +0.254 C 
ATOM      9  O   UNL     1       0.513   0.715  -5.040  0.00  0.00    -0.270 OA
ATOM     10  C   UNL     1       1.907  -2.397  -1.575  0.00  0.00    +0.046 C 
ENDROOT
BRANCH   1  13
ATOM     11  C   UNL     1      -1.743  -1.450  -0.317  0.00  0.00    +0.068 C 
ATOM     12  C   UNL     1      -0.360  -0.918  -0.042  0.00  0.00    +0.071 A 
ATOM     13  C   UNL     1       0.552  -0.322  -1.022  0.00  0.00    +0.060 A 
ATOM     14  C   UNL     1       1.712   0.023  -0.311  0.00  0.00    +0.223 A 
ATOM     15  N   UNL     1       1.513  -0.333   0.972  0.00  0.00    -0.200 N 
ATOM     16  N   UNL     1       0.243  -0.898   1.112  0.00  0.00    -0.168 NA
BRANCH  15  17
ATOM     17  C   UNL     1       2.438  -0.158   2.011  0.00  0.00    +0.069 A 
ATOM     18  C   UNL     1       3.798  -0.283   1.760  0.00  0.00    +0.028 A 
ATOM     19  C   UNL     1       4.706  -0.109   2.786  0.00  0.00    +0.002 A 
ATOM     20  C   UNL     1       4.263   0.188   4.061  0.00  0.00    +0.000 A 
ATOM     21  C   UNL     1       2.909   0.312   4.314  0.00  0.00    +0.002 A 
ATOM     22  C   UNL     1       1.996   0.146   3.292  0.00  0.00    +0.028 A 
ENDBRANCH  15  17
BRANCH  14  23
ATOM     23  O   UNL     1       2.821   0.604  -0.820  0.00  0.00    -0.492 OA
ATOM     24  H   UNL     1       2.837   1.567  -0.730  0.00  0.00    +0.294 HD
ENDBRANCH  14  23
ENDBRANCH   1  13
BRANCH   4  25
ATOM     25  C   UNL     1       3.576  -3.554  -3.614  0.00  0.00    +0.105 C 
ATOM     26  N   UNL     1       4.227  -4.447  -3.353  0.00  0.00    -0.191 NA
ENDBRANCH   4  25
BRANCH   7  27
ATOM     27  C   UNL     1       2.045  -0.294  -6.990  0.00  0.00    +0.158 C 
BRANCH  27  28
ATOM     28  C   UNL     1       0.986  -1.002  -7.838  0.00  0.00    +0.251 C 
BRANCH  28  29
ATOM     29  O   UNL     1      -0.315  -0.675  -7.346  0.00  0.00    -0.463 OA
BRANCH  29  30
ATOM     30  C   UNL     1      -1.363  -1.219  -7.986  0.00  0.00    +0.304 C 
ATOM     31  O   UNL     1      -1.181  -1.948  -8.932  0.00  0.00    -0.251 OA
ATOM     32  C   UNL     1      -2.765  -0.921  -7.523  0.00  0.00    +0.136 C 
ENDBRANCH  29  30
ENDBRANCH  28  29
ENDBRANCH  27  28
ENDBRANCH   7  27
TORSDOF 8
