REMARK  Name = ZINC35870342
REMARK  8 active torsions:
REMARK  status: ('A' for Active; 'I' for Inactive)
REMARK    1  A    between atoms: C_1  and  C_2
REMARK    2  A    between atoms: C_2  and  C_3
REMARK    3  A    between atoms: C_3  and  C_5
REMARK    4  A    between atoms: C_3  and  N_6
REMARK    5  A    between atoms: C_7  and  C_9
REMARK    6  A    between atoms: C_14  and  N_33
REMARK    7  A    between atoms: N_22  and  C_25
REMARK    8  A    between atoms: C_25  and  C_26
REMARK                            x       y       z     vdW  Elec       q    Type
REMARK                         _______ _______ _______ _____ _____    ______ ____
ROOT
ATOM      1  C   UNL     1       4.271   0.470  -2.304  0.00  0.00    +0.098 C 
ATOM      2  C   UNL     1       5.031  -0.532  -1.460  0.00  0.00    +0.051 C 
ATOM      3  C   UNL     1       5.300  -1.808  -2.204  0.00  0.00    -0.023 A 
ATOM      4  C   UNL     1       5.406  -2.999  -1.509  0.00  0.00    +0.038 A 
ATOM      5  C   UNL     1       5.656  -4.178  -2.185  0.00  0.00    +0.127 A 
ATOM      6  C   UNL     1       5.802  -4.172  -3.560  0.00  0.00    +0.034 A 
ATOM      7  C   UNL     1       5.696  -2.987  -4.260  0.00  0.00    +0.025 A 
ATOM      8  C   UNL     1       5.443  -1.799  -3.583  0.00  0.00    +0.033 A 
ATOM      9  N   UNL     1       5.326  -0.609  -4.291  0.00  0.00    -0.329 N 
ATOM     10  C   UNL     1       4.775   0.606  -3.715  0.00  0.00    +0.069 C 
ATOM     11  C   UNL     1       5.803   1.729  -3.857  0.00  0.00    -0.055 C 
ATOM     12  N   UNL     1       6.180   1.854  -5.272  0.00  0.00    +0.385 N 
ATOM     13  C   UNL     1       6.819   0.621  -5.746  0.00  0.00    -0.059 C 
ATOM     14  C   UNL     1       5.817  -0.532  -5.682  0.00  0.00    +0.087 C 
ATOM     15  H   UNL     1       5.354   2.033  -5.823  0.00  0.00    -0.081 HD
ENDROOT
BRANCH   1  17
ATOM     16  N   UNL     1       2.125  -0.091  -1.209  0.00  0.00    -0.312 N 
ATOM     17  C   UNL     1       2.824   0.051  -2.353  0.00  0.00    +0.218 C 
ATOM     18  O   UNL     1       2.289  -0.157  -3.421  0.00  0.00    -0.275 OA
ATOM     19  H   UNL     1       2.553   0.075  -0.355  0.00  0.00    +0.149 HD
BRANCH  16  20
ATOM     20  C   UNL     1       0.718  -0.497  -1.257  0.00  0.00    +0.070 C 
ATOM     21  C   UNL     1       0.630  -2.023  -1.329  0.00  0.00    +0.028 C 
BRANCH  20  23
ATOM     22  C   UNL     1      -0.019   1.526   0.010  0.00  0.00    +0.005 C 
ATOM     23  C   UNL     1       0.002  -0.004   0.002  0.00  0.00    +0.018 C 
ENDBRANCH  20  23
ENDBRANCH  16  20
ENDBRANCH   1  17
BRANCH   5  24
ATOM     24  N   UNL     1       5.768  -5.449  -1.436  0.00  0.00    +0.056 N 
ATOM     25  O   UNL     1       5.640  -5.456  -0.234  0.00  0.00    -0.126 OA
ATOM     26  O   UNL     1       5.987  -6.482  -2.027  0.00  0.00    -0.126 OA
ENDBRANCH   5  24
BRANCH  12  27
ATOM     27  C   UNL     1       7.117   2.976  -5.427  0.00  0.00    -0.043 C 
BRANCH  27  28
ATOM     28  C   UNL     1       7.411   3.186  -6.890  0.00  0.00    -0.064 A 
ATOM     29  C   UNL     1       8.465   2.518  -7.486  0.00  0.00    +0.003 A 
ATOM     30  C   UNL     1       8.735   2.711  -8.828  0.00  0.00    +0.020 A 
ATOM     31  C   UNL     1       7.951   3.572  -9.574  0.00  0.00    +0.041 A 
ATOM     32  C   UNL     1       6.897   4.240  -8.977  0.00  0.00    +0.020 A 
ATOM     33  C   UNL     1       6.624   4.042  -7.637  0.00  0.00    +0.003 A 
ATOM     34 CL   UNL     1       8.291   3.815 -11.259  0.00  0.00    -0.084 Cl
ENDBRANCH  27  28
ENDBRANCH  12  27
TORSDOF 6
