REMARK  Name = ZINC59003303
REMARK  8 active torsions:
REMARK  status: ('A' for Active; 'I' for Inactive)
REMARK    1  A    between atoms: C_1  and  C_2
REMARK    2  A    between atoms: C_2  and  N_3
REMARK    3  A    between atoms: C_9  and  S_16
REMARK    4  A    between atoms: N_13  and  C_14
REMARK    5  A    between atoms: C_14  and  C_15
REMARK    6  A    between atoms: S_16  and  C_17
REMARK    7  A    between atoms: C_17  and  C_18
REMARK    8  A    between atoms: N_20  and  C_21
REMARK                            x       y       z     vdW  Elec       q    Type
REMARK                         _______ _______ _______ _____ _____    ______ ____
ROOT
ATOM      1  S   UNL     1       1.831  -6.961   2.914  0.00  0.00    -0.076 S 
ENDROOT
BRANCH   1   8
ATOM      2  N   UNL     1       0.692  -0.490   1.198  0.00  0.00    -0.314 N 
ATOM      3  C   UNL     1       0.841  -1.846   1.407  0.00  0.00    +0.221 A 
ATOM      4  N   UNL     1       0.335  -2.694   0.529  0.00  0.00    -0.177 NA
ATOM      5  C   UNL     1       0.472  -4.018   0.718  0.00  0.00    +0.262 A 
ATOM      6  N   UNL     1       0.093  -5.084   0.047  0.00  0.00    -0.107 NA
ATOM      7  N   UNL     1       0.477  -6.148   0.661  0.00  0.00    -0.120 NA
ATOM      8  C   UNL     1       1.123  -5.835   1.758  0.00  0.00    +0.200 A 
ATOM      9  N   UNL     1       1.145  -4.470   1.837  0.00  0.00    -0.226 N 
ATOM     10  C   UNL     1       1.655  -3.563   2.724  0.00  0.00    +0.207 A 
ATOM     11  N   UNL     1       1.499  -2.273   2.491  0.00  0.00    -0.182 NA
ATOM     12  N   UNL     1       2.325  -3.988   3.839  0.00  0.00    -0.315 N 
ATOM     13  H   UNL     1       1.062   0.142   1.834  0.00  0.00    +0.149 HD
ATOM     14  H   UNL     1       2.441  -4.937   4.003  0.00  0.00    +0.149 HD
BRANCH   2  16
ATOM     15  C   UNL     1      -0.048   1.525   0.026  0.00  0.00    +0.024 C 
ATOM     16  C   UNL     1      -0.026  -0.005   0.017  0.00  0.00    +0.101 C 
ENDBRANCH   2  16
BRANCH  12  17
ATOM     17  C   UNL     1       2.868  -3.010   4.785  0.00  0.00    +0.101 C 
ATOM     18  C   UNL     1       3.564  -3.743   5.933  0.00  0.00    +0.024 C 
ENDBRANCH  12  17
ENDBRANCH   1   8
BRANCH   1  19
ATOM     19  C   UNL     1       1.451  -8.595   2.223  0.00  0.00    +0.173 C 
BRANCH  19  20
ATOM     20  C   UNL     1       2.008  -9.664   3.127  0.00  0.00    +0.227 C 
ATOM     21  O   UNL     1       2.603  -9.355   4.138  0.00  0.00    -0.275 OA
ATOM     22  N   UNL     1       1.846 -10.965   2.812  0.00  0.00    -0.285 N 
ATOM     23  H   UNL     1       1.314 -11.214   2.040  0.00  0.00    +0.155 HD
BRANCH  22  24
ATOM     24  C   UNL     1       2.445 -11.954   3.598  0.00  0.00    +0.034 A 
ATOM     25  C   UNL     1       2.933 -13.113   3.005  0.00  0.00    +0.024 A 
ATOM     26  C   UNL     1       3.523 -14.090   3.776  0.00  0.00    +0.010 A 
ATOM     27  C   UNL     1       3.633 -13.919   5.158  0.00  0.00    -0.014 A 
ATOM     28  C   UNL     1       3.143 -12.756   5.746  0.00  0.00    -0.034 A 
ATOM     29  C   UNL     1       2.558 -11.778   4.972  0.00  0.00    +0.028 A 
ATOM     30  C   UNL     1       3.400 -12.853   7.230  0.00  0.00    +0.071 C 
ATOM     31  C   UNL     1       4.084 -14.180   7.449  0.00  0.00    -0.035 A 
ATOM     32  C   UNL     1       4.213 -14.795   6.206  0.00  0.00    -0.014 A 
ATOM     33  C   UNL     1       4.819 -16.050   6.123  0.00  0.00    +0.009 A 
ATOM     34  C   UNL     1       5.283 -16.668   7.266  0.00  0.00    +0.001 A 
ATOM     35  C   UNL     1       5.151 -16.048   8.496  0.00  0.00    +0.000 A 
ATOM     36  C   UNL     1       4.551 -14.804   8.585  0.00  0.00    +0.004 A 
ENDBRANCH  22  24
ENDBRANCH  19  20
ENDBRANCH   1  19
TORSDOF 6
