REMARK  Name = ZINC01127596
REMARK  9 active torsions:
REMARK  status: ('A' for Active; 'I' for Inactive)
REMARK    1  A    between atoms: C_1  and  C_2
REMARK    2  A    between atoms: C_2  and  C_3
REMARK    3  A    between atoms: N_5  and  C_6
REMARK    4  A    between atoms: C_9  and  C_12
REMARK    5  A    between atoms: C_15  and  S_18
REMARK    6  A    between atoms: N_16  and  C_17
REMARK    7  A    between atoms: S_18  and  C_19
REMARK    8  A    between atoms: C_19  and  C_20
REMARK    9  A    between atoms: N_22  and  C_23
REMARK                            x       y       z     vdW  Elec       q    Type
REMARK                         _______ _______ _______ _____ _____    ______ ____
ROOT
ATOM      1  C   UNL     1      -6.198  -0.604   0.358  0.00  0.00    +0.165 A 
ATOM      2  N   UNL     1      -7.354  -0.128  -0.043  0.00  0.00    -0.128 NA
ATOM      3  N   UNL     1      -8.260  -1.033   0.059  0.00  0.00    -0.122 NA
ATOM      4  C   UNL     1      -7.739  -2.143   0.531  0.00  0.00    +0.192 A 
ATOM      5  N   UNL     1      -6.408  -1.911   0.733  0.00  0.00    -0.305 N 
ATOM      6  C   UNL     1      -5.412  -2.856   1.245  0.00  0.00    +0.153 C 
ENDROOT
BRANCH   1  10
ATOM      7  C   UNL     1      -2.502   1.491   0.460  0.00  0.00    +0.033 A 
ATOM      8  C   UNL     1      -3.540   1.954  -0.341  0.00  0.00    +0.024 A 
ATOM      9  C   UNL     1      -4.738   1.274  -0.381  0.00  0.00    +0.013 A 
ATOM     10  C   UNL     1      -4.912   0.124   0.393  0.00  0.00    +0.019 A 
ATOM     11  C   UNL     1      -3.870  -0.335   1.200  0.00  0.00    +0.013 A 
ATOM     12  C   UNL     1      -2.673   0.347   1.231  0.00  0.00    +0.024 A 
BRANCH   7  15
ATOM     13  C   UNL     1      -0.896   2.910  -0.570  0.00  0.00    +0.217 C 
ATOM     14  O   UNL     1      -1.555   2.899  -1.588  0.00  0.00    -0.275 OA
ATOM     15  N   UNL     1      -1.287   2.181   0.494  0.00  0.00    -0.286 N 
ATOM     16  H   UNL     1      -0.725   2.134   1.283  0.00  0.00    +0.155 HD
BRANCH  13  18
ATOM     17  C   UNL     1       0.568   4.473  -1.821  0.00  0.00    +0.013 C 
ATOM     18  C   UNL     1       0.357   3.744  -0.492  0.00  0.00    +0.093 C 
ENDBRANCH  13  18
ENDBRANCH   7  15
ENDBRANCH   1  10
BRANCH   4  19
ATOM     19  S   UNL     1      -8.596  -3.651   0.839  0.00  0.00    -0.077 S 
BRANCH  19  20
ATOM     20  C   UNL     1     -10.265  -3.175   0.329  0.00  0.00    +0.173 C 
BRANCH  20  21
ATOM     21  C   UNL     1     -11.199  -4.344   0.510  0.00  0.00    +0.228 C 
ATOM     22  O   UNL     1     -10.777  -5.396   0.942  0.00  0.00    -0.275 OA
ATOM     23  N   UNL     1     -12.503  -4.220   0.193  0.00  0.00    -0.284 N 
ATOM     24  H   UNL     1     -12.854  -3.361  -0.088  0.00  0.00    +0.155 HD
BRANCH  23  25
ATOM     25  C   UNL     1     -13.351  -5.332   0.269  0.00  0.00    +0.052 A 
ATOM     26  C   UNL     1     -13.155  -6.289   1.256  0.00  0.00    +0.026 A 
ATOM     27  C   UNL     1     -13.992  -7.385   1.329  0.00  0.00    +0.017 A 
ATOM     28  C   UNL     1     -15.026  -7.530   0.420  0.00  0.00    +0.019 A 
ATOM     29  C   UNL     1     -15.224  -6.579  -0.564  0.00  0.00    +0.037 A 
ATOM     30  C   UNL     1     -14.392  -5.477  -0.639  0.00  0.00    +0.063 A 
ATOM     31 CL   UNL     1     -14.645  -4.279  -1.870  0.00  0.00    -0.082 Cl
ATOM     32 BR   UNL     1     -16.169  -9.033   0.524  0.00  0.00    -0.050 Br
ENDBRANCH  23  25
ENDBRANCH  20  21
ENDBRANCH  19  20
ENDBRANCH   4  19
TORSDOF 7
