REMARK  Name = ZINC63655011
REMARK  17 active torsions:
REMARK  status: ('A' for Active; 'I' for Inactive)
REMARK    1  A    between atoms: C_1  and  C_2
REMARK    2  A    between atoms: C_4  and  C_12
REMARK    3  A    between atoms: C_12  and  C_13
REMARK    4  A    between atoms: C_13  and  N_14
REMARK    5  A    between atoms: N_14  and  C_15
REMARK    6  A    between atoms: N_14  and  C_28
REMARK    7  A    between atoms: C_15  and  C_16
REMARK    8  A    between atoms: C_18  and  O_26
REMARK    9  A    between atoms: C_19  and  O_24
REMARK   10  A    between atoms: C_20  and  O_22
REMARK   11  A    between atoms: O_22  and  C_23
REMARK   12  A    between atoms: O_24  and  C_25
REMARK   13  A    between atoms: O_26  and  C_27
REMARK   14  A    between atoms: C_28  and  N_30
REMARK   15  A    between atoms: N_30  and  C_31
REMARK   16  A    between atoms: C_34  and  O_37
REMARK   17  A    between atoms: O_37  and  C_38
REMARK                            x       y       z     vdW  Elec       q    Type
REMARK                         _______ _______ _______ _____ _____    ______ ____
ROOT
ATOM      1  N   UNL     1       1.228  -0.824  -5.104  0.00  0.00    -0.308 N 
ENDROOT
BRANCH   1   2
ATOM      2  C   UNL     1       0.397  -1.693  -5.714  0.00  0.00    +0.137 C 
ATOM      3  S   UNL     1       0.051  -3.202  -4.985  0.00  0.00    -0.018 S 
BRANCH   2   4
ATOM      4  N   UNL     1      -0.161  -1.372  -6.899  0.00  0.00    -0.297 N 
ATOM      5  H   UNL     1      -0.030  -0.487  -7.273  0.00  0.00    +0.154 HD
BRANCH   4   6
ATOM      6  C   UNL     1      -0.930  -2.318  -7.589  0.00  0.00    +0.033 A 
ATOM      7  C   UNL     1      -2.112  -1.933  -8.209  0.00  0.00    +0.027 A 
ATOM      8  C   UNL     1      -2.869  -2.866  -8.890  0.00  0.00    +0.047 A 
ATOM      9  C   UNL     1      -2.451  -4.187  -8.954  0.00  0.00    +0.120 A 
ATOM     10  C   UNL     1      -1.271  -4.572  -8.334  0.00  0.00    +0.047 A 
ATOM     11  C   UNL     1      -0.509  -3.639  -7.658  0.00  0.00    +0.027 A 
BRANCH   9  12
ATOM     12  O   UNL     1      -3.197  -5.105  -9.624  0.00  0.00    -0.495 OA
ATOM     13  C   UNL     1      -2.707  -6.447  -9.649  0.00  0.00    +0.277 C 
ENDBRANCH   9  12
ENDBRANCH   4   6
ENDBRANCH   2   4
ENDBRANCH   1   2
BRANCH   1  14
ATOM     14  C   UNL     1       1.834  -1.172  -3.817  0.00  0.00    +0.111 C 
BRANCH  14  15
ATOM     15  C   UNL     1       0.923  -0.704  -2.680  0.00  0.00    +0.052 C 
BRANCH  15  18
ATOM     16  C   UNL     1       0.822   0.723   0.229  0.00  0.00    +0.035 C 
ATOM     17  C   UNL     1       0.983  -0.784   0.020  0.00  0.00    +0.103 C 
ATOM     18  C   UNL     1       1.547  -1.062  -1.356  0.00  0.00    -0.037 C 
ATOM     19  C   UNL     1       2.725  -1.697  -1.157  0.00  0.00    -0.001 A 
ATOM     20  C   UNL     1       3.738  -2.224  -2.079  0.00  0.00    +0.010 A 
ATOM     21  C   UNL     1       4.838  -2.824  -1.571  0.00  0.00    +0.001 A 
ATOM     22  C   UNL     1       5.035  -2.954  -0.189  0.00  0.00    +0.002 A 
ATOM     23  C   UNL     1       4.149  -2.494   0.720  0.00  0.00    +0.026 A 
ATOM     24  C   UNL     1       2.956  -1.847   0.297  0.00  0.00    +0.043 A 
ATOM     25  N   UNL     1       1.959  -1.325   0.973  0.00  0.00    -0.378 N 
ATOM     26  H   UNL     1       1.880  -1.300   1.939  0.00  0.00    +0.160 HD
ENDBRANCH  15  18
ENDBRANCH  14  15
ENDBRANCH   1  14
BRANCH   1  27
ATOM     27  C   UNL     1       1.524   0.468  -5.728  0.00  0.00    +0.142 C 
BRANCH  27  28
ATOM     28  C   UNL     1       2.731   0.330  -6.620  0.00  0.00    -0.023 A 
ATOM     29  C   UNL     1       3.996   0.543  -6.105  0.00  0.00    +0.054 A 
ATOM     30  C   UNL     1       5.109   0.418  -6.923  0.00  0.00    +0.165 A 
ATOM     31  C   UNL     1       4.951   0.077  -8.261  0.00  0.00    +0.204 A 
ATOM     32  C   UNL     1       3.677  -0.137  -8.774  0.00  0.00    +0.165 A 
ATOM     33  C   UNL     1       2.570  -0.014  -7.949  0.00  0.00    +0.054 A 
BRANCH  32  34
ATOM     34  O   UNL     1       3.518  -0.470 -10.083  0.00  0.00    -0.491 OA
ATOM     35  C   UNL     1       2.180  -0.674 -10.542  0.00  0.00    +0.277 C 
ENDBRANCH  32  34
BRANCH  31  36
ATOM     36  O   UNL     1       6.041  -0.046  -9.066  0.00  0.00    -0.488 OA
ATOM     37  C   UNL     1       6.645  -1.339  -9.146  0.00  0.00    +0.277 C 
ENDBRANCH  31  36
BRANCH  30  38
ATOM     38  O   UNL     1       6.353   0.628  -6.416  0.00  0.00    -0.491 OA
ATOM     39  C   UNL     1       6.440   0.976  -5.032  0.00  0.00    +0.277 C 
ENDBRANCH  30  38
ENDBRANCH  27  28
ENDBRANCH   1  27
TORSDOF 12
