REMARK  Name = ZINC35720955
REMARK  5 active torsions:
REMARK  status: ('A' for Active; 'I' for Inactive)
REMARK    1  A    between atoms: C_2  and  C_3
REMARK    2  A    between atoms: C_3  and  N_4
REMARK    3  A    between atoms: C_5  and  C_7
REMARK    4  A    between atoms: C_7  and  C_8
REMARK    5  A    between atoms: C_8  and  C_15
REMARK                            x       y       z     vdW  Elec       q    Type
REMARK                         _______ _______ _______ _____ _____    ______ ____
ROOT
ATOM      1  C   UNL     1       2.978   5.355   0.002  0.00  0.00    +0.080 C 
ATOM      2  C   UNL     1       2.381   5.859  -1.284  0.00  0.00    +0.019 C 
ATOM      3  C   UNL     1       2.543   4.856  -2.442  0.00  0.00    +0.001 C 
ATOM      4  C   UNL     1       3.934   4.193  -2.468  0.00  0.00    +0.000 C 
ATOM      5  C   UNL     1       5.043   5.170  -2.184  0.00  0.00    +0.000 C 
ATOM      6  C   UNL     1       5.364   5.120  -0.676  0.00  0.00    +0.001 C 
ATOM      7  C   UNL     1       4.419   5.892   0.118  0.00  0.00    +0.019 C 
ENDROOT
BRANCH   1   8
ATOM      8  C   UNL     1       2.160   5.843   1.170  0.00  0.00    +0.362 C 
ATOM      9  O   UNL     1       1.640   5.042   1.928  0.00  0.00    -0.246 OA
ATOM     10  O   UNL     1       2.018   7.040   1.357  0.00  0.00    -0.246 OA
ENDBRANCH   1   8
BRANCH   1  11
ATOM     11  C   UNL     1       2.999   3.825  -0.006  0.00  0.00    +0.114 C 
BRANCH  11  13
ATOM     12  N   UNL     1       3.141   1.990   1.647  0.00  0.00    -0.304 N 
ATOM     13  C   UNL     1       3.105   3.316   1.409  0.00  0.00    +0.215 C 
ATOM     14  O   UNL     1       3.159   4.100   2.332  0.00  0.00    -0.276 OA
ATOM     15  H   UNL     1       3.097   1.363   0.908  0.00  0.00    +0.150 HD
BRANCH  12  16
ATOM     16  C   UNL     1       3.244   1.496   3.022  0.00  0.00    +0.193 C 
BRANCH  16  18
ATOM     17  C   UNL     1       3.280  -1.150   3.007  0.00  0.00    +0.005 C 
ATOM     18  C   UNL     1       3.264   0.024   3.014  0.00  0.00    -0.087 C 
ENDBRANCH  16  18
ENDBRANCH  12  16
ENDBRANCH  11  13
ENDBRANCH   1  11
TORSDOF 5
