REMARK  Name = ZINC32561021
REMARK  11 active torsions:
REMARK  status: ('A' for Active; 'I' for Inactive)
REMARK    1  A    between atoms: C_1  and  O_2
REMARK    2  A    between atoms: O_2  and  C_3
REMARK    3  A    between atoms: C_7  and  C_9
REMARK    4  A    between atoms: C_9  and  N_10
REMARK    5  A    between atoms: N_10  and  C_11
REMARK    6  A    between atoms: C_14  and  C_26
REMARK    7  A    between atoms: N_16  and  C_18
REMARK    8  A    between atoms: C_18  and  C_19
REMARK    9  A    between atoms: N_28  and  C_29
REMARK   10  A    between atoms: C_29  and  C_30
REMARK   11  A    between atoms: C_30  and  C_31
REMARK                            x       y       z     vdW  Elec       q    Type
REMARK                         _______ _______ _______ _____ _____    ______ ____
ROOT
ATOM      1  C   UNL     1       0.247  -6.111   3.007  0.00  0.00    +0.036 C 
ATOM      2  C   UNL     1      -0.461  -6.747   1.783  0.00  0.00    +0.010 C 
ATOM      3  C   UNL     1      -0.930  -8.114   2.323  0.00  0.00    +0.021 C 
ATOM      4  N   UNL     1      -1.005  -8.001   3.791  0.00  0.00    +0.391 N 
ATOM      5  C   UNL     1      -0.628  -6.625   4.178  0.00  0.00    -0.059 C 
ATOM      6  H   UNL     1      -0.368  -8.659   4.216  0.00  0.00    -0.080 HD
ENDROOT
BRANCH   3   7
ATOM      7  C   UNL     1       0.060  -9.184   1.938  0.00  0.00    +0.200 C 
ATOM      8  O   UNL     1       0.643  -9.809   2.799  0.00  0.00    -0.278 OA
ATOM      9  N   UNL     1       0.297  -9.446   0.637  0.00  0.00    -0.316 N 
ATOM     10  H   UNL     1      -0.170  -8.946  -0.051  0.00  0.00    +0.149 HD
BRANCH   9  11
ATOM     11  C   UNL     1       1.258 -10.486   0.263  0.00  0.00    +0.109 C 
BRANCH  11  12
ATOM     12  C   UNL     1       1.339 -10.581  -1.262  0.00  0.00    +0.054 C 
BRANCH  12  13
ATOM     13  C   UNL     1       2.329 -11.650  -1.647  0.00  0.00    -0.042 A 
ATOM     14  C   UNL     1       3.661 -11.326  -1.822  0.00  0.00    +0.007 A 
ATOM     15  C   UNL     1       4.573 -12.304  -2.174  0.00  0.00    +0.050 A 
ATOM     16  C   UNL     1       4.152 -13.612  -2.354  0.00  0.00    +0.166 A 
ATOM     17  C   UNL     1       2.809 -13.938  -2.178  0.00  0.00    +0.166 A 
ATOM     18  C   UNL     1       1.903 -12.954  -1.819  0.00  0.00    +0.053 A 
ATOM     19  O   UNL     1       2.651 -15.274  -2.411  0.00  0.00    -0.453 OA
ATOM     20  C   UNL     1       3.831 -15.682  -3.127  0.00  0.00    +0.466 C 
ATOM     21  O   UNL     1       4.835 -14.743  -2.697  0.00  0.00    -0.453 OA
ENDBRANCH  12  13
ENDBRANCH  11  12
ENDBRANCH   9  11
ENDBRANCH   3   7
BRANCH   1  22
ATOM     22  N   UNL     1       0.216  -4.644   2.931  0.00  0.00    -0.311 NA
ATOM     23  H   UNL     1       0.148  -4.236   3.851  0.00  0.00    +0.122 HD
BRANCH  22  24
ATOM     24  C   UNL     1       1.389  -4.130   2.211  0.00  0.00    +0.116 C 
BRANCH  24  29
ATOM     25  C   UNL     1       0.626  -0.618   1.042  0.00  0.00    +0.120 A 
ATOM     26  C   UNL     1       1.202   0.139   2.051  0.00  0.00    +0.045 A 
ATOM     27  C   UNL     1       1.835  -0.488   3.107  0.00  0.00    +0.004 A 
ATOM     28  C   UNL     1       1.895  -1.869   3.158  0.00  0.00    +0.005 A 
ATOM     29  C   UNL     1       1.321  -2.625   2.153  0.00  0.00    -0.030 A 
ATOM     30  C   UNL     1       0.682  -2.003   1.097  0.00  0.00    +0.050 A 
BRANCH  25  32
ATOM     31  C   UNL     1      -0.017   1.425   0.010  0.00  0.00    +0.277 C 
ATOM     32  O   UNL     1       0.002  -0.004   0.002  0.00  0.00    -0.495 OA
ENDBRANCH  25  32
ENDBRANCH  24  29
ENDBRANCH  22  24
ENDBRANCH   1  22
BRANCH   4  33
ATOM     33  C   UNL     1      -2.375  -8.284   4.239  0.00  0.00    -0.042 C 
BRANCH  33  34
ATOM     34  C   UNL     1      -2.420  -8.288   5.746  0.00  0.00    -0.063 A 
ATOM     35  C   UNL     1      -2.192  -9.461   6.441  0.00  0.00    +0.002 A 
ATOM     36  C   UNL     1      -2.234  -9.465   7.822  0.00  0.00    +0.002 A 
ATOM     37  C   UNL     1      -2.503  -8.297   8.510  0.00  0.00    +0.020 A 
ATOM     38  C   UNL     1      -2.731  -7.123   7.815  0.00  0.00    +0.041 A 
ATOM     39  C   UNL     1      -2.684  -7.117   6.432  0.00  0.00    +0.021 A 
ATOM     40 CL   UNL     1      -3.070  -5.655   8.678  0.00  0.00    -0.084 Cl
ENDBRANCH  33  34
ENDBRANCH   4  33
TORSDOF 10
