REMARK  Name = ZINC62716083
REMARK  5 active torsions:
REMARK  status: ('A' for Active; 'I' for Inactive)
REMARK    1  A    between atoms: C_1  and  C_2
REMARK    2  A    between atoms: C_5  and  C_7
REMARK    3  A    between atoms: C_8  and  C_9
REMARK    4  A    between atoms: C_9  and  C_11
REMARK    5  A    between atoms: C_11  and  C_17
REMARK                            x       y       z     vdW  Elec       q    Type
REMARK                         _______ _______ _______ _____ _____    ______ ____
ROOT
ATOM      1  C   UNL     1       3.856  -4.079  -0.085  0.00  0.00    +0.195 C 
ATOM      2  O   UNL     1       3.413  -5.209   0.032  0.00  0.00    -0.287 OA
ENDROOT
BRANCH   1   3
ATOM      3  C   UNL     1       5.304  -3.862  -0.158  0.00  0.00    +0.129 C 
ATOM      4  C   UNL     1       6.174  -4.960  -0.233  0.00  0.00    +0.059 C 
ATOM      5  S   UNL     1       5.766  -6.692  -0.262  0.00  0.00    -0.117 S 
ATOM      6  C   UNL     1       7.367  -7.568  -0.369  0.00  0.00    +0.086 C 
ATOM      7  C   UNL     1       8.410  -6.625   0.287  0.00  0.00    +0.086 C 
ATOM      8  S   UNL     1       7.955  -4.956  -0.329  0.00  0.00    -0.117 S 
BRANCH   3   9
ATOM      9  C   UNL     1       5.822  -2.550  -0.153  0.00  0.00    +0.392 C 
ATOM     10  O   UNL     1       7.019  -2.363  -0.342  0.00  0.00    -0.240 OA
ATOM     11  O   UNL     1       5.076  -1.597   0.041  0.00  0.00    -0.240 OA
ENDBRANCH   3   9
ENDBRANCH   1   3
BRANCH   1  13
ATOM     12  C   UNL     1       1.630  -3.179  -0.172  0.00  0.00    +0.050 C 
ATOM     13  C   UNL     1       2.969  -2.973  -0.151  0.00  0.00    +0.055 C 
BRANCH  12  18
ATOM     14  C   UNL     1      -0.026   1.492  -0.404  0.00  0.00    +0.086 C 
ATOM     15  C   UNL     1      -0.004  -0.013  -0.340  0.00  0.00    +0.103 A 
ATOM     16  C   UNL     1      -1.093  -0.814  -0.331  0.00  0.00    +0.045 A 
ATOM     17  C   UNL     1      -0.633  -2.139  -0.265  0.00  0.00    +0.049 A 
ATOM     18  C   UNL     1       0.744  -2.075  -0.237  0.00  0.00    +0.128 A 
ATOM     19  O   UNL     1       1.098  -0.774  -0.289  0.00  0.00    -0.461 OA
ENDBRANCH  12  18
ENDBRANCH   1  13
TORSDOF 4
