REMARK  Name = ZINC40117556
REMARK  3 active torsions:
REMARK  status: ('A' for Active; 'I' for Inactive)
REMARK    1  A    between atoms: C_10  and  C_11
REMARK    2  A    between atoms: C_13  and  C_19
REMARK    3  A    between atoms: C_19  and  C_21
REMARK                            x       y       z     vdW  Elec       q    Type
REMARK                         _______ _______ _______ _____ _____    ______ ____
ROOT
ATOM      1  C   UNL     1       5.006   0.265  -0.004  0.00  0.00    +0.142 C 
ATOM      2  C   UNL     1       5.332   0.522  -1.457  0.00  0.00    +0.076 C 
ATOM      3  C   UNL     1       6.472  -0.155  -1.727  0.00  0.00    +0.249 C 
ATOM      4  C   UNL     1       6.921  -0.856  -0.505  0.00  0.00    +0.285 C 
ATOM      5  O   UNL     1       7.916  -1.549  -0.425  0.00  0.00    -0.267 OA
ATOM      6  N   UNL     1       6.066  -0.613   0.506  0.00  0.00    -0.298 N 
ATOM      7  O   UNL     1       7.101  -0.185  -2.924  0.00  0.00    -0.282 OA
ATOM      8  H   UNL     1       6.137  -0.955   1.410  0.00  0.00    +0.150 HD
ENDROOT
BRANCH   1  18
ATOM      9  C   UNL     1       0.147   1.807   0.459  0.00  0.00    +0.001 A 
ATOM     10  C   UNL     1       1.376   2.456   0.352  0.00  0.00    +0.001 A 
ATOM     11  C   UNL     1       2.534   1.750   0.238  0.00  0.00    +0.009 A 
ATOM     12  C   UNL     1       2.493   0.345   0.229  0.00  0.00    -0.013 A 
ATOM     13  C   UNL     1       1.243  -0.315   0.338  0.00  0.00    -0.018 A 
ATOM     14  C   UNL     1       0.069   0.449   0.453  0.00  0.00    +0.008 A 
ATOM     15  C   UNL     1       1.203  -1.719   0.329  0.00  0.00    +0.008 A 
ATOM     16  C   UNL     1       2.361  -2.426   0.216  0.00  0.00    +0.001 A 
ATOM     17  C   UNL     1       3.589  -1.777   0.109  0.00  0.00    +0.006 A 
ATOM     18  C   UNL     1       3.667  -0.418   0.114  0.00  0.00    -0.015 A 
ENDBRANCH   1  18
BRANCH   2  19
ATOM     19  C   UNL     1       4.561   1.345  -2.394  0.00  0.00    +0.195 C 
ATOM     20  O   UNL     1       4.600   2.558  -2.311  0.00  0.00    -0.287 OA
BRANCH  19  21
ATOM     21  C   UNL     1       3.737   0.702  -3.438  0.00  0.00    +0.022 A 
ATOM     22  C   UNL     1       3.610  -0.689  -3.473  0.00  0.00    +0.013 A 
ATOM     23  C   UNL     1       2.839  -1.283  -4.450  0.00  0.00    +0.016 A 
ATOM     24  C   UNL     1       2.192  -0.505  -5.396  0.00  0.00    +0.018 A 
ATOM     25  C   UNL     1       2.315   0.875  -5.366  0.00  0.00    +0.016 A 
ATOM     26  C   UNL     1       3.077   1.482  -4.391  0.00  0.00    +0.013 A 
ATOM     27 BR   UNL     1       1.138  -1.328  -6.732  0.00  0.00    -0.050 Br
ENDBRANCH  19  21
ENDBRANCH   2  19
TORSDOF 3
