REMARK  Name = ZINC42140253
REMARK  2 active torsions:
REMARK  status: ('A' for Active; 'I' for Inactive)
REMARK    1  A    between atoms: C_7  and  C_12
REMARK    2  A    between atoms: C_12  and  N_13
REMARK                            x       y       z     vdW  Elec       q    Type
REMARK                         _______ _______ _______ _____ _____    ______ ____
ROOT
ATOM      1  C   UNL     1      -0.017   1.397   0.010  0.00  0.00    +0.036 A 
ATOM      2  C   UNL     1       1.141   2.092   0.002  0.00  0.00    +0.048 A 
ATOM      3  S   UNL     1       2.374   0.802  -0.016  0.00  0.00    -0.090 S 
ATOM      4  C   UNL     1       1.279  -0.592  -0.013  0.00  0.00    +0.102 A 
ATOM      5  C   UNL     1       0.002  -0.004   0.002  0.00  0.00    +0.085 A 
ATOM      6  N   UNL     1      -1.060  -0.875   0.007  0.00  0.00    -0.231 NA
ATOM      7  C   UNL     1      -0.894  -2.158  -0.002  0.00  0.00    +0.132 A 
ATOM      8  N   UNL     1       0.329  -2.751  -0.017  0.00  0.00    -0.308 N 
ATOM      9  H   UNL     1       0.404  -3.718  -0.023  0.00  0.00    +0.170 HD
ATOM     10  C   UNL     1       1.441  -1.978  -0.023  0.00  0.00    +0.266 A 
ATOM     11  O   UNL     1       2.553  -2.479  -0.036  0.00  0.00    -0.267 OA
ENDROOT
BRANCH   7  12
ATOM     12  C   UNL     1      -2.117  -3.039   0.005  0.00  0.00    +0.221 C 
BRANCH  12  13
ATOM     13  N   UNL     1      -3.321  -2.203   0.022  0.00  0.00    -0.221 N 
ATOM     14  C   UNL     1      -3.874  -1.827  -1.147  0.00  0.00    +0.287 A 
ATOM     15  O   UNL     1      -3.378  -2.179  -2.206  0.00  0.00    -0.265 OA
ATOM     16  C   UNL     1      -5.034  -1.023  -1.135  0.00  0.00    +0.126 A 
ATOM     17  C   UNL     1      -5.545  -0.660   0.081  0.00  0.00    +0.084 A 
ATOM     18  C   UNL     1      -4.888  -1.107   1.241  0.00  0.00    +0.154 A 
ATOM     19  N   UNL     1      -3.823  -1.853   1.150  0.00  0.00    -0.175 NA
ATOM     20 CL   UNL     1      -6.968   0.329   0.189  0.00  0.00    -0.080 Cl
ATOM     21 CL   UNL     1      -5.785  -0.511  -2.614  0.00  0.00    -0.076 Cl
ENDBRANCH  12  13
ENDBRANCH   7  12
TORSDOF 2
