REMARK  Name = ZINC36490634
REMARK  14 active torsions:
REMARK  status: ('A' for Active; 'I' for Inactive)
REMARK    1  A    between atoms: C_1  and  C_2
REMARK    2  A    between atoms: C_2  and  C_3
REMARK    3  A    between atoms: C_2  and  C_4
REMARK    4  A    between atoms: C_2  and  C_5
REMARK    5  A    between atoms: C_5  and  C_6
REMARK    6  A    between atoms: C_6  and  C_7
REMARK    7  A    between atoms: C_6  and  C_8
REMARK    8  A    between atoms: C_6  and  N_9
REMARK    9  A    between atoms: C_10  and  C_12
REMARK   10  A    between atoms: C_12  and  C_14
REMARK   11  A    between atoms: C_12  and  N_21
REMARK   12  A    between atoms: C_17  and  O_20
REMARK   13  A    between atoms: N_21  and  C_22
REMARK   14  A    between atoms: C_28  and  C_30
REMARK                            x       y       z     vdW  Elec       q    Type
REMARK                         _______ _______ _______ _____ _____    ______ ____
ROOT
ATOM      1  C   UNL     1       5.398  -0.548  -4.338  0.00  0.00    +0.192 C 
ENDROOT
BRANCH   1   2
ATOM      2  C   UNL     1       5.412  -2.027  -4.625  0.00  0.00    -0.018 A 
ATOM      3  C   UNL     1       5.205  -2.931  -3.600  0.00  0.00    +0.009 A 
ATOM      4  C   UNL     1       5.217  -4.287  -3.860  0.00  0.00    +0.046 A 
ATOM      5  C   UNL     1       5.437  -4.743  -5.152  0.00  0.00    +0.117 A 
ATOM      6  C   UNL     1       5.644  -3.834  -6.179  0.00  0.00    +0.046 A 
ATOM      7  C   UNL     1       5.625  -2.478  -5.915  0.00  0.00    +0.009 A 
BRANCH   5   8
ATOM      8  O   UNL     1       5.450  -6.077  -5.410  0.00  0.00    -0.507 OA
ATOM      9  H   UNL     1       4.584  -6.441  -5.641  0.00  0.00    +0.292 HD
ENDBRANCH   5   8
ENDBRANCH   1   2
BRANCH   1  11
ATOM     10  N   UNL     1       3.261  -0.628  -3.095  0.00  0.00    -0.308 N 
ATOM     11  C   UNL     1       4.564  -0.281  -3.112  0.00  0.00    +0.239 C 
ATOM     12  O   UNL     1       5.064   0.245  -2.141  0.00  0.00    -0.273 OA
ATOM     13  H   UNL     1       2.861  -1.049  -3.872  0.00  0.00    +0.149 HD
BRANCH  10  14
ATOM     14  C   UNL     1       2.450  -0.369  -1.903  0.00  0.00    +0.030 C 
ATOM     15  C   UNL     1       2.564   1.108  -1.520  0.00  0.00    +0.031 C 
ATOM     16  C   UNL     1       2.952  -1.236  -0.746  0.00  0.00    +0.031 C 
BRANCH  14  17
ATOM     17  C   UNL     1       0.988  -0.709  -2.198  0.00  0.00    +0.031 C 
BRANCH  17  19
ATOM     18  C   UNL     1       1.085  -1.132  -4.658  0.00  0.00    +0.010 C 
ATOM     19  C   UNL     1       0.605  -0.164  -3.575  0.00  0.00    -0.036 C 
ATOM     20  C   UNL     1       1.263   1.202  -3.784  0.00  0.00    +0.010 C 
ATOM     21  C   UNL     1      -0.915  -0.016  -3.661  0.00  0.00    +0.010 C 
ENDBRANCH  17  19
ENDBRANCH  14  17
ENDBRANCH  10  14
ENDBRANCH   1  11
BRANCH   1  22
ATOM     22  N   UNL     1       6.768  -0.083  -4.107  0.00  0.00    -0.281 N 
ATOM     23  C   UNL     1       7.257   0.954  -4.817  0.00  0.00    +0.237 C 
ATOM     24  O   UNL     1       8.418   1.280  -4.692  0.00  0.00    -0.274 OA
BRANCH  23  25
ATOM     25  C   UNL     1       6.360   1.707  -5.766  0.00  0.00    +0.159 C 
ATOM     26  C   UNL     1       6.350   1.021  -7.150  0.00  0.00    +0.041 C 
ATOM     27  C   UNL     1       7.459   1.798  -7.895  0.00  0.00    +0.098 C 
ATOM     28  C   UNL     1       7.516   3.134  -7.187  0.00  0.00    +0.214 C 
ATOM     29  O   UNL     1       8.049   4.131  -7.627  0.00  0.00    -0.276 OA
ATOM     30  N   UNL     1       6.887   3.056  -5.999  0.00  0.00    -0.304 N 
ATOM     31  H   UNL     1       6.794   3.796  -5.378  0.00  0.00    +0.149 HD
ENDBRANCH  23  25
BRANCH  22  32
ATOM     32  C   UNL     1       7.607  -0.744  -3.105  0.00  0.00    +0.077 C 
ATOM     33  C   UNL     1       8.021   0.270  -2.037  0.00  0.00    +0.022 C 
ATOM     34  C   UNL     1       8.897  -0.420  -0.990  0.00  0.00    +0.002 C 
ATOM     35  C   UNL     1      10.147  -0.989  -1.665  0.00  0.00    +0.000 C 
ATOM     36  C   UNL     1       9.732  -2.004  -2.733  0.00  0.00    +0.002 C 
ATOM     37  C   UNL     1       8.856  -1.313  -3.780  0.00  0.00    +0.022 C 
ENDBRANCH  22  32
ENDBRANCH   1  22
TORSDOF 9
