REMARK  Name = ZINC43649085
REMARK  7 active torsions:
REMARK  status: ('A' for Active; 'I' for Inactive)
REMARK    1  A    between atoms: C_1  and  C_2
REMARK    2  A    between atoms: C_2  and  N_26
REMARK    3  A    between atoms: C_6  and  C_19
REMARK    4  A    between atoms: C_16  and  O_18
REMARK    5  A    between atoms: C_19  and  C_20
REMARK    6  A    between atoms: C_27  and  C_29
REMARK    7  A    between atoms: N_32  and  C_48
REMARK                            x       y       z     vdW  Elec       q    Type
REMARK                         _______ _______ _______ _____ _____    ______ ____
ROOT
ATOM      1  C   UNL     1      -0.019   1.526   0.010  0.00  0.00    +0.074 C 
ATOM      2  C   UNL     1       0.002  -0.004   0.002  0.00  0.00    +0.215 C 
ATOM      3  C   UNL     1      -1.408  -0.549   0.083  0.00  0.00    +0.271 C 
ATOM      4  O   UNL     1      -2.370  -0.150  -0.539  0.00  0.00    -0.270 OA
ATOM      5  N   UNL     1      -1.397  -1.563   0.976  0.00  0.00    -0.233 N 
ATOM      6  C   UNL     1      -2.557  -2.362   1.385  0.00  0.00    +0.171 C 
ATOM      7  C   UNL     1      -2.484  -2.542   2.882  0.00  0.00    +0.237 C 
ATOM      8  O   UNL     1      -3.434  -2.985   3.491  0.00  0.00    -0.274 OA
ATOM      9  N   UNL     1      -1.360  -2.207   3.534  0.00  0.00    -0.290 N 
ATOM     10  C   UNL     1      -1.253  -1.943   4.982  0.00  0.00    +0.108 C 
ATOM     11  C   UNL     1      -0.059  -0.988   5.177  0.00  0.00    +0.021 C 
ATOM     12  C   UNL     1       0.511  -0.763   3.756  0.00  0.00    +0.031 C 
ATOM     13  C   UNL     1      -0.018  -1.990   2.979  0.00  0.00    +0.156 C 
ATOM     14  C   UNL     1      -0.036  -1.715   1.491  0.00  0.00    +0.269 C 
ATOM     15  O   UNL     1       0.666  -0.502   1.181  0.00  0.00    -0.299 OA
ENDROOT
BRANCH   2  16
ATOM     16  N   UNL     1       0.671  -0.496  -1.205  0.00  0.00    -0.280 N 
ATOM     17  C   UNL     1       0.175  -0.194  -2.421  0.00  0.00    +0.220 C 
ATOM     18  O   UNL     1      -0.825   0.485  -2.516  0.00  0.00    -0.275 OA
ATOM     19  H   UNL     1       1.471  -1.040  -1.129  0.00  0.00    +0.152 HD
BRANCH  17  20
ATOM     20  C   UNL     1       0.863  -0.700  -3.663  0.00  0.00    +0.081 C 
ATOM     21  C   UNL     1       0.115  -0.207  -4.907  0.00  0.00    -0.061 C 
ATOM     22  N   UNL     1       0.849  -0.648  -6.095  0.00  0.00    +0.383 N 
ATOM     23  C   UNL     1       2.151  -0.003  -6.197  0.00  0.00    -0.033 C 
ATOM     24  C   UNL     1       3.002  -0.732  -7.247  0.00  0.00    +0.026 C 
ATOM     25  C   UNL     1       4.388  -0.141  -7.267  0.00  0.00    -0.023 A 
ATOM     26  C   UNL     1       5.362  -0.057  -8.167  0.00  0.00    +0.087 A 
ATOM     27  N   UNL     1       6.457   0.602  -7.629  0.00  0.00    -0.360 N 
ATOM     28  H   UNL     1       7.284   0.779  -8.104  0.00  0.00    +0.165 HD
ATOM     29  C   UNL     1       6.207   0.967  -6.341  0.00  0.00    +0.047 A 
ATOM     30  C   UNL     1       4.909   0.521  -6.077  0.00  0.00    +0.010 A 
ATOM     31  C   UNL     1       4.213   0.692  -4.862  0.00  0.00    -0.014 A 
ATOM     32  C   UNL     1       4.907   1.341  -3.866  0.00  0.00    +0.009 A 
ATOM     33  C   UNL     1       6.206   1.786  -4.106  0.00  0.00    +0.003 A 
ATOM     34  C   UNL     1       6.880   1.623  -5.311  0.00  0.00    +0.026 A 
ATOM     35  C   UNL     1       2.847   0.138  -4.870  0.00  0.00    -0.056 C 
ATOM     36  C   UNL     1       2.270  -0.166  -3.718  0.00  0.00    -0.014 C 
ATOM     37  C   UNL     1       0.060  -0.324  -7.292  0.00  0.00    -0.095 C 
ATOM     38  H   UNL     1       0.979  -1.647  -6.049  0.00  0.00    -0.081 HD
ENDBRANCH  17  20
ENDBRANCH   2  16
BRANCH  14  39
ATOM     39  O   UNL     1       0.604  -2.795   0.808  0.00  0.00    -0.348 OA
ATOM     40  H   UNL     1       0.660  -2.676  -0.150  0.00  0.00    +0.214 HD
ENDBRANCH  14  39
BRANCH   6  41
ATOM     41  C   UNL     1      -2.516  -3.728   0.695  0.00  0.00    +0.067 C 
BRANCH  41  42
ATOM     42  C   UNL     1      -2.668  -3.543  -0.793  0.00  0.00    -0.045 A 
ATOM     43  C   UNL     1      -3.927  -3.545  -1.364  0.00  0.00    +0.004 A 
ATOM     44  C   UNL     1      -4.067  -3.376  -2.729  0.00  0.00    +0.000 A 
ATOM     45  C   UNL     1      -2.948  -3.204  -3.523  0.00  0.00    +0.000 A 
ATOM     46  C   UNL     1      -1.690  -3.202  -2.951  0.00  0.00    +0.000 A 
ATOM     47  C   UNL     1      -1.550  -3.366  -1.586  0.00  0.00    +0.004 A 
ENDBRANCH  41  42
ENDBRANCH   6  41
TORSDOF 5
