REMARK  Name = ZINC39930037
REMARK  6 active torsions:
REMARK  status: ('A' for Active; 'I' for Inactive)
REMARK    1  A    between atoms: C_1  and  C_2
REMARK    2  A    between atoms: C_2  and  C_29
REMARK    3  A    between atoms: N_5  and  C_9
REMARK    4  A    between atoms: C_9  and  C_10
REMARK    5  A    between atoms: C_10  and  C_12
REMARK    6  A    between atoms: C_20  and  C_22
REMARK                            x       y       z     vdW  Elec       q    Type
REMARK                         _______ _______ _______ _____ _____    ______ ____
ROOT
ATOM      1  C   UNL     1      -2.569  -1.986   1.805  0.00  0.00    +0.197 C 
ENDROOT
BRANCH   1   6
ATOM      2  C   UNL     1      -0.019   1.526   0.010  0.00  0.00    +0.047 C 
ATOM      3  C   UNL     1       0.002  -0.004   0.002  0.00  0.00    +0.135 C 
ATOM      4  C   UNL     1      -1.403  -0.557   0.139  0.00  0.00    +0.251 C 
ATOM      5  O   UNL     1      -2.332  -0.392  -0.621  0.00  0.00    -0.272 OA
ATOM      6  N   UNL     1      -1.403  -1.272   1.282  0.00  0.00    -0.216 N 
ATOM      7  C   UNL     1      -0.206  -1.247   1.879  0.00  0.00    +0.310 C 
ATOM      8  O   UNL     1       0.040  -1.819   2.924  0.00  0.00    -0.252 OA
ATOM      9  N   UNL     1       0.695  -0.520   1.195  0.00  0.00    -0.281 N 
ATOM     10  H   UNL     1       1.621  -0.365   1.440  0.00  0.00    +0.152 HD
BRANCH   3  11
ATOM     11  C   UNL     1       0.657  -0.517  -1.255  0.00  0.00    -0.012 A 
ATOM     12  C   UNL     1      -0.109  -0.772  -2.377  0.00  0.00    +0.010 A 
ATOM     13  C   UNL     1       0.488  -1.243  -3.531  0.00  0.00    +0.050 A 
ATOM     14  C   UNL     1       1.857  -1.462  -3.566  0.00  0.00    +0.162 A 
ATOM     15  C   UNL     1       2.627  -1.204  -2.438  0.00  0.00    +0.162 A 
ATOM     16  C   UNL     1       2.023  -0.727  -1.285  0.00  0.00    +0.055 A 
ATOM     17  O   UNL     1       3.973  -1.404  -2.453  0.00  0.00    -0.485 OA
ATOM     18  C   UNL     1       4.490  -2.228  -3.504  0.00  0.00    +0.270 C 
ATOM     19  C   UNL     1       3.849  -1.780  -4.825  0.00  0.00    +0.270 C 
ATOM     20  O   UNL     1       2.430  -1.931  -4.708  0.00  0.00    -0.485 OA
ENDBRANCH   3  11
ENDBRANCH   1   6
BRANCH   1  21
ATOM     21  C   UNL     1      -2.585  -3.391   1.260  0.00  0.00    +0.180 C 
ATOM     22  O   UNL     1      -1.706  -3.760   0.507  0.00  0.00    -0.291 OA
BRANCH  21  23
ATOM     23  C   UNL     1      -3.620  -4.278   1.624  0.00  0.00    +0.032 C 
ATOM     24  C   UNL     1      -4.690  -4.017   2.460  0.00  0.00    +0.007 A 
ATOM     25  C   UNL     1      -5.089  -2.867   3.182  0.00  0.00    +0.010 A 
ATOM     26  C   UNL     1      -6.208  -2.893   3.939  0.00  0.00    +0.001 A 
ATOM     27  C   UNL     1      -7.018  -4.034   4.050  0.00  0.00    +0.002 A 
ATOM     28  C   UNL     1      -6.726  -5.183   3.402  0.00  0.00    +0.026 A 
ATOM     29  C   UNL     1      -5.524  -5.240   2.554  0.00  0.00    +0.044 A 
ATOM     30  N   UNL     1      -5.014  -6.197   1.832  0.00  0.00    -0.373 N 
ATOM     31  C   UNL     1      -3.795  -5.713   1.177  0.00  0.00    +0.144 C 
ATOM     32  H   UNL     1      -5.385  -7.088   1.739  0.00  0.00    +0.161 HD
BRANCH  31  33
ATOM     33  C   UNL     1      -2.612  -6.540   1.613  0.00  0.00    -0.021 A 
ATOM     34  C   UNL     1      -2.536  -7.005   2.912  0.00  0.00    +0.009 A 
ATOM     35  C   UNL     1      -1.452  -7.763   3.313  0.00  0.00    +0.039 A 
ATOM     36  C   UNL     1      -0.443  -8.058   2.412  0.00  0.00    +0.123 A 
ATOM     37  C   UNL     1      -0.521  -7.592   1.110  0.00  0.00    +0.039 A 
ATOM     38  C   UNL     1      -1.608  -6.838   0.711  0.00  0.00    +0.009 A 
ATOM     39  F   UNL     1       0.617  -8.799   2.802  0.00  0.00    -0.205 F 
ENDBRANCH  31  33
ENDBRANCH  21  23
ENDBRANCH   1  21
TORSDOF 5
