REMARK  Name = ZINC59384186
REMARK  6 active torsions:
REMARK  status: ('A' for Active; 'I' for Inactive)
REMARK    1  A    between atoms: C_1  and  C_2
REMARK    2  A    between atoms: C_3  and  C_19
REMARK    3  A    between atoms: C_4  and  C_10
REMARK    4  A    between atoms: C_14  and  N_16
REMARK    5  A    between atoms: N_21  and  N_22
REMARK    6  A    between atoms: C_23  and  C_24
REMARK                            x       y       z     vdW  Elec       q    Type
REMARK                         _______ _______ _______ _____ _____    ______ ____
ROOT
ATOM      1  C   UNL     1       0.654   1.352   0.048  0.00  0.00    +0.061 C 
ATOM      2  C   UNL     1       0.363  -0.126   0.026  0.00  0.00    +0.017 C 
ATOM      3  C   UNL     1      -0.917  -0.550  -0.037  0.00  0.00    +0.057 C 
ATOM      4  C   UNL     1      -1.165  -2.045  -0.058  0.00  0.00    +0.139 C 
ATOM      5  N   UNL     1       0.019  -2.918  -0.007  0.00  0.00    -0.315 N 
ATOM      6  C   UNL     1       1.237  -2.345   0.054  0.00  0.00    +0.135 C 
ATOM      7  S   UNL     1       2.623  -3.348   0.113  0.00  0.00    -0.019 S 
ATOM      8  N   UNL     1       1.399  -1.016   0.065  0.00  0.00    -0.300 N 
ATOM      9  H   UNL     1      -0.075  -3.884  -0.017  0.00  0.00    +0.149 HD
ATOM     10  H   UNL     1       2.303  -0.665   0.106  0.00  0.00    +0.154 HD
ENDROOT
BRANCH   4  11
ATOM     11  C   UNL     1      -1.929  -2.372  -1.316  0.00  0.00    -0.020 A 
ATOM     12  C   UNL     1      -1.283  -2.362  -2.538  0.00  0.00    +0.006 A 
ATOM     13  C   UNL     1      -1.984  -2.662  -3.692  0.00  0.00    +0.003 A 
ATOM     14  C   UNL     1      -3.329  -2.971  -3.622  0.00  0.00    +0.033 A 
ATOM     15  C   UNL     1      -3.974  -2.982  -2.400  0.00  0.00    +0.127 A 
ATOM     16  C   UNL     1      -3.273  -2.686  -1.246  0.00  0.00    +0.038 A 
BRANCH  15  17
ATOM     17  N   UNL     1      -5.415  -3.313  -2.326  0.00  0.00    +0.056 N 
ATOM     18  O   UNL     1      -6.028  -3.575  -3.335  0.00  0.00    -0.126 OA
ATOM     19  O   UNL     1      -5.979  -3.322  -1.256  0.00  0.00    -0.126 OA
ENDBRANCH  15  17
ENDBRANCH   4  11
BRANCH   3  20
ATOM     20  C   UNL     1      -1.992   0.371  -0.083  0.00  0.00    +0.263 C 
ATOM     21  O   UNL     1      -2.656   0.582   0.917  0.00  0.00    -0.269 OA
ATOM     22  N   UNL     1      -2.280   1.015  -1.231  0.00  0.00    -0.203 N 
ATOM     23  H   UNL     1      -1.800   0.794  -2.045  0.00  0.00    +0.178 HD
BRANCH  22  24
ATOM     24  N   UNL     1      -3.272   2.004  -1.250  0.00  0.00    -0.187 NA
ATOM     25  C   UNL     1      -3.549   2.624  -2.356  0.00  0.00    +0.139 C 
BRANCH  25  26
ATOM     26  C   UNL     1      -4.593   3.665  -2.376  0.00  0.00    +0.013 A 
ATOM     27  C   UNL     1      -4.898   4.330  -3.566  0.00  0.00    +0.012 A 
ATOM     28  C   UNL     1      -5.876   5.302  -3.578  0.00  0.00    +0.021 A 
ATOM     29  C   UNL     1      -6.556   5.620  -2.413  0.00  0.00    +0.042 A 
ATOM     30  C   UNL     1      -6.259   4.966  -1.230  0.00  0.00    +0.040 A 
ATOM     31  C   UNL     1      -5.286   3.986  -1.205  0.00  0.00    +0.051 A 
ATOM     32 CL   UNL     1      -4.920   3.161   0.278  0.00  0.00    -0.083 Cl
ATOM     33 CL   UNL     1      -7.785   6.846  -2.438  0.00  0.00    -0.083 Cl
ENDBRANCH  25  26
ENDBRANCH  22  24
ENDBRANCH   3  20
TORSDOF 5
