REMARK  Name = ZINC39653563
REMARK  11 active torsions:
REMARK  status: ('A' for Active; 'I' for Inactive)
REMARK    1  A    between atoms: C_1  and  C_2
REMARK    2  A    between atoms: C_2  and  O_3
REMARK    3  A    between atoms: O_3  and  C_4
REMARK    4  A    between atoms: C_6  and  C_12
REMARK    5  A    between atoms: C_9  and  O_10
REMARK    6  A    between atoms: O_10  and  C_11
REMARK    7  A    between atoms: C_12  and  C_13
REMARK    8  A    between atoms: C_13  and  N_14
REMARK    9  A    between atoms: C_15  and  C_17
REMARK   10  A    between atoms: C_28  and  C_30
REMARK   11  A    between atoms: C_31  and  C_35
REMARK                            x       y       z     vdW  Elec       q    Type
REMARK                         _______ _______ _______ _____ _____    ______ ____
ROOT
ATOM      1  C   UNL     1       0.406  -7.452  -4.701  0.00  0.00    +0.100 C 
ATOM      2  C   UNL     1      -0.857  -6.832  -5.338  0.00  0.00    +0.121 C 
ATOM      3  N   UNL     1      -0.366  -6.156  -6.562  0.00  0.00    -0.296 N 
ATOM      4  C   UNL     1       0.657  -7.080  -7.108  0.00  0.00    +0.115 C 
ATOM      5  C   UNL     1       1.397  -7.616  -5.867  0.00  0.00    -0.004 C 
ATOM      6  C   UNL     1       2.657  -6.796  -5.609  0.00  0.00    -0.010 C 
ATOM      7  C   UNL     1       3.649  -7.020  -6.753  0.00  0.00    -0.082 C 
ATOM      8  N   UNL     1       3.980  -8.447  -6.844  0.00  0.00    +0.379 N 
ATOM      9  C   UNL     1       2.779  -9.219  -7.184  0.00  0.00    -0.082 C 
ATOM     10  C   UNL     1       1.750  -9.088  -6.058  0.00  0.00    -0.010 C 
ATOM     11  C   UNL     1      -0.760  -4.969  -7.065  0.00  0.00    +0.254 C 
ATOM     12  O   UNL     1      -1.543  -4.275  -6.444  0.00  0.00    -0.269 OA
ATOM     13  H   UNL     1       4.679  -8.584  -7.559  0.00  0.00    -0.086 HD
ATOM     14  H   UNL     1       4.342  -8.764  -5.957  0.00  0.00    -0.086 HD
ENDROOT
BRANCH  11  15
ATOM     15  C   UNL     1      -0.246  -4.515  -8.361  0.00  0.00    +0.077 A 
ATOM     16  C   UNL     1      -0.437  -3.299  -8.999  0.00  0.00    -0.031 A 
ATOM     17  C   UNL     1       0.178  -3.163 -10.220  0.00  0.00    +0.011 A 
ATOM     18  C   UNL     1       0.911  -4.194 -10.708  0.00  0.00    +0.046 A 
ATOM     19  S   UNL     1       0.795  -5.379  -9.522  0.00  0.00    -0.092 S 
ATOM     20  C   UNL     1      -1.268  -2.197  -8.393  0.00  0.00    +0.045 C 
ENDBRANCH  11  15
BRANCH   1  22
ATOM     21  N   UNL     1       1.631  -7.035  -2.593  0.00  0.00    -0.315 N 
ATOM     22  C   UNL     1       0.975  -6.528  -3.656  0.00  0.00    +0.218 C 
ATOM     23  O   UNL     1       0.842  -5.328  -3.771  0.00  0.00    -0.275 OA
ATOM     24  H   UNL     1       1.738  -7.994  -2.502  0.00  0.00    +0.149 HD
BRANCH  21  25
ATOM     25  C   UNL     1       2.184  -6.136  -1.577  0.00  0.00    +0.109 C 
BRANCH  25  26
ATOM     26  C   UNL     1       2.873  -6.960  -0.488  0.00  0.00    +0.054 C 
BRANCH  26  29
ATOM     27  C   UNL     1       3.193  -4.818   2.608  0.00  0.00    +0.162 A 
ATOM     28  C   UNL     1       2.672  -5.668   1.646  0.00  0.00    +0.053 A 
ATOM     29  C   UNL     1       3.442  -6.035   0.558  0.00  0.00    -0.042 A 
ATOM     30  C   UNL     1       4.732  -5.556   0.427  0.00  0.00    +0.007 A 
ATOM     31  C   UNL     1       5.258  -4.708   1.383  0.00  0.00    +0.049 A 
ATOM     32  C   UNL     1       4.490  -4.331   2.473  0.00  0.00    +0.162 A 
BRANCH  32  33
ATOM     33  O   UNL     1       5.004  -3.492   3.412  0.00  0.00    -0.491 OA
ATOM     34  C   UNL     1       6.341  -3.033   3.208  0.00  0.00    +0.277 C 
ENDBRANCH  32  33
BRANCH  27  35
ATOM     35  O   UNL     1       2.437  -4.455   3.678  0.00  0.00    -0.489 OA
BRANCH  35  37
ATOM     36  C   UNL     1       0.423  -4.477   5.014  0.00  0.00    +0.048 C 
ATOM     37  C   UNL     1       1.115  -4.993   3.751  0.00  0.00    +0.226 C 
ENDBRANCH  35  37
ENDBRANCH  27  35
ENDBRANCH  26  29
ENDBRANCH  25  26
ENDBRANCH  21  25
ENDBRANCH   1  22
TORSDOF 8
