REMARK  Name = ZINC65356245
REMARK  9 active torsions:
REMARK  status: ('A' for Active; 'I' for Inactive)
REMARK    1  A    between atoms: C_1  and  C_2
REMARK    2  A    between atoms: C_3  and  C_29
REMARK    3  A    between atoms: C_9  and  C_11
REMARK    4  A    between atoms: C_11  and  S_12
REMARK    5  A    between atoms: S_12  and  C_13
REMARK    6  A    between atoms: C_13  and  C_14
REMARK    7  A    between atoms: N_16  and  C_17
REMARK    8  A    between atoms: C_17  and  C_18
REMARK    9  A    between atoms: C_18  and  C_19
REMARK                            x       y       z     vdW  Elec       q    Type
REMARK                         _______ _______ _______ _____ _____    ______ ____
ROOT
ATOM      1  C   UNL     1       0.138  -6.147   5.443  0.00  0.00    +0.165 C 
ENDROOT
BRANCH   1   2
ATOM      2  C   UNL     1       0.155  -7.607   5.072  0.00  0.00    +0.223 C 
ATOM      3  O   UNL     1       0.148  -7.936   3.904  0.00  0.00    -0.275 OA
ATOM      4  N   UNL     1       0.177  -8.548   6.037  0.00  0.00    -0.314 N 
ATOM      5  H   UNL     1       0.182  -8.284   6.970  0.00  0.00    +0.149 HD
BRANCH   4   6
ATOM      6  C   UNL     1       0.193  -9.967   5.676  0.00  0.00    +0.108 C 
BRANCH   6   7
ATOM      7  C   UNL     1       0.217 -10.817   6.948  0.00  0.00    +0.052 C 
BRANCH   7   8
ATOM      8  C   UNL     1       0.234 -12.277   6.577  0.00  0.00    -0.040 C 
ATOM      9  C   UNL     1       1.321 -13.075   6.463  0.00  0.00    -0.001 A 
ATOM     10  C   UNL     1       2.757 -12.830   6.643  0.00  0.00    +0.010 A 
ATOM     11  C   UNL     1       3.624 -13.850   6.453  0.00  0.00    +0.001 A 
ATOM     12  C   UNL     1       3.188 -15.132   6.090  0.00  0.00    +0.002 A 
ATOM     13  C   UNL     1       1.885 -15.433   5.907  0.00  0.00    +0.026 A 
ATOM     14  C   UNL     1       0.885 -14.437   6.080  0.00  0.00    +0.043 A 
ATOM     15  N   UNL     1      -0.420 -14.480   5.961  0.00  0.00    -0.380 N 
ATOM     16  C   UNL     1      -0.961 -13.149   6.262  0.00  0.00    +0.144 C 
ATOM     17  H   UNL     1      -0.941 -15.261   5.719  0.00  0.00    +0.160 HD
ENDBRANCH   7   8
ENDBRANCH   6   7
ENDBRANCH   4   6
ENDBRANCH   1   2
BRANCH   1  18
ATOM     18  S   UNL     1       0.110  -5.139   3.935  0.00  0.00    -0.144 S 
BRANCH  18  19
ATOM     19  C   UNL     1       0.091  -3.432   4.547  0.00  0.00    +0.143 C 
BRANCH  19  28
ATOM     20  C   UNL     1      -0.018   1.503   0.010  0.00  0.00    +0.045 C 
ATOM     21  C   UNL     1       0.002  -0.004   0.002  0.00  0.00    -0.026 A 
ATOM     22  C   UNL     1       0.006  -0.677  -1.160  0.00  0.00    -0.008 A 
ATOM     23  S   UNL     1       0.032  -2.385  -0.648  0.00  0.00    -0.073 S 
ATOM     24  C   UNL     1       0.037  -2.144   1.110  0.00  0.00    +0.116 A 
ATOM     25  C   UNL     1       0.024  -0.745   1.250  0.00  0.00    +0.075 A 
ATOM     26  C   UNL     1       0.029  -0.257   2.597  0.00  0.00    +0.260 A 
ATOM     27  N   UNL     1       0.051  -1.142   3.611  0.00  0.00    -0.310 N 
ATOM     28  C   UNL     1       0.067  -2.480   3.380  0.00  0.00    +0.121 A 
ATOM     29  N   UNL     1       0.054  -2.956   2.163  0.00  0.00    -0.226 NA
ATOM     30  O   UNL     1       0.015   0.942   2.821  0.00  0.00    -0.267 OA
ATOM     31  C   UNL     1      -0.009  -0.122  -2.561  0.00  0.00    +0.052 C 
ATOM     32  H   UNL     1       0.055  -0.817   4.525  0.00  0.00    +0.170 HD
ENDBRANCH  19  28
ENDBRANCH  18  19
ENDBRANCH   1  18
TORSDOF 7
