REMARK  Name = ZINC12404540
REMARK  2 active torsions:
REMARK  status: ('A' for Active; 'I' for Inactive)
REMARK    1  A    between atoms: C_4  and  N_6
REMARK    2  A    between atoms: C_14  and  C_20
REMARK                            x       y       z     vdW  Elec       q    Type
REMARK                         _______ _______ _______ _____ _____    ______ ____
ROOT
ATOM      1  N   UNL     1       0.194  -2.005   1.098  0.00  0.00    -0.295 N 
ATOM      2  C   UNL     1       1.457  -1.772   0.330  0.00  0.00    +0.148 C 
ATOM      3  C   UNL     1       1.531  -0.277   0.302  0.00  0.00    +0.116 C 
ATOM      4  C   UNL     1       1.874   0.321   1.654  0.00  0.00    +0.008 C 
ATOM      5  C   UNL     1       1.910   1.633   1.468  0.00  0.00    +0.004 C 
ATOM      6  C   UNL     1       1.524   1.836  -0.003  0.00  0.00    +0.157 C 
ATOM      7  O   UNL     1       2.101   0.614  -0.627  0.00  0.00    -0.359 OA
ATOM      8  C   UNL     1      -0.018   1.503   0.010  0.00  0.00    +0.150 C 
ATOM      9  C   UNL     1       0.002  -0.004   0.002  0.00  0.00    +0.129 C 
ATOM     10  C   UNL     1      -0.612  -0.906   0.993  0.00  0.00    +0.223 C 
ATOM     11  O   UNL     1      -1.644  -0.715   1.601  0.00  0.00    -0.275 OA
ENDROOT
BRANCH   1  15
ATOM     12  C   UNL     1      -2.133  -4.370   2.620  0.00  0.00    +0.002 C 
ATOM     13  C   UNL     1      -1.792  -3.288   3.674  0.00  0.00    +0.002 C 
ATOM     14  C   UNL     1      -0.345  -2.873   3.337  0.00  0.00    +0.022 C 
ATOM     15  C   UNL     1      -0.123  -3.219   1.854  0.00  0.00    +0.076 C 
ATOM     16  C   UNL     1      -1.443  -3.831   1.342  0.00  0.00    +0.022 C 
ENDBRANCH   1  15
BRANCH   8  17
ATOM     17  C   UNL     1      -0.698   2.042  -1.222  0.00  0.00    +0.363 C 
ATOM     18  O   UNL     1      -1.137   1.281  -2.051  0.00  0.00    -0.246 OA
ATOM     19  O   UNL     1      -0.816   3.368  -1.398  0.00  0.00    -0.246 OA
ENDBRANCH   8  17
TORSDOF 2
