REMARK  Name = ZINC36609425
REMARK  15 active torsions:
REMARK  status: ('A' for Active; 'I' for Inactive)
REMARK    1  A    between atoms: C_1  and  C_2
REMARK    2  A    between atoms: C_2  and  C_3
REMARK    3  A    between atoms: C_3  and  C_4
REMARK    4  A    between atoms: C_4  and  N_5
REMARK    5  A    between atoms: C_6  and  C_8
REMARK    6  A    between atoms: C_8  and  C_10
REMARK    7  A    between atoms: C_8  and  N_20
REMARK    8  A    between atoms: C_13  and  O_18
REMARK    9  A    between atoms: C_14  and  O_16
REMARK   10  A    between atoms: O_16  and  C_17
REMARK   11  A    between atoms: O_18  and  C_19
REMARK   12  A    between atoms: N_20  and  C_21
REMARK   13  A    between atoms: C_27  and  C_29
REMARK   14  A    between atoms: C_31  and  N_36
REMARK   15  A    between atoms: C_34  and  O_35
REMARK                            x       y       z     vdW  Elec       q    Type
REMARK                         _______ _______ _______ _____ _____    ______ ____
ROOT
ATOM      1  N   UNL     1       4.056  -5.303  -4.302  0.00  0.00    -0.251 N 
ATOM      2  C   UNL     1       4.372  -5.965  -3.172  0.00  0.00    +0.255 C 
ATOM      3  O   UNL     1       4.944  -7.037  -3.234  0.00  0.00    -0.269 OA
ENDROOT
BRANCH   1   4
ATOM      4  C   UNL     1       4.426  -5.827  -5.545  0.00  0.00    +0.038 A 
ATOM      5  C   UNL     1       5.465  -5.247  -6.263  0.00  0.00    +0.023 A 
ATOM      6  C   UNL     1       5.828  -5.767  -7.490  0.00  0.00    +0.002 A 
ATOM      7  C   UNL     1       5.159  -6.862  -8.005  0.00  0.00    +0.000 A 
ATOM      8  C   UNL     1       4.124  -7.441  -7.293  0.00  0.00    +0.002 A 
ATOM      9  C   UNL     1       3.759  -6.930  -6.063  0.00  0.00    +0.023 A 
ENDBRANCH   1   4
BRANCH   2  10
ATOM     10  C   UNL     1       4.026  -5.389  -1.859  0.00  0.00    +0.081 A 
ATOM     11  C   UNL     1       2.736  -4.910  -1.620  0.00  0.00    +0.049 A 
ATOM     12  C   UNL     1       2.419  -4.373  -0.391  0.00  0.00    +0.127 A 
ATOM     13  C   UNL     1       3.374  -4.306   0.610  0.00  0.00    +0.036 A 
ATOM     14  C   UNL     1       4.653  -4.775   0.387  0.00  0.00    +0.048 A 
ATOM     15  C   UNL     1       4.988  -5.324  -0.841  0.00  0.00    +0.129 A 
BRANCH  12  16
ATOM     16  N   UNL     1       1.051  -3.865  -0.140  0.00  0.00    +0.056 N 
ATOM     17  O   UNL     1       0.252  -3.806  -1.045  0.00  0.00    -0.126 OA
ATOM     18  O   UNL     1       0.734  -3.508   0.971  0.00  0.00    -0.126 OA
ENDBRANCH  12  16
BRANCH  15  19
ATOM     19  O   UNL     1       6.243  -5.792  -1.060  0.00  0.00    -0.506 OA
ATOM     20  H   UNL     1       6.855  -5.129  -1.408  0.00  0.00    +0.292 HD
ENDBRANCH  15  19
ENDBRANCH   2  10
BRANCH   1  21
ATOM     21  C   UNL     1       3.324  -4.037  -4.229  0.00  0.00    +0.198 C 
BRANCH  21  22
ATOM     22  C   UNL     1       4.180  -2.929  -4.786  0.00  0.00    -0.014 A 
ATOM     23  C   UNL     1       4.164  -2.660  -6.143  0.00  0.00    +0.010 A 
ATOM     24  C   UNL     1       4.948  -1.645  -6.659  0.00  0.00    +0.050 A 
ATOM     25  C   UNL     1       5.752  -0.894  -5.816  0.00  0.00    +0.162 A 
ATOM     26  C   UNL     1       5.768  -1.164  -4.451  0.00  0.00    +0.162 A 
ATOM     27  C   UNL     1       4.976  -2.180  -3.940  0.00  0.00    +0.055 A 
BRANCH  26  28
ATOM     28  O   UNL     1       6.555  -0.429  -3.620  0.00  0.00    -0.491 OA
ATOM     29  C   UNL     1       6.520  -0.763  -2.231  0.00  0.00    +0.277 C 
ENDBRANCH  26  28
BRANCH  25  30
ATOM     30  O   UNL     1       6.524   0.105  -6.322  0.00  0.00    -0.491 OA
ATOM     31  C   UNL     1       6.457   0.325  -7.732  0.00  0.00    +0.277 C 
ENDBRANCH  25  30
ENDBRANCH  21  22
BRANCH  21  33
ATOM     32  N   UNL     1       1.215  -3.091  -5.112  0.00  0.00    -0.313 N 
ATOM     33  C   UNL     1       2.054  -4.143  -5.034  0.00  0.00    +0.238 C 
ATOM     34  O   UNL     1       1.787  -5.175  -5.611  0.00  0.00    -0.273 OA
ATOM     35  H   UNL     1       1.429  -2.265  -4.649  0.00  0.00    +0.149 HD
BRANCH  32  36
ATOM     36  C   UNL     1      -0.019  -3.194  -5.894  0.00  0.00    +0.104 C 
BRANCH  36  37
ATOM     37  C   UNL     1      -0.783  -1.871  -5.817  0.00  0.00    +0.018 C 
BRANCH  37  39
ATOM     38  C   UNL     1      -2.837  -0.655  -6.558  0.00  0.00    +0.004 C 
ATOM     39  C   UNL     1      -2.073  -1.979  -6.634  0.00  0.00    -0.002 C 
ENDBRANCH  37  39
ENDBRANCH  36  37
ENDBRANCH  32  36
ENDBRANCH  21  33
ENDBRANCH   1  21
TORSDOF 12
