REMARK  Name = ZINC16044338
REMARK  11 active torsions:
REMARK  status: ('A' for Active; 'I' for Inactive)
REMARK    1  A    between atoms: C_1  and  C_2
REMARK    2  A    between atoms: C_2  and  C_35
REMARK    3  A    between atoms: C_3  and  C_4
REMARK    4  A    between atoms: N_6  and  C_7
REMARK    5  A    between atoms: C_8  and  C_18
REMARK    6  A    between atoms: C_9  and  C_12
REMARK    7  A    between atoms: C_18  and  O_20
REMARK    8  A    between atoms: O_20  and  C_21
REMARK    9  A    between atoms: C_21  and  C_22
REMARK   10  A    between atoms: N_24  and  C_25
REMARK   11  A    between atoms: C_28  and  N_32
REMARK                            x       y       z     vdW  Elec       q    Type
REMARK                         _______ _______ _______ _____ _____    ______ ____
ROOT
ATOM      1  C   UNL     1      -7.854   0.318   0.648  0.00  0.00    +0.087 A 
ATOM      2  C   UNL     1      -7.188   0.779  -0.481  0.00  0.00    +0.095 A 
ATOM      3  C   UNL     1      -7.684   0.318  -1.764  0.00  0.00    +0.005 A 
ATOM      4  C   UNL     1      -8.755  -0.516  -1.741  0.00  0.00    +0.056 A 
ATOM      5  S   UNL     1      -9.103  -0.687  -0.004  0.00  0.00    -0.080 S 
ENDROOT
BRANCH   3   6
ATOM      6  C   UNL     1      -7.052   0.738  -3.038  0.00  0.00    -0.017 A 
ATOM      7  C   UNL     1      -6.813   2.088  -3.288  0.00  0.00    +0.008 A 
ATOM      8  C   UNL     1      -6.219   2.473  -4.473  0.00  0.00    +0.001 A 
ATOM      9  C   UNL     1      -5.873   1.522  -5.417  0.00  0.00    +0.000 A 
ATOM     10  C   UNL     1      -6.113   0.181  -5.176  0.00  0.00    +0.001 A 
ATOM     11  C   UNL     1      -6.701  -0.216  -3.992  0.00  0.00    +0.008 A 
ENDBRANCH   3   6
BRANCH   1  14
ATOM     12  C   UNL     1      -8.344   0.055   2.947  0.00  0.00    +0.241 C 
ATOM     13  O   UNL     1      -9.268  -0.681   2.656  0.00  0.00    -0.270 OA
ATOM     14  N   UNL     1      -7.584   0.598   1.976  0.00  0.00    -0.276 N 
ATOM     15  H   UNL     1      -6.847   1.184   2.208  0.00  0.00    +0.156 HD
BRANCH  12  18
ATOM     16  C   UNL     1      -9.953  -1.096   4.957  0.00  0.00    +0.039 C 
ATOM     17  C   UNL     1      -8.808  -0.185   5.317  0.00  0.00    -0.071 C 
ATOM     18  C   UNL     1      -8.057   0.351   4.359  0.00  0.00    +0.066 C 
ATOM     19  C   UNL     1      -8.514   0.119   6.764  0.00  0.00    +0.039 C 
ENDBRANCH  12  18
ENDBRANCH   1  14
BRANCH   2  20
ATOM     20  C   UNL     1      -6.040   1.680  -0.380  0.00  0.00    +0.343 C 
ATOM     21  O   UNL     1      -6.210   2.885  -0.387  0.00  0.00    -0.245 OA
BRANCH  20  22
ATOM     22  O   UNL     1      -4.793   1.175  -0.280  0.00  0.00    -0.452 OA
BRANCH  22  23
ATOM     23  C   UNL     1      -3.702   2.128  -0.184  0.00  0.00    +0.328 C 
BRANCH  23  24
ATOM     24  C   UNL     1      -2.395   1.385  -0.081  0.00  0.00    +0.255 C 
ATOM     25  O   UNL     1      -2.384   0.173  -0.088  0.00  0.00    -0.272 OA
ATOM     26  N   UNL     1      -1.238   2.069   0.019  0.00  0.00    -0.281 N 
ATOM     27  H   UNL     1      -1.251   3.035   0.105  0.00  0.00    +0.155 HD
BRANCH  26  28
ATOM     28  C   UNL     1      -0.016   1.385  -0.001  0.00  0.00    +0.052 A 
ATOM     29  C   UNL     1       0.076   0.144  -0.617  0.00  0.00    +0.027 A 
ATOM     30  C   UNL     1       1.283  -0.526  -0.640  0.00  0.00    +0.034 A 
ATOM     31  C   UNL     1       2.401   0.038  -0.052  0.00  0.00    +0.128 A 
ATOM     32  C   UNL     1       2.313   1.274   0.561  0.00  0.00    +0.054 A 
ATOM     33  C   UNL     1       1.108   1.950   0.589  0.00  0.00    +0.064 A 
ATOM     34 CL   UNL     1       0.999   3.502   1.359  0.00  0.00    -0.082 Cl
BRANCH  31  35
ATOM     35  N   UNL     1       3.693  -0.683  -0.080  0.00  0.00    +0.056 N 
ATOM     36  O   UNL     1       3.771  -1.772  -0.620  0.00  0.00    -0.126 OA
ATOM     37  O   UNL     1       4.678  -0.188   0.438  0.00  0.00    -0.126 OA
ENDBRANCH  31  35
ENDBRANCH  26  28
ENDBRANCH  23  24
ENDBRANCH  22  23
ENDBRANCH  20  22
ENDBRANCH   2  20
TORSDOF 9
