REMARK  Name = ZINC09206867
REMARK  9 active torsions:
REMARK  status: ('A' for Active; 'I' for Inactive)
REMARK    1  A    between atoms: C_1  and  C_2
REMARK    2  A    between atoms: C_2  and  C_3
REMARK    3  A    between atoms: C_3  and  O_4
REMARK    4  A    between atoms: O_4  and  C_5
REMARK    5  A    between atoms: C_5  and  C_7
REMARK    6  A    between atoms: C_10  and  N_13
REMARK    7  A    between atoms: C_14  and  C_16
REMARK    8  A    between atoms: C_16  and  N_17
REMARK    9  A    between atoms: C_28  and  C_32
REMARK                            x       y       z     vdW  Elec       q    Type
REMARK                         _______ _______ _______ _____ _____    ______ ____
ROOT
ATOM      1  N   UNL     1       1.155   3.480   0.010  0.00  0.00    -0.284 N 
ATOM      2  C   UNL     1       2.308   4.172   0.104  0.00  0.00    +0.239 C 
ATOM      3  O   UNL     1       3.370   3.587   0.091  0.00  0.00    -0.273 OA
ATOM      4  H   UNL     1       0.310   3.951  -0.057  0.00  0.00    +0.155 HD
ENDROOT
BRANCH   1   8
ATOM      5  C   UNL     1       1.222  -0.685   0.004  0.00  0.00    +0.059 A 
ATOM      6  C   UNL     1       0.259   0.002  -0.742  0.00  0.00    +0.017 A 
ATOM      7  C   UNL     1       0.240   1.378  -0.738  0.00  0.00    +0.024 A 
ATOM      8  C   UNL     1       1.177   2.086   0.008  0.00  0.00    +0.033 A 
ATOM      9  C   UNL     1       2.137   1.406   0.752  0.00  0.00    +0.024 A 
ATOM     10  C   UNL     1       2.162   0.030   0.752  0.00  0.00    +0.017 A 
BRANCH   5  11
ATOM     11  C   UNL     1       1.245  -2.159   0.003  0.00  0.00    +0.339 C 
ATOM     12  O   UNL     1       0.427  -2.779  -0.648  0.00  0.00    -0.245 OA
BRANCH  11  13
ATOM     13  O   UNL     1       2.173  -2.819   0.723  0.00  0.00    -0.461 OA
BRANCH  13  14
ATOM     14  C   UNL     1       2.136  -4.270   0.674  0.00  0.00    +0.232 C 
BRANCH  14  16
ATOM     15  C   UNL     1       3.219  -6.367   1.495  0.00  0.00    +0.007 C 
ATOM     16  C   UNL     1       3.257  -4.838   1.546  0.00  0.00    +0.038 C 
ENDBRANCH  14  16
ENDBRANCH  13  14
ENDBRANCH  11  13
ENDBRANCH   5  11
ENDBRANCH   1   8
BRANCH   2  17
ATOM     17  C   UNL     1       2.277   5.674   0.226  0.00  0.00    +0.245 C 
BRANCH  17  18
ATOM     18  N   UNL     1       3.647   6.185   0.313  0.00  0.00    -0.201 N 
ATOM     19  C   UNL     1       4.308   6.513  -0.814  0.00  0.00    +0.279 A 
ATOM     20  O   UNL     1       3.777   6.387  -1.904  0.00  0.00    -0.265 OA
ATOM     21  C   UNL     1       5.649   7.012  -0.708  0.00  0.00    +0.079 A 
ATOM     22  C   UNL     1       6.546   7.425  -1.785  0.00  0.00    -0.023 A 
ATOM     23  C   UNL     1       7.773   7.864  -1.427  0.00  0.00    -0.004 A 
ATOM     24  S   UNL     1       7.801   7.753   0.342  0.00  0.00    -0.071 S 
ATOM     25  C   UNL     1       6.163   7.116   0.594  0.00  0.00    +0.138 A 
ATOM     26  N   UNL     1       5.458   6.775   1.669  0.00  0.00    -0.123 NA
ATOM     27  N   UNL     1       4.252   6.333   1.565  0.00  0.00    -0.061 NA
ATOM     28  C   UNL     1       8.867   8.338  -2.333  0.00  0.00    +0.046 C 
ATOM     29  C   UNL     1       8.529   7.906  -3.767  0.00  0.00    -0.009 C 
ATOM     30  C   UNL     1       7.071   8.273  -4.060  0.00  0.00    +0.008 C 
ATOM     31  C   UNL     1       6.136   7.372  -3.254  0.00  0.00    +0.037 C 
ATOM     32  C   UNL     1       9.451   8.628  -4.752  0.00  0.00    +0.008 C 
ENDBRANCH  17  18
ENDBRANCH   2  17
TORSDOF 7
