REMARK  Name = ZINC23635433
REMARK  6 active torsions:
REMARK  status: ('A' for Active; 'I' for Inactive)
REMARK    1  A    between atoms: C_1  and  C_2
REMARK    2  A    between atoms: C_2  and  C_4
REMARK    3  A    between atoms: C_2  and  S_16
REMARK    4  A    between atoms: S_16  and  C_17
REMARK    5  A    between atoms: N_27  and  C_28
REMARK    6  A    between atoms: C_28  and  C_29
REMARK                            x       y       z     vdW  Elec       q    Type
REMARK                         _______ _______ _______ _____ _____    ______ ____
ROOT
ATOM      1  C   UNL     1       2.342   1.402  -0.013  0.00  0.00    +0.173 A 
ATOM      2  N   UNL     1       2.387   0.092  -0.020  0.00  0.00    -0.223 NA
ATOM      3  C   UNL     1       1.258  -0.654  -0.013  0.00  0.00    +0.080 A 
ATOM      4  C   UNL     1       1.303  -2.051  -0.021  0.00  0.00    +0.048 A 
ATOM      5  C   UNL     1       0.127  -2.769  -0.013  0.00  0.00    +0.043 A 
ATOM      6  C   UNL     1      -1.103  -2.120   0.003  0.00  0.00    +0.021 A 
ATOM      7  C   UNL     1      -1.173  -0.755   0.010  0.00  0.00    +0.017 A 
ATOM      8  C   UNL     1       0.002  -0.004   0.002  0.00  0.00    +0.065 A 
ATOM      9  C   UNL     1      -0.018   1.465   0.010  0.00  0.00    +0.263 A 
ATOM     10  O   UNL     1      -1.067   2.081   0.018  0.00  0.00    -0.267 OA
ATOM     11  N   UNL     1       1.173   2.107   0.002  0.00  0.00    -0.280 N 
ATOM     12 CL   UNL     1       0.182  -4.504  -0.022  0.00  0.00    -0.083 Cl
ENDROOT
BRANCH   1  13
ATOM     13  S   UNL     1       3.861   2.294  -0.023  0.00  0.00    -0.077 S 
BRANCH  13  15
ATOM     14  C   UNL     1       4.889   0.140  -1.352  0.00  0.00    +0.027 C 
ATOM     15  C   UNL     1       5.035   0.916  -0.042  0.00  0.00    +0.117 C 
BRANCH  15  16
ATOM     16  C   UNL     1       6.439   1.451   0.071  0.00  0.00    +0.124 A 
ATOM     17  N   UNL     1       7.352   0.724   0.765  0.00  0.00    -0.309 N 
ATOM     18  H   UNL     1       7.058  -0.230   1.229  0.00  0.00    +0.170 HD
ATOM     19  C   UNL     1       8.627   1.160   0.896  0.00  0.00    +0.259 A 
ATOM     20  O   UNL     1       9.455   0.518   1.515  0.00  0.00    -0.267 OA
ATOM     21  C   UNL     1       8.972   2.440   0.259  0.00  0.00    +0.065 A 
ATOM     22  C   UNL     1      10.255   2.978   0.334  0.00  0.00    +0.015 A 
ATOM     23  C   UNL     1      10.524   4.181  -0.281  0.00  0.00    +0.001 A 
ATOM     24  C   UNL     1       9.528   4.859  -0.972  0.00  0.00    +0.002 A 
ATOM     25  C   UNL     1       8.254   4.345  -1.057  0.00  0.00    +0.028 A 
ATOM     26  C   UNL     1       7.957   3.127  -0.442  0.00  0.00    +0.078 A 
ATOM     27  N   UNL     1       6.716   2.581  -0.506  0.00  0.00    -0.233 NA
ENDBRANCH  15  16
ENDBRANCH  13  15
ENDBRANCH   1  13
BRANCH  11  28
ATOM     28  C   UNL     1       1.208   3.572   0.009  0.00  0.00    +0.201 C 
BRANCH  28  29
ATOM     29  C   UNL     1       1.233   4.067   1.432  0.00  0.00    +0.125 A 
ATOM     30  C   UNL     1       2.337   4.294   2.167  0.00  0.00    +0.046 A 
ATOM     31  C   UNL     1       1.901   4.749   3.432  0.00  0.00    +0.041 A 
ATOM     32  C   UNL     1       0.556   4.765   3.398  0.00  0.00    +0.195 A 
ATOM     33  O   UNL     1       0.158   4.351   2.185  0.00  0.00    -0.466 OA
ENDBRANCH  28  29
ENDBRANCH  11  28
TORSDOF 5
