REMARK  Name = ZINC01871972
REMARK  14 active torsions:
REMARK  status: ('A' for Active; 'I' for Inactive)
REMARK    1  A    between atoms: C_1  and  C_2
REMARK    2  A    between atoms: C_2  and  C_41
REMARK    3  A    between atoms: C_9  and  C_22
REMARK    4  A    between atoms: C_9  and  N_26
REMARK    5  A    between atoms: N_12  and  C_13
REMARK    6  A    between atoms: C_13  and  C_14
REMARK    7  A    between atoms: C_14  and  C_15
REMARK    8  A    between atoms: C_27  and  C_29
REMARK    9  A    between atoms: C_31  and  O_39
REMARK   10  A    between atoms: C_32  and  O_37
REMARK   11  A    between atoms: C_33  and  O_35
REMARK   12  A    between atoms: O_35  and  C_36
REMARK   13  A    between atoms: O_37  and  C_38
REMARK   14  A    between atoms: O_39  and  C_40
REMARK                            x       y       z     vdW  Elec       q    Type
REMARK                         _______ _______ _______ _____ _____    ______ ____
ROOT
ATOM      1  C   UNL     1      -0.023   0.952  -1.413  0.00  0.00    +0.011 C 
ATOM      2  C   UNL     1       0.188  -0.560  -1.314  0.00  0.00    -0.023 C 
ATOM      3  C   UNL     1       1.312  -0.979  -2.268  0.00  0.00    +0.058 C 
ATOM      4  C   UNL     1       2.598  -0.333  -1.793  0.00  0.00    +0.023 C 
ATOM      5  C   UNL     1       2.789  -0.008  -0.486  0.00  0.00    +0.053 C 
ATOM      6  C   UNL     1       1.840  -0.242   0.519  0.00  0.00    +0.164 C 
ATOM      7  O   UNL     1       2.047   0.094   1.668  0.00  0.00    -0.292 OA
ATOM      8  C   UNL     1       0.549  -0.927   0.126  0.00  0.00    +0.086 C 
ATOM      9  C   UNL     1       4.156   0.612  -0.389  0.00  0.00    +0.237 C 
ATOM     10  C   UNL     1       4.662   0.564  -1.820  0.00  0.00    +0.257 C 
ATOM     11  O   UNL     1       5.734   0.957  -2.227  0.00  0.00    -0.272 OA
ATOM     12  N   UNL     1       3.679  -0.004  -2.547  0.00  0.00    -0.272 N 
ATOM     13  C   UNL     1      -1.103  -1.279  -1.711  0.00  0.00    +0.011 C 
ENDROOT
BRANCH   9  14
ATOM     14  C   UNL     1       4.060   2.058   0.101  0.00  0.00    +0.424 C 
ATOM     15  F   UNL     1       3.577   2.074   1.414  0.00  0.00    -0.167 F 
ATOM     16  F   UNL     1       5.327   2.648   0.063  0.00  0.00    -0.167 F 
ATOM     17  F   UNL     1       3.187   2.773  -0.726  0.00  0.00    -0.167 F 
ENDBRANCH   9  14
BRANCH   9  18
ATOM     18  N   UNL     1       5.020  -0.178   0.492  0.00  0.00    -0.287 N 
ATOM     19  C   UNL     1       5.203  -1.492   0.255  0.00  0.00    +0.246 C 
ATOM     20  O   UNL     1       4.722  -2.004  -0.738  0.00  0.00    -0.270 OA
ATOM     21  H   UNL     1       5.461   0.245   1.245  0.00  0.00    +0.151 HD
BRANCH  19  22
ATOM     22  C   UNL     1       5.988  -2.310   1.200  0.00  0.00    +0.044 A 
ATOM     23  C   UNL     1       6.537  -1.725   2.344  0.00  0.00    +0.062 A 
ATOM     24  C   UNL     1       7.271  -2.493   3.228  0.00  0.00    +0.166 A 
ATOM     25  C   UNL     1       7.464  -3.849   2.979  0.00  0.00    +0.204 A 
ATOM     26  C   UNL     1       6.919  -4.435   1.840  0.00  0.00    +0.166 A 
ATOM     27  C   UNL     1       6.179  -3.672   0.956  0.00  0.00    +0.062 A 
BRANCH  26  28
ATOM     28  O   UNL     1       7.109  -5.760   1.599  0.00  0.00    -0.491 OA
ATOM     29  C   UNL     1       6.522  -6.295   0.412  0.00  0.00    +0.277 C 
ENDBRANCH  26  28
BRANCH  25  30
ATOM     30  O   UNL     1       8.186  -4.602   3.850  0.00  0.00    -0.488 OA
ATOM     31  C   UNL     1       7.469  -5.232   4.913  0.00  0.00    +0.277 C 
ENDBRANCH  25  30
BRANCH  24  32
ATOM     32  O   UNL     1       7.805  -1.924   4.342  0.00  0.00    -0.491 OA
ATOM     33  C   UNL     1       7.568  -0.528   4.534  0.00  0.00    +0.277 C 
ENDBRANCH  24  32
ENDBRANCH  19  22
ENDBRANCH   9  18
BRANCH  12  34
ATOM     34  C   UNL     1       3.767  -0.241  -3.990  0.00  0.00    +0.118 C 
BRANCH  34  35
ATOM     35  C   UNL     1       3.228   0.978  -4.741  0.00  0.00    +0.054 C 
BRANCH  35  36
ATOM     36  C   UNL     1       3.319   0.735  -6.225  0.00  0.00    -0.046 A 
ATOM     37  C   UNL     1       4.461   1.096  -6.916  0.00  0.00    +0.006 A 
ATOM     38  C   UNL     1       4.545   0.872  -8.277  0.00  0.00    +0.038 A 
ATOM     39  C   UNL     1       3.486   0.287  -8.949  0.00  0.00    +0.123 A 
ATOM     40  C   UNL     1       2.343  -0.075  -8.256  0.00  0.00    +0.038 A 
ATOM     41  C   UNL     1       2.263   0.145  -6.894  0.00  0.00    +0.006 A 
ATOM     42  F   UNL     1       3.567   0.068 -10.280  0.00  0.00    -0.205 F 
ENDBRANCH  35  36
ENDBRANCH  34  35
ENDBRANCH  12  34
TORSDOF 9
