REMARK  Name = ZINC46793775
REMARK  9 active torsions:
REMARK  status: ('A' for Active; 'I' for Inactive)
REMARK    1  A    between atoms: C_1  and  C_2
REMARK    2  A    between atoms: C_2  and  C_3
REMARK    3  A    between atoms: C_3  and  N_4
REMARK    4  A    between atoms: N_4  and  S_5
REMARK    5  A    between atoms: S_5  and  C_8
REMARK    6  A    between atoms: C_11  and  C_14
REMARK    7  A    between atoms: C_15  and  C_16
REMARK    8  A    between atoms: N_18  and  C_19
REMARK    9  A    between atoms: C_22  and  N_26
REMARK                            x       y       z     vdW  Elec       q    Type
REMARK                         _______ _______ _______ _____ _____    ______ ____
ROOT
ATOM      1  C   UNL     1      -7.903  -2.160  -6.017  0.00  0.00    +0.241 C 
ATOM      2  O   UNL     1      -8.669  -1.223  -5.885  0.00  0.00    -0.270 OA
ATOM      3  N   UNL     1      -7.971  -2.937  -7.116  0.00  0.00    -0.282 N 
ATOM      4  H   UNL     1      -7.318  -3.641  -7.253  0.00  0.00    +0.155 HD
ENDROOT
BRANCH   3   5
ATOM      5  C   UNL     1      -8.984  -2.727  -8.060  0.00  0.00    +0.035 A 
ATOM      6  C   UNL     1      -9.544  -3.808  -8.729  0.00  0.00    +0.025 A 
ATOM      7  C   UNL     1     -10.543  -3.602  -9.660  0.00  0.00    +0.026 A 
ATOM      8  C   UNL     1     -10.987  -2.314  -9.928  0.00  0.00    +0.049 A 
ATOM      9  C   UNL     1     -10.427  -1.232  -9.259  0.00  0.00    +0.064 A 
ATOM     10  C   UNL     1      -9.431  -1.439  -8.323  0.00  0.00    +0.045 A 
ATOM     11 CL   UNL     1     -10.982   0.378  -9.594  0.00  0.00    -0.082 Cl
BRANCH   8  12
ATOM     12  N   UNL     1     -11.999  -2.105 -10.872  0.00  0.00    -0.318 N 
ATOM     13  C   UNL     1     -11.686  -1.886 -12.295  0.00  0.00    +0.124 C 
ATOM     14  C   UNL     1     -12.327  -3.015 -13.104  0.00  0.00    +0.123 C 
ATOM     15  N   UNL     1     -13.707  -3.230 -12.689  0.00  0.00    -0.313 N 
ATOM     16  C   UNL     1     -14.207  -2.865 -11.507  0.00  0.00    +0.230 C 
ATOM     17  O   UNL     1     -15.352  -3.170 -11.245  0.00  0.00    -0.274 OA
ATOM     18  C   UNL     1     -13.418  -2.102 -10.486  0.00  0.00    +0.200 C 
ATOM     19  H   UNL     1     -14.303  -3.668 -13.316  0.00  0.00    +0.149 HD
ENDBRANCH   8  12
ENDBRANCH   3   5
BRANCH   1  21
ATOM     20  C   UNL     1      -6.839  -1.665  -3.882  0.00  0.00    +0.013 C 
ATOM     21  C   UNL     1      -6.907  -2.442  -4.981  0.00  0.00    +0.068 C 
BRANCH  20  25
ATOM     22  C   UNL     1      -3.955  -2.484  -0.881  0.00  0.00    +0.105 A 
ATOM     23  C   UNL     1      -4.824  -1.418  -0.728  0.00  0.00    +0.029 A 
ATOM     24  C   UNL     1      -5.764  -1.145  -1.699  0.00  0.00    +0.010 A 
ATOM     25  C   UNL     1      -5.838  -1.949  -2.841  0.00  0.00    -0.025 A 
ATOM     26  C   UNL     1      -4.956  -3.025  -2.988  0.00  0.00    +0.010 A 
ATOM     27  C   UNL     1      -4.018  -3.281  -2.011  0.00  0.00    +0.029 A 
BRANCH  22  28
ATOM     28  S   UNL     1      -2.757  -2.825   0.366  0.00  0.00    +0.058 S 
ATOM     29  O   UNL     1      -2.420  -4.199   0.240  0.00  0.00    -0.153 OA
ATOM     30  O   UNL     1      -3.260  -2.271   1.574  0.00  0.00    -0.153 OA
BRANCH  28  31
ATOM     31  N   UNL     1      -1.394  -1.966  -0.018  0.00  0.00    -0.190 NA
ATOM     32  H   UNL     1      -0.576  -2.433  -0.249  0.00  0.00    +0.148 HD
BRANCH  31  33
ATOM     33  C   UNL     1      -1.424  -0.501  -0.007  0.00  0.00    +0.105 C 
BRANCH  33  35
ATOM     34  C   UNL     1      -0.023   1.568  -0.011  0.00  0.00    +0.005 C 
ATOM     35  C   UNL     1       0.008   0.038  -0.022  0.00  0.00    +0.013 C 
ENDBRANCH  33  35
ENDBRANCH  31  33
ENDBRANCH  28  31
ENDBRANCH  22  28
ENDBRANCH  20  25
ENDBRANCH   1  21
TORSDOF 8
