REMARK  Name = ZINC09404957
REMARK  11 active torsions:
REMARK  status: ('A' for Active; 'I' for Inactive)
REMARK    1  A    between atoms: C_1  and  C_2
REMARK    2  A    between atoms: C_6  and  N_9
REMARK    3  A    between atoms: C_7  and  C_8
REMARK    4  A    between atoms: C_10  and  C_27
REMARK    5  A    between atoms: C_13  and  S_14
REMARK    6  A    between atoms: S_14  and  C_15
REMARK    7  A    between atoms: C_15  and  C_16
REMARK    8  A    between atoms: C_27  and  N_28
REMARK    9  A    between atoms: C_29  and  C_31
REMARK   10  A    between atoms: C_31  and  O_32
REMARK   11  A    between atoms: O_32  and  C_33
REMARK                            x       y       z     vdW  Elec       q    Type
REMARK                         _______ _______ _______ _____ _____    ______ ____
ROOT
ATOM      1  N   UNL     1      -2.539   6.014   2.147  0.00  0.00    -0.273 N 
ATOM      2  C   UNL     1      -1.568   5.212   2.685  0.00  0.00    +0.156 A 
ATOM      3  N   UNL     1      -0.667   5.994   3.210  0.00  0.00    -0.132 NA
ATOM      4  N   UNL     1      -0.994   7.225   3.036  0.00  0.00    -0.122 NA
ATOM      5  C   UNL     1      -2.135   7.298   2.392  0.00  0.00    +0.197 A 
ENDROOT
BRANCH   1  11
ATOM      6  C   UNL     1      -4.827   4.806  -2.037  0.00  0.00    +0.044 C 
ATOM      7  C   UNL     1      -4.840   5.011  -0.544  0.00  0.00    -0.046 A 
ATOM      8  C   UNL     1      -6.003   4.795   0.173  0.00  0.00    +0.004 A 
ATOM      9  C   UNL     1      -6.020   4.983   1.542  0.00  0.00    +0.002 A 
ATOM     10  C   UNL     1      -4.872   5.381   2.200  0.00  0.00    +0.026 A 
ATOM     11  C   UNL     1      -3.705   5.604   1.483  0.00  0.00    +0.053 A 
ATOM     12  C   UNL     1      -3.692   5.415   0.107  0.00  0.00    -0.024 A 
ATOM     13  C   UNL     1      -2.425   5.651  -0.674  0.00  0.00    +0.046 C 
ENDBRANCH   1  11
BRANCH   5  14
ATOM     14  S   UNL     1      -2.986   8.770   1.930  0.00  0.00    -0.076 S 
BRANCH  14  15
ATOM     15  C   UNL     1      -1.846  10.012   2.591  0.00  0.00    +0.173 C 
BRANCH  15  16
ATOM     16  C   UNL     1      -2.384  11.390   2.304  0.00  0.00    +0.230 C 
ATOM     17  O   UNL     1      -3.434  11.520   1.712  0.00  0.00    -0.274 OA
ATOM     18  N   UNL     1      -1.698  12.478   2.706  0.00  0.00    -0.270 N 
ATOM     19  C   UNL     1      -2.115  13.865   2.482  0.00  0.00    +0.118 C 
ATOM     20  C   UNL     1      -1.013  14.726   3.121  0.00  0.00    +0.056 C 
ATOM     21  C   UNL     1      -0.020  13.727   3.670  0.00  0.00    -0.024 A 
ATOM     22  C   UNL     1      -0.480  12.449   3.394  0.00  0.00    +0.040 A 
ATOM     23  C   UNL     1       0.276  11.352   3.808  0.00  0.00    +0.024 A 
ATOM     24  C   UNL     1       1.464  11.541   4.482  0.00  0.00    +0.002 A 
ATOM     25  C   UNL     1       1.915  12.819   4.753  0.00  0.00    +0.000 A 
ATOM     26  C   UNL     1       1.171  13.911   4.346  0.00  0.00    +0.005 A 
ENDBRANCH  15  16
ENDBRANCH  14  15
ENDBRANCH   5  14
BRANCH   2  27
ATOM     27  C   UNL     1      -1.547   3.705   2.677  0.00  0.00    +0.181 C 
BRANCH  27  28
ATOM     28  N   UNL     1      -0.862   3.233   1.472  0.00  0.00    -0.305 N 
ATOM     29  C   UNL     1      -0.723   1.911   1.250  0.00  0.00    +0.251 C 
ATOM     30  O   UNL     1      -1.165   1.112   2.048  0.00  0.00    -0.272 OA
ATOM     31  H   UNL     1      -0.508   3.872   0.833  0.00  0.00    +0.149 HD
BRANCH  29  32
ATOM     32  C   UNL     1      -0.017   1.425   0.010  0.00  0.00    +0.324 C 
BRANCH  32  33
ATOM     33  O   UNL     1       0.002  -0.004   0.002  0.00  0.00    -0.483 OA
BRANCH  33  34
ATOM     34  C   UNL     1       0.606  -0.607  -1.056  0.00  0.00    +0.121 A 
ATOM     35  C   UNL     1       1.163   0.161  -2.068  0.00  0.00    +0.045 A 
ATOM     36  C   UNL     1       1.782  -0.455  -3.139  0.00  0.00    +0.004 A 
ATOM     37  C   UNL     1       1.835  -1.835  -3.209  0.00  0.00    +0.000 A 
ATOM     38  C   UNL     1       1.275  -2.602  -2.204  0.00  0.00    +0.004 A 
ATOM     39  C   UNL     1       0.661  -1.992  -1.128  0.00  0.00    +0.045 A 
ENDBRANCH  33  34
ENDBRANCH  32  33
ENDBRANCH  29  32
ENDBRANCH  27  28
ENDBRANCH   2  27
TORSDOF 9
