REMARK  Name = ZINC01095827
REMARK  5 active torsions:
REMARK  status: ('A' for Active; 'I' for Inactive)
REMARK    1  A    between atoms: C_1  and  C_2
REMARK    2  A    between atoms: C_2  and  C_3
REMARK    3  A    between atoms: C_10  and  N_14
REMARK    4  A    between atoms: C_11  and  C_12
REMARK    5  A    between atoms: C_15  and  C_17
REMARK                            x       y       z     vdW  Elec       q    Type
REMARK                         _______ _______ _______ _____ _____    ______ ____
ROOT
ATOM      1  N   UNL     1       2.342   3.289  -0.003  0.00  0.00    -0.272 N 
ATOM      2  C   UNL     1       1.635   4.436   0.009  0.00  0.00    +0.284 C 
ATOM      3  O   UNL     1       0.419   4.401   0.021  0.00  0.00    -0.266 OA
ATOM      4  H   UNL     1       3.312   3.317  -0.013  0.00  0.00    +0.156 HD
ENDROOT
BRANCH   2   5
ATOM      5  C   UNL     1       2.334   5.732   0.009  0.00  0.00    +0.194 A 
ATOM      6  C   UNL     1       1.598   6.869   0.021  0.00  0.00    +0.060 A 
ATOM      7  C   UNL     1       2.283   8.164   0.021  0.00  0.00    -0.007 A 
ATOM      8  C   UNL     1       1.585   9.371   0.035  0.00  0.00    +0.009 A 
ATOM      9  C   UNL     1       2.284  10.559   0.035  0.00  0.00    +0.001 A 
ATOM     10  C   UNL     1       3.672  10.565   0.021  0.00  0.00    +0.001 A 
ATOM     11  C   UNL     1       4.382   9.382   0.008  0.00  0.00    +0.015 A 
ATOM     12  C   UNL     1       3.697   8.171   0.008  0.00  0.00    +0.067 A 
ATOM     13  C   UNL     1       4.398   6.878  -0.005  0.00  0.00    +0.345 A 
ATOM     14  O   UNL     1       5.614   6.838  -0.017  0.00  0.00    -0.245 OA
ATOM     15  O   UNL     1       3.681   5.741   0.001  0.00  0.00    -0.417 OA
ENDBRANCH   2   5
BRANCH   1  22
ATOM     16  C   UNL     1      -0.659  -2.341  -0.383  0.00  0.00    -0.006 C 
ATOM     17  C   UNL     1       0.591  -2.663   0.441  0.00  0.00    +0.008 C 
ATOM     18  C   UNL     1       1.758  -1.789  -0.022  0.00  0.00    +0.037 C 
ATOM     19  C   UNL     1       1.313  -0.331  -0.012  0.00  0.00    -0.018 A 
ATOM     20  C   UNL     1       0.002  -0.004   0.002  0.00  0.00    -0.004 A 
ATOM     21  S   UNL     1      -0.022   1.766   0.012  0.00  0.00    -0.077 S 
ATOM     22  C   UNL     1       1.684   2.069  -0.003  0.00  0.00    +0.090 A 
ATOM     23  C   UNL     1       2.231   0.794  -0.015  0.00  0.00    +0.084 A 
ATOM     24  C   UNL     1      -1.163  -0.945   0.007  0.00  0.00    +0.046 C 
BRANCH  16  26
ATOM     25  C   UNL     1      -2.947  -3.130  -1.007  0.00  0.00    +0.004 C 
ATOM     26  C   UNL     1      -1.746  -3.379  -0.092  0.00  0.00    +0.000 C 
ENDBRANCH  16  26
BRANCH  23  27
ATOM     27  C   UNL     1       3.650   0.595  -0.029  0.00  0.00    +0.102 C 
ATOM     28  N   UNL     1       4.774   0.437  -0.040  0.00  0.00    -0.191 NA
ENDBRANCH  23  27
ENDBRANCH   1  22
TORSDOF 4
