REMARK  Name = ZINC39325237
REMARK  6 active torsions:
REMARK  status: ('A' for Active; 'I' for Inactive)
REMARK    1  A    between atoms: C_4  and  C_7
REMARK    2  A    between atoms: C_7  and  N_8
REMARK    3  A    between atoms: N_8  and  C_9
REMARK    4  A    between atoms: N_8  and  S_25
REMARK    5  A    between atoms: C_9  and  C_10
REMARK    6  A    between atoms: S_25  and  C_28
REMARK                            x       y       z     vdW  Elec       q    Type
REMARK                         _______ _______ _______ _____ _____    ______ ____
ROOT
ATOM      1  N   UNL     1       4.443  -0.805   1.824  0.00  0.00    -0.171 NA
ENDROOT
BRANCH   1   2
ATOM      2  S   UNL     1       4.892   0.485   2.760  0.00  0.00    +0.063 S 
ATOM      3  O   UNL     1       5.864   0.003   3.677  0.00  0.00    -0.153 OA
ATOM      4  O   UNL     1       5.152   1.562   1.870  0.00  0.00    -0.153 OA
BRANCH   2   5
ATOM      5  C   UNL     1       3.486   0.950   3.715  0.00  0.00    +0.134 A 
ATOM      6  C   UNL     1       3.490   0.769   5.056  0.00  0.00    +0.031 A 
ATOM      7  C   UNL     1       2.396   1.126   5.844  0.00  0.00    +0.004 A 
ATOM      8  C   UNL     1       1.281   1.669   5.301  0.00  0.00    +0.031 A 
ATOM      9  C   UNL     1       1.205   1.889   3.899  0.00  0.00    +0.102 A 
ATOM     10  C   UNL     1       2.352   1.521   3.076  0.00  0.00    +0.126 A 
ATOM     11  N   UNL     1       2.171   1.776   1.780  0.00  0.00    -0.189 NA
ATOM     12  S   UNL     1       0.700   2.417   1.665  0.00  0.00    +0.117 S 
ATOM     13  N   UNL     1       0.199   2.407   3.194  0.00  0.00    -0.191 NA
ENDBRANCH   2   5
ENDBRANCH   1   2
BRANCH   1  14
ATOM     14  C   UNL     1       4.594  -0.742   0.369  0.00  0.00    +0.144 C 
BRANCH  14  18
ATOM     15  C   UNL     1       0.773  -0.111  -1.435  0.00  0.00    +0.000 A 
ATOM     16  C   UNL     1       1.633   0.956  -1.245  0.00  0.00    +0.000 A 
ATOM     17  C   UNL     1       2.869   0.751  -0.661  0.00  0.00    +0.005 A 
ATOM     18  C   UNL     1       3.245  -0.519  -0.267  0.00  0.00    -0.032 A 
ATOM     19  C   UNL     1       2.386  -1.585  -0.456  0.00  0.00    +0.005 A 
ATOM     20  C   UNL     1       1.150  -1.381  -1.041  0.00  0.00    +0.000 A 
ENDBRANCH  14  18
ENDBRANCH   1  14
BRANCH   1  21
ATOM     21  C   UNL     1       3.895  -2.010   2.453  0.00  0.00    +0.126 C 
BRANCH  21  22
ATOM     22  C   UNL     1       4.963  -3.105   2.473  0.00  0.00    +0.114 C 
ATOM     23  C   UNL     1       4.369  -4.322   3.154  0.00  0.00    -0.003 C 
ATOM     24  C   UNL     1       5.008  -4.796   4.257  0.00  0.00    -0.003 A 
ATOM     25  C   UNL     1       4.497  -5.967   4.972  0.00  0.00    +0.059 A 
ATOM     26  C   UNL     1       5.159  -6.415   6.071  0.00  0.00    +0.167 A 
ATOM     27  C   UNL     1       6.328  -5.772   6.533  0.00  0.00    +0.168 A 
ATOM     28  C   UNL     1       6.850  -4.667   5.894  0.00  0.00    +0.073 A 
ATOM     29  C   UNL     1       6.231  -4.138   4.754  0.00  0.00    +0.044 A 
ATOM     30  N   UNL     1       6.752  -3.067   4.150  0.00  0.00    -0.284 N 
ATOM     31  C   UNL     1       6.220  -2.517   3.074  0.00  0.00    +0.225 C 
ATOM     32  O   UNL     1       6.739  -1.540   2.568  0.00  0.00    -0.275 OA
ATOM     33  O   UNL     1       6.769  -6.435   7.641  0.00  0.00    -0.453 OA
ATOM     34  C   UNL     1       5.650  -7.215   8.097  0.00  0.00    +0.466 C 
ATOM     35  O   UNL     1       4.890  -7.467   6.901  0.00  0.00    -0.453 OA
ATOM     36  H   UNL     1       7.558  -2.675   4.519  0.00  0.00    +0.155 HD
ENDBRANCH  21  22
ENDBRANCH   1  21
TORSDOF 6
