REMARK  Name = ZINC14655648
REMARK  12 active torsions:
REMARK  status: ('A' for Active; 'I' for Inactive)
REMARK    1  A    between atoms: C_1  and  C_2
REMARK    2  A    between atoms: C_2  and  O_3
REMARK    3  A    between atoms: O_3  and  C_4
REMARK    4  A    between atoms: C_9  and  C_10
REMARK    5  A    between atoms: N_12  and  C_13
REMARK    6  A    between atoms: C_13  and  N_15
REMARK    7  A    between atoms: N_15  and  N_16
REMARK    8  A    between atoms: C_17  and  C_19
REMARK    9  A    between atoms: C_19  and  O_20
REMARK   10  A    between atoms: O_20  and  C_21
REMARK   11  A    between atoms: C_23  and  C_28
REMARK   12  A    between atoms: C_25  and  C_27
REMARK                            x       y       z     vdW  Elec       q    Type
REMARK                         _______ _______ _______ _____ _____    ______ ____
ROOT
ATOM      1  C   UNL     1       6.448   7.351  -0.023  0.00  0.00    +0.153 C 
ATOM      2  S   UNL     1       8.022   8.026  -0.035  0.00  0.00    -0.017 S 
ENDROOT
BRANCH   1   5
ATOM      3  C   UNL     1       5.529   9.497  -0.003  0.00  0.00    +0.253 C 
ATOM      4  O   UNL     1       6.646   9.976  -0.012  0.00  0.00    -0.270 OA
ATOM      5  N   UNL     1       5.369   8.159  -0.008  0.00  0.00    -0.263 N 
ATOM      6  H   UNL     1       4.477   7.777  -0.002  0.00  0.00    +0.157 HD
BRANCH   3  12
ATOM      7  C   UNL     1       4.510  11.773   0.018  0.00  0.00    +0.133 A 
ATOM      8  C   UNL     1       3.392  12.595   0.033  0.00  0.00    +0.047 A 
ATOM      9  C   UNL     1       2.127  12.042   0.043  0.00  0.00    +0.019 A 
ATOM     10  C   UNL     1       1.962  10.666   0.037  0.00  0.00    +0.019 A 
ATOM     11  C   UNL     1       3.062   9.834   0.017  0.00  0.00    +0.032 A 
ATOM     12  C   UNL     1       4.348  10.380   0.013  0.00  0.00    +0.080 A 
ATOM     13 BR   UNL     1       0.222   9.926   0.050  0.00  0.00    -0.050 Br
BRANCH   7  14
ATOM     14  O   UNL     1       5.753  12.314   0.009  0.00  0.00    -0.491 OA
BRANCH  14  16
ATOM     15  C   UNL     1       7.311  14.162   0.004  0.00  0.00    +0.048 C 
ATOM     16  C   UNL     1       5.840  13.741   0.015  0.00  0.00    +0.226 C 
ENDBRANCH  14  16
ENDBRANCH   7  14
ENDBRANCH   3  12
ENDBRANCH   1   5
BRANCH   1  17
ATOM     17  N   UNL     1       6.288   6.013  -0.028  0.00  0.00    -0.245 N 
ATOM     18  H   UNL     1       7.065   5.432  -0.039  0.00  0.00    +0.172 HD
BRANCH  17  19
ATOM     19  N   UNL     1       5.000   5.461  -0.018  0.00  0.00    -0.232 N 
ATOM     20  C   UNL     1       4.841   4.123  -0.024  0.00  0.00    +0.267 C 
ATOM     21  O   UNL     1       5.812   3.397  -0.037  0.00  0.00    -0.271 OA
ATOM     22  H   UNL     1       4.224   6.043  -0.008  0.00  0.00    +0.173 HD
BRANCH  20  23
ATOM     23  C   UNL     1       3.456   3.530  -0.013  0.00  0.00    +0.326 C 
BRANCH  23  24
ATOM     24  O   UNL     1       3.548   2.104  -0.021  0.00  0.00    -0.483 OA
BRANCH  24  25
ATOM     25  C   UNL     1       2.380   1.409  -0.013  0.00  0.00    +0.122 A 
ATOM     26  C   UNL     1       1.169   2.087   0.002  0.00  0.00    +0.049 A 
ATOM     27  C   UNL     1      -0.017   1.378   0.010  0.00  0.00    -0.047 A 
ATOM     28  C   UNL     1       0.002  -0.004   0.002  0.00  0.00    +0.007 A 
ATOM     29  C   UNL     1       1.207  -0.681  -0.013  0.00  0.00    -0.047 A 
ATOM     30  C   UNL     1       2.396   0.022  -0.020  0.00  0.00    +0.049 A 
ATOM     31  C   UNL     1       1.224  -2.188  -0.020  0.00  0.00    +0.044 C 
ATOM     32  C   UNL     1      -1.332   2.114   0.020  0.00  0.00    +0.044 C 
ENDBRANCH  24  25
ENDBRANCH  23  24
ENDBRANCH  20  23
ENDBRANCH  17  19
ENDBRANCH   1  17
TORSDOF 9
