REMARK  Name = ZINC04321056
REMARK  6 active torsions:
REMARK  status: ('A' for Active; 'I' for Inactive)
REMARK    1  A    between atoms: C_1  and  C_2
REMARK    2  A    between atoms: C_9  and  C_13
REMARK    3  A    between atoms: C_9  and  O_17
REMARK    4  A    between atoms: C_18  and  C_20
REMARK    5  A    between atoms: C_23  and  O_26
REMARK    6  A    between atoms: O_26  and  C_27
REMARK                            x       y       z     vdW  Elec       q    Type
REMARK                         _______ _______ _______ _____ _____    ______ ____
ROOT
ATOM      1  C   UNL     1       1.726   5.882  -2.564  0.00  0.00    +0.007 C 
ATOM      2  C   UNL     1       1.410   5.228  -1.217  0.00  0.00    -0.013 C 
ATOM      3  C   UNL     1       2.421   5.708  -0.178  0.00  0.00    +0.009 C 
ATOM      4  C   UNL     1       2.072   5.138   1.206  0.00  0.00    +0.053 C 
ATOM      5  C   UNL     1       1.913   3.643   1.030  0.00  0.00    +0.045 C 
ATOM      6  N   UNL     1       2.457   2.703   1.670  0.00  0.00    -0.183 NA
ATOM      7  N   UNL     1       2.174   1.428   1.175  0.00  0.00    -0.148 N 
ATOM      8  C   UNL     1       1.314   1.565  -0.015  0.00  0.00    +0.259 C 
ATOM      9  C   UNL     1       1.014   3.068  -0.057  0.00  0.00    +0.096 C 
ATOM     10  C   UNL     1       1.458   3.704  -1.375  0.00  0.00    +0.017 C 
ATOM     11  C   UNL     1       2.614   0.267   1.698  0.00  0.00    +0.269 C 
ATOM     12  O   UNL     1       2.387  -0.782   1.127  0.00  0.00    -0.268 OA
ENDROOT
BRANCH  11  13
ATOM     13  C   UNL     1       3.372   0.268   2.965  0.00  0.00    +0.039 A 
ATOM     14  C   UNL     1       3.518   1.451   3.693  0.00  0.00    +0.016 A 
ATOM     15  C   UNL     1       4.220   1.447   4.877  0.00  0.00    +0.046 A 
ATOM     16  C   UNL     1       4.794   0.269   5.343  0.00  0.00    +0.120 A 
ATOM     17  C   UNL     1       4.655  -0.909   4.619  0.00  0.00    +0.046 A 
ATOM     18  C   UNL     1       3.949  -0.914   3.436  0.00  0.00    +0.016 A 
BRANCH  16  19
ATOM     19  O   UNL     1       5.490   0.270   6.507  0.00  0.00    -0.495 OA
ATOM     20  C   UNL     1       5.593   1.515   7.201  0.00  0.00    +0.277 C 
ENDBRANCH  16  19
ENDBRANCH  11  13
BRANCH   8  21
ATOM     21  C   UNL     1       2.062   1.125  -1.275  0.00  0.00    +0.438 C 
ATOM     22  F   UNL     1       1.308   1.458  -2.405  0.00  0.00    -0.166 F 
ATOM     23  F   UNL     1       3.300   1.773  -1.334  0.00  0.00    -0.166 F 
ATOM     24  F   UNL     1       2.262  -0.260  -1.239  0.00  0.00    -0.166 F 
ENDBRANCH   8  21
BRANCH   8  25
ATOM     25  O   UNL     1       0.109   0.813   0.143  0.00  0.00    -0.363 OA
ATOM     26  H   UNL     1       0.250  -0.137   0.250  0.00  0.00    +0.212 HD
ENDBRANCH   8  25
TORSDOF 4
