REMARK  Name = ZINC08868863
REMARK  4 active torsions:
REMARK  status: ('A' for Active; 'I' for Inactive)
REMARK    1  A    between atoms: C_4  and  N_7
REMARK    2  A    between atoms: C_16  and  C_26
REMARK    3  A    between atoms: C_16  and  C_30
REMARK    4  A    between atoms: C_17  and  C_19
REMARK                            x       y       z     vdW  Elec       q    Type
REMARK                         _______ _______ _______ _____ _____    ______ ____
ROOT
ATOM      1  N   UNL     1      -1.275   3.906   0.681  0.00  0.00    -0.250 N 
ATOM      2  C   UNL     1      -0.255   4.033  -0.231  0.00  0.00    +0.124 A 
ATOM      3  C   UNL     1       0.765   3.129  -0.233  0.00  0.00    +0.098 A 
ATOM      4  C   UNL     1       0.754   2.086   0.710  0.00  0.00    +0.262 A 
ATOM      5  O   UNL     1       1.658   1.268   0.732  0.00  0.00    -0.267 OA
ATOM      6  N   UNL     1      -0.264   1.997   1.589  0.00  0.00    -0.274 N 
ATOM      7  H   UNL     1      -0.273   1.259   2.262  0.00  0.00    +0.173 HD
ATOM      8  C   UNL     1      -1.268   2.893   1.568  0.00  0.00    +0.335 A 
ATOM      9  O   UNL     1      -2.180   2.789   2.366  0.00  0.00    -0.246 OA
ATOM     10  C   UNL     1       1.884   3.238  -1.229  0.00  0.00    +0.264 C 
ATOM     11  C   UNL     1       0.916   5.380  -1.804  0.00  0.00    +0.106 C 
ATOM     12  N   UNL     1      -0.253   5.063  -1.140  0.00  0.00    -0.286 N 
ATOM     13  H   UNL     1      -1.065   5.564  -1.315  0.00  0.00    +0.155 HD
ATOM     14  N   UNL     1       1.986   4.583  -1.898  0.00  0.00    -0.348 N 
ATOM     15  H   UNL     1       2.833   4.874  -2.400  0.00  0.00    +0.162 HD
ENDROOT
BRANCH  11  16
ATOM     16  C   UNL     1       1.033   6.694  -2.475  0.00  0.00    +0.013 A 
ATOM     17  C   UNL     1      -0.031   7.596  -2.439  0.00  0.00    +0.012 A 
ATOM     18  C   UNL     1       0.085   8.821  -3.062  0.00  0.00    +0.020 A 
ATOM     19  C   UNL     1       1.251   9.152  -3.731  0.00  0.00    +0.041 A 
ATOM     20  C   UNL     1       2.308   8.259  -3.775  0.00  0.00    +0.020 A 
ATOM     21  C   UNL     1       2.205   7.033  -3.151  0.00  0.00    +0.012 A 
ATOM     22 CL   UNL     1       1.388  10.693  -4.519  0.00  0.00    -0.084 Cl
ENDBRANCH  11  16
BRANCH   1  26
ATOM     23  C   UNL     1      -4.410   6.653   0.689  0.00  0.00    +0.000 A 
ATOM     24  C   UNL     1      -3.278   6.895   1.446  0.00  0.00    +0.002 A 
ATOM     25  C   UNL     1      -2.238   5.987   1.445  0.00  0.00    +0.026 A 
ATOM     26  C   UNL     1      -2.329   4.829   0.684  0.00  0.00    +0.053 A 
ATOM     27  C   UNL     1      -3.464   4.592  -0.080  0.00  0.00    +0.026 A 
ATOM     28  C   UNL     1      -4.504   5.501  -0.071  0.00  0.00    +0.002 A 
ENDBRANCH   1  26
BRANCH  10  29
ATOM     29  C   UNL     1       3.216   2.994  -0.516  0.00  0.00    +0.426 C 
ATOM     30  F   UNL     1       3.366   1.626  -0.264  0.00  0.00    -0.167 F 
ATOM     31  F   UNL     1       4.266   3.437  -1.327  0.00  0.00    -0.167 F 
ATOM     32  F   UNL     1       3.232   3.696   0.694  0.00  0.00    -0.167 F 
ENDBRANCH  10  29
BRANCH  10  33
ATOM     33  C   UNL     1       1.695   2.175  -2.313  0.00  0.00    +0.426 C 
ATOM     34  F   UNL     1       0.470   2.377  -2.957  0.00  0.00    -0.167 F 
ATOM     35  F   UNL     1       2.734   2.270  -3.246  0.00  0.00    -0.167 F 
ATOM     36  F   UNL     1       1.710   0.904  -1.727  0.00  0.00    -0.167 F 
ENDBRANCH  10  33
TORSDOF 4
