REMARK  Name = ZINC08831578
REMARK  11 active torsions:
REMARK  status: ('A' for Active; 'I' for Inactive)
REMARK    1  A    between atoms: C_1  and  C_2
REMARK    2  A    between atoms: C_3  and  C_11
REMARK    3  A    between atoms: C_7  and  N_8
REMARK    4  A    between atoms: N_13  and  C_14
REMARK    5  A    between atoms: C_14  and  N_16
REMARK    6  A    between atoms: N_16  and  C_17
REMARK    7  A    between atoms: C_18  and  C_31
REMARK    8  A    between atoms: C_23  and  C_27
REMARK    9  A    between atoms: C_27  and  C_28
REMARK   10  A    between atoms: C_27  and  C_29
REMARK   11  A    between atoms: C_27  and  C_30
REMARK                            x       y       z     vdW  Elec       q    Type
REMARK                         _______ _______ _______ _____ _____    ______ ____
ROOT
ATOM      1  N   UNL     1      -1.626   4.266   7.663  0.00  0.00    -0.290 N 
ATOM      2  H   UNL     1      -2.118   5.006   8.051  0.00  0.00    +0.154 HD
ENDROOT
BRANCH   1   3
ATOM      3  C   UNL     1      -1.461   4.187   6.288  0.00  0.00    +0.089 A 
ATOM      4  C   UNL     1      -1.920   5.061   5.314  0.00  0.00    +0.084 A 
ATOM      5  C   UNL     1      -1.609   4.749   3.930  0.00  0.00    -0.018 A 
ATOM      6  C   UNL     1      -0.892   3.619   3.743  0.00  0.00    -0.004 A 
ATOM      7  S   UNL     1      -0.631   2.974   5.371  0.00  0.00    -0.077 S 
ATOM      8  C   UNL     1      -0.428   3.049   2.438  0.00  0.00    +0.047 C 
ATOM      9  C   UNL     1      -1.205   3.737   1.306  0.00  0.00    -0.000 C 
ATOM     10  C   UNL     1      -1.179   5.251   1.536  0.00  0.00    +0.009 C 
ATOM     11  C   UNL     1      -2.039   5.609   2.748  0.00  0.00    +0.037 C 
BRANCH   9  12
ATOM     12  C   UNL     1      -0.550   3.412  -0.038  0.00  0.00    -0.035 C 
ATOM     13  C   UNL     1      -0.572   1.898  -0.262  0.00  0.00    +0.011 C 
ATOM     14  C   UNL     1       0.898   3.906  -0.033  0.00  0.00    +0.011 C 
ATOM     15  C   UNL     1      -1.322   4.105  -1.163  0.00  0.00    +0.011 C 
ENDBRANCH   9  12
BRANCH   4  16
ATOM     16  C   UNL     1      -2.674   6.229   5.659  0.00  0.00    +0.102 C 
ATOM     17  N   UNL     1      -3.273   7.155   5.934  0.00  0.00    -0.191 NA
ENDBRANCH   4  16
ENDBRANCH   1   3
BRANCH   1  18
ATOM     18  C   UNL     1      -1.103   3.313   8.460  0.00  0.00    +0.141 C 
ATOM     19  S   UNL     1      -0.235   2.006   7.775  0.00  0.00    -0.018 S 
BRANCH  18  22
ATOM     20  C   UNL     1      -0.741   2.436  10.593  0.00  0.00    +0.250 C 
ATOM     21  O   UNL     1      -0.124   1.508  10.107  0.00  0.00    -0.270 OA
ATOM     22  N   UNL     1      -1.264   3.389   9.796  0.00  0.00    -0.264 N 
ATOM     23  H   UNL     1      -1.756   4.129  10.184  0.00  0.00    +0.157 HD
BRANCH  20  26
ATOM     24  C   UNL     1       0.153   0.252  12.268  0.00  0.00    +0.047 C 
ATOM     25  C   UNL     1      -0.489   1.472  12.876  0.00  0.00    -0.008 A 
ATOM     26  C   UNL     1      -0.916   2.519  12.058  0.00  0.00    +0.042 A 
ATOM     27  C   UNL     1      -1.505   3.648  12.630  0.00  0.00    +0.013 A 
ATOM     28  C   UNL     1      -1.671   3.718  13.998  0.00  0.00    +0.003 A 
ATOM     29  C   UNL     1      -1.245   2.676  14.803  0.00  0.00    +0.033 A 
ATOM     30  C   UNL     1      -0.656   1.556  14.242  0.00  0.00    +0.130 A 
BRANCH  30  31
ATOM     31  N   UNL     1      -0.205   0.446  15.112  0.00  0.00    +0.057 N 
ATOM     32  O   UNL     1      -0.463   0.461  16.302  0.00  0.00    -0.126 OA
ATOM     33  O   UNL     1       0.425  -0.482  14.636  0.00  0.00    -0.126 OA
ENDBRANCH  30  31
ENDBRANCH  20  26
ENDBRANCH  18  22
ENDBRANCH   1  18
TORSDOF 7
