REMARK  Name = ZINC33026616
REMARK  6 active torsions:
REMARK  status: ('A' for Active; 'I' for Inactive)
REMARK    1  A    between atoms: C_4  and  N_11
REMARK    2  A    between atoms: C_5  and  C_7
REMARK    3  A    between atoms: N_14  and  C_15
REMARK    4  A    between atoms: C_20  and  S_21
REMARK    5  A    between atoms: S_21  and  C_22
REMARK    6  A    between atoms: C_22  and  C_23
REMARK                            x       y       z     vdW  Elec       q    Type
REMARK                         _______ _______ _______ _____ _____    ______ ____
ROOT
ATOM      1  C   UNL     1      -5.570  -3.672   2.617  0.00  0.00    +0.048 A 
ATOM      2  C   UNL     1      -6.769  -4.354   2.486  0.00  0.00    +0.024 A 
ATOM      3  C   UNL     1      -7.125  -4.901   1.267  0.00  0.00    +0.002 A 
ATOM      4  C   UNL     1      -6.288  -4.769   0.175  0.00  0.00    +0.001 A 
ATOM      5  C   UNL     1      -5.092  -4.087   0.294  0.00  0.00    +0.016 A 
ATOM      6  C   UNL     1      -4.724  -3.539   1.515  0.00  0.00    +0.029 A 
ENDROOT
BRANCH   1  10
ATOM      7  N   UNL     1      -5.453  -3.023   6.171  0.00  0.00    -0.269 N 
ATOM      8  C   UNL     1      -5.710  -3.626   4.993  0.00  0.00    +0.308 C 
ATOM      9  O   UNL     1      -6.396  -4.630   4.961  0.00  0.00    -0.252 OA
ATOM     10  N   UNL     1      -5.207  -3.116   3.852  0.00  0.00    -0.268 N 
ATOM     11  H   UNL     1      -4.912  -2.066   6.192  0.00  0.00    +0.156 HD
ATOM     12  H   UNL     1      -4.513  -2.264   3.889  0.00  0.00    +0.156 HD
BRANCH   7  16
ATOM     13  C   UNL     1      -6.709  -4.786   9.731  0.00  0.00    +0.001 A 
ATOM     14  C   UNL     1      -6.488  -5.570   8.613  0.00  0.00    +0.002 A 
ATOM     15  C   UNL     1      -6.076  -4.988   7.430  0.00  0.00    +0.024 A 
ATOM     16  C   UNL     1      -5.874  -3.615   7.367  0.00  0.00    +0.046 A 
ATOM     17  C   UNL     1      -6.097  -2.831   8.491  0.00  0.00    +0.076 A 
ATOM     18  C   UNL     1      -6.514  -3.419   9.670  0.00  0.00    +0.014 A 
BRANCH  17  19
ATOM     19  C   UNL     1      -5.886  -1.341   8.425  0.00  0.00    +0.419 C 
ATOM     20  F   UNL     1      -6.172  -0.773   9.671  0.00  0.00    -0.166 F 
ATOM     21  F   UNL     1      -4.555  -1.073   8.085  0.00  0.00    -0.166 F 
ATOM     22  F   UNL     1      -6.734  -0.792   7.457  0.00  0.00    -0.166 F 
ENDBRANCH  17  19
ENDBRANCH   7  16
ENDBRANCH   1  10
BRANCH   6  23
ATOM     23  S   UNL     1      -3.198  -2.673   1.671  0.00  0.00    -0.117 S 
BRANCH  23  24
ATOM     24  C   UNL     1      -2.469  -2.766   0.013  0.00  0.00    +0.130 C 
BRANCH  24  25
ATOM     25  C   UNL     1      -1.141  -2.054   0.007  0.00  0.00    +0.059 A 
ATOM     26  C   UNL     1       0.033  -2.782  -0.007  0.00  0.00    +0.094 A 
ATOM     27  C   UNL     1       1.254  -2.098  -0.011  0.00  0.00    +0.259 A 
ATOM     28  O   UNL     1       2.309  -2.712  -0.023  0.00  0.00    -0.267 OA
ATOM     29  N   UNL     1       1.247  -0.748  -0.001  0.00  0.00    -0.268 N 
ATOM     30  C   UNL     1       2.427  -0.068  -0.005  0.00  0.00    +0.096 A 
ATOM     31  C   UNL     1       2.446   1.284   0.005  0.00  0.00    +0.018 A 
ATOM     32  C   UNL     1       1.243   2.005   0.018  0.00  0.00    +0.005 A 
ATOM     33  C   UNL     1       0.057   1.334   0.024  0.00  0.00    +0.047 A 
ATOM     34  C   UNL     1       0.058  -0.073   0.013  0.00  0.00    +0.140 A 
ATOM     35  N   UNL     1      -1.100  -0.730   0.019  0.00  0.00    -0.233 NA
ENDBRANCH  24  25
ENDBRANCH  23  24
ENDBRANCH   6  23
TORSDOF 6
