REMARK  Name = ZINC39940725
REMARK  6 active torsions:
REMARK  status: ('A' for Active; 'I' for Inactive)
REMARK    1  A    between atoms: C_9  and  C_12
REMARK    2  A    between atoms: C_12  and  N_13
REMARK    3  A    between atoms: C_14  and  C_16
REMARK    4  A    between atoms: C_19  and  N_22
REMARK    5  A    between atoms: N_22  and  S_23
REMARK    6  A    between atoms: S_23  and  C_26
REMARK                            x       y       z     vdW  Elec       q    Type
REMARK                         _______ _______ _______ _____ _____    ______ ____
ROOT
ATOM      1  C   UNL     1       8.418  -1.806  -1.333  0.00  0.00    +0.037 A 
ATOM      2  C   UNL     1       8.115  -0.772  -2.224  0.00  0.00    +0.015 A 
ATOM      3  C   UNL     1       9.128  -0.117  -2.886  0.00  0.00    +0.025 A 
ATOM      4  C   UNL     1      10.453  -0.484  -2.670  0.00  0.00    +0.048 A 
ATOM      5  C   UNL     1      10.758  -1.513  -1.784  0.00  0.00    +0.025 A 
ATOM      6  C   UNL     1       9.750  -2.167  -1.114  0.00  0.00    +0.015 A 
ENDROOT
BRANCH   1   8
ATOM      7  N   UNL     1       6.050  -2.159  -0.834  0.00  0.00    -0.308 N 
ATOM      8  C   UNL     1       7.334  -2.509  -0.621  0.00  0.00    +0.244 C 
ATOM      9  O   UNL     1       7.599  -3.405   0.157  0.00  0.00    -0.270 OA
ATOM     10  H   UNL     1       5.838  -1.445  -1.455  0.00  0.00    +0.149 HD
BRANCH   7  11
ATOM     11  C   UNL     1       4.973  -2.858  -0.127  0.00  0.00    +0.152 C 
BRANCH  11  20
ATOM     12  C   UNL     1      -0.135   0.944  -0.286  0.00  0.00    +0.004 A 
ATOM     13  C   UNL     1       1.019   1.706  -0.285  0.00  0.00    +0.004 A 
ATOM     14  C   UNL     1       2.256   1.091  -0.254  0.00  0.00    +0.049 A 
ATOM     15  C   UNL     1       2.343  -0.293  -0.226  0.00  0.00    +0.163 A 
ATOM     16  C   UNL     1       1.184  -1.059  -0.230  0.00  0.00    +0.162 A 
ATOM     17  C   UNL     1      -0.055  -0.435  -0.259  0.00  0.00    +0.049 A 
ATOM     18  O   UNL     1       1.247  -2.418  -0.211  0.00  0.00    -0.485 OA
ATOM     19  C   UNL     1       2.492  -2.999   0.193  0.00  0.00    +0.275 C 
ATOM     20  C   UNL     1       3.624  -2.271  -0.545  0.00  0.00    +0.228 C 
ATOM     21  O   UNL     1       3.569  -0.884  -0.193  0.00  0.00    -0.480 OA
ENDBRANCH  11  20
ENDBRANCH   7  11
ENDBRANCH   1   8
BRANCH   4  22
ATOM     22  N   UNL     1      11.475   0.179  -3.341  0.00  0.00    -0.216 N 
ATOM     23  H   UNL     1      11.402   0.345  -4.294  0.00  0.00    +0.174 HD
BRANCH  22  24
ATOM     24  S   UNL     1      12.817   0.686  -2.514  0.00  0.00    +0.072 S 
ATOM     25  O   UNL     1      13.308  -0.444  -1.806  0.00  0.00    -0.150 OA
ATOM     26  O   UNL     1      13.615   1.411  -3.439  0.00  0.00    -0.150 OA
BRANCH  24  27
ATOM     27  C   UNL     1      12.275   1.843  -1.300  0.00  0.00    +0.110 A 
ATOM     28  C   UNL     1      12.100   3.239  -1.683  0.00  0.00    +0.031 A 
ATOM     29  C   UNL     1      11.687   4.176  -0.803  0.00  0.00    +0.027 A 
ATOM     30  C   UNL     1      11.403   3.793   0.578  0.00  0.00    +0.056 A 
ATOM     31  N   UNL     1      11.000   4.429   1.649  0.00  0.00    -0.268 N 
ATOM     32  C   UNL     1      10.909   3.526   2.682  0.00  0.00    +0.308 C 
ATOM     33  O   UNL     1      10.562   3.793   3.813  0.00  0.00    -0.252 OA
ATOM     34  N   UNL     1      11.269   2.275   2.240  0.00  0.00    -0.267 N 
ATOM     35  C   UNL     1      11.582   2.359   0.972  0.00  0.00    +0.058 A 
ATOM     36  C   UNL     1      12.028   1.409  -0.045  0.00  0.00    +0.054 A 
ATOM     37  H   UNL     1      11.288   1.467   2.777  0.00  0.00    +0.156 HD
ATOM     38  H   UNL     1      10.800   5.377   1.705  0.00  0.00    +0.156 HD
ENDBRANCH  24  27
ENDBRANCH  22  24
ENDBRANCH   4  22
TORSDOF 6
