REMARK  Name = ZINC21148512
REMARK  12 active torsions:
REMARK  status: ('A' for Active; 'I' for Inactive)
REMARK    1  A    between atoms: C_1  and  C_2
REMARK    2  A    between atoms: C_2  and  C_3
REMARK    3  A    between atoms: C_3  and  C_4
REMARK    4  A    between atoms: C_4  and  N_5
REMARK    5  A    between atoms: N_5  and  C_6
REMARK    6  A    between atoms: N_5  and  C_30
REMARK    7  A    between atoms: C_6  and  C_7
REMARK    8  A    between atoms: C_7  and  C_8
REMARK    9  A    between atoms: C_8  and  N_9
REMARK   10  A    between atoms: C_10  and  C_12
REMARK   11  A    between atoms: C_25  and  C_29
REMARK   12  A    between atoms: C_30  and  C_31
REMARK                            x       y       z     vdW  Elec       q    Type
REMARK                         _______ _______ _______ _____ _____    ______ ____
ROOT
ATOM      1  N   UNL     1       6.072   1.976   3.622  0.00  0.00    -0.315 N 
ATOM      2  C   UNL     1       6.230   2.027   2.285  0.00  0.00    +0.218 C 
ATOM      3  O   UNL     1       7.132   2.683   1.806  0.00  0.00    -0.275 OA
ATOM      4  H   UNL     1       5.254   1.381   4.056  0.00  0.00    +0.149 HD
ENDROOT
BRANCH   2   5
ATOM      5  C   UNL     1       5.288   1.271   1.384  0.00  0.00    +0.092 C 
ATOM      6  C   UNL     1       5.683   1.501  -0.077  0.00  0.00    +0.016 C 
ATOM      7  C   UNL     1       4.686   0.778  -0.987  0.00  0.00    +0.020 C 
ATOM      8  C   UNL     1       3.273   1.291  -0.697  0.00  0.00    +0.107 C 
ATOM      9  N   UNL     1       2.943   1.048   0.713  0.00  0.00    -0.307 N 
ATOM     10  C   UNL     1       3.859   1.770   1.606  0.00  0.00    +0.119 C 
ATOM     11  C   UNL     1       1.626   1.381   0.979  0.00  0.00    +0.184 A 
ATOM     12  N   UNL     1       0.622   0.596   1.265  0.00  0.00    -0.139 NA
ATOM     13  N   UNL     1      -0.651   1.105   1.506  0.00  0.00    -0.170 N 
ATOM     14  C   UNL     1      -1.777   0.396   1.813  0.00  0.00    +0.275 A 
ATOM     15  O   UNL     1      -1.728  -0.822   1.901  0.00  0.00    -0.266 OA
ATOM     16  C   UNL     1      -2.984   1.064   2.021  0.00  0.00    +0.095 A 
ATOM     17  C   UNL     1      -3.030   2.438   1.925  0.00  0.00    +0.046 A 
ATOM     18  N   UNL     1      -1.914   3.097   1.624  0.00  0.00    -0.227 NA
ATOM     19  C   UNL     1      -0.787   2.462   1.425  0.00  0.00    +0.200 A 
ATOM     20  S   UNL     1       0.862   2.994   1.017  0.00  0.00    -0.013 S 
ATOM     21  C   UNL     1      -4.322   3.180   2.151  0.00  0.00    +0.066 C 
ENDBRANCH   2   5
BRANCH   1  22
ATOM     22  C   UNL     1       6.987   2.711   4.498  0.00  0.00    +0.102 C 
BRANCH  22  23
ATOM     23  C   UNL     1       6.589   2.485   5.957  0.00  0.00    +0.000 C 
BRANCH  23  24
ATOM     24  C   UNL     1       7.546   3.253   6.872  0.00  0.00    -0.077 C 
BRANCH  24  25
ATOM     25  N   UNL     1       7.163   3.037   8.274  0.00  0.00    +0.382 N 
ATOM     26  H   UNL     1       6.092   3.267   8.371  0.00  0.00    -0.081 HD
BRANCH  25  27
ATOM     27  C   UNL     1       7.360   1.633   8.662  0.00  0.00    -0.078 C 
BRANCH  27  28
ATOM     28  C   UNL     1       6.592   1.349   9.954  0.00  0.00    -0.019 C 
BRANCH  28  30
ATOM     29  C   UNL     1       6.048  -0.390  11.664  0.00  0.00    +0.004 C 
ATOM     30  C   UNL     1       6.816  -0.105  10.371  0.00  0.00    -0.005 C 
ENDBRANCH  28  30
ENDBRANCH  27  28
ENDBRANCH  25  27
BRANCH  25  31
ATOM     31  C   UNL     1       7.903   3.938   9.167  0.00  0.00    -0.043 C 
BRANCH  31  32
ATOM     32  C   UNL     1       7.328   5.328   9.066  0.00  0.00    -0.064 A 
ATOM     33  C   UNL     1       7.909   6.257   8.224  0.00  0.00    +0.002 A 
ATOM     34  C   UNL     1       7.379   7.530   8.128  0.00  0.00    +0.000 A 
ATOM     35  C   UNL     1       6.273   7.877   8.881  0.00  0.00    +0.000 A 
ATOM     36  C   UNL     1       5.695   6.949   9.727  0.00  0.00    +0.000 A 
ATOM     37  C   UNL     1       6.222   5.675   9.820  0.00  0.00    +0.002 A 
ENDBRANCH  31  32
ENDBRANCH  25  31
ENDBRANCH  24  25
ENDBRANCH  23  24
ENDBRANCH  22  23
ENDBRANCH   1  22
TORSDOF 10
