REMARK  Name = ZINC57779684
REMARK  3 active torsions:
REMARK  status: ('A' for Active; 'I' for Inactive)
REMARK    1  A    between atoms: C_1  and  C_2
REMARK    2  A    between atoms: N_7  and  C_9
REMARK    3  A    between atoms: C_12  and  N_15
REMARK                            x       y       z     vdW  Elec       q    Type
REMARK                         _______ _______ _______ _____ _____    ______ ____
ROOT
ATOM      1  C   UNL     1       0.461  -2.770   2.229  0.00  0.00    +0.030 A 
ATOM      2  C   UNL     1      -0.015  -2.208   3.407  0.00  0.00    +0.025 A 
ATOM      3  C   UNL     1      -0.459  -3.023   4.430  0.00  0.00    +0.025 A 
ATOM      4  C   UNL     1      -0.428  -4.403   4.282  0.00  0.00    +0.034 A 
ATOM      5  C   UNL     1       0.049  -4.965   3.104  0.00  0.00    +0.025 A 
ATOM      6  C   UNL     1       0.487  -4.151   2.079  0.00  0.00    +0.025 A 
ENDROOT
BRANCH   4   7
ATOM      7  N   UNL     1      -0.877  -5.229   5.320  0.00  0.00    -0.285 N 
ATOM      8  C   UNL     1      -1.925  -4.831   6.108  0.00  0.00    +0.200 A 
ATOM      9  N   UNL     1      -2.277  -5.579   7.190  0.00  0.00    -0.295 N 
ATOM     10  H   UNL     1      -1.790  -6.390   7.405  0.00  0.00    +0.172 HD
ATOM     11  C   UNL     1      -3.306  -5.179   7.956  0.00  0.00    +0.257 A 
ATOM     12  O   UNL     1      -3.634  -5.837   8.930  0.00  0.00    -0.267 OA
ATOM     13  C   UNL     1      -4.011  -3.990   7.632  0.00  0.00    +0.049 A 
ATOM     14  C   UNL     1      -3.618  -3.284   6.544  0.00  0.00    +0.064 A 
ATOM     15  N   UNL     1      -2.575  -3.731   5.816  0.00  0.00    -0.219 NA
ATOM     16  C   UNL     1      -4.398  -2.008   6.223  0.00  0.00    +0.125 C 
ATOM     17  S   UNL     1      -5.910  -2.226   7.248  0.00  0.00    -0.150 S 
ATOM     18  C   UNL     1      -5.194  -3.441   8.430  0.00  0.00    +0.111 C 
ATOM     19  H   UNL     1      -0.447  -6.083   5.481  0.00  0.00    +0.155 HD
ENDBRANCH   4   7
BRANCH   1  25
ATOM     20  C   UNL     1       3.488  -2.350  -1.551  0.00  0.00    +0.009 C 
ATOM     21  C   UNL     1       2.891  -1.860  -0.231  0.00  0.00    +0.003 C 
ATOM     22  C   UNL     1       2.713  -0.341  -0.283  0.00  0.00    +0.006 C 
ATOM     23  C   UNL     1       2.146   0.154   1.050  0.00  0.00    +0.019 C 
ATOM     24  C   UNL     1       0.774  -0.485   1.285  0.00  0.00    +0.105 C 
ATOM     25  N   UNL     1       0.910  -1.945   1.192  0.00  0.00    -0.330 N 
ATOM     26  C   UNL     1       1.527  -2.523  -0.009  0.00  0.00    +0.108 C 
ENDBRANCH   1  25
TORSDOF 2
