REMARK  Name = ZINC59912227
REMARK  8 active torsions:
REMARK  status: ('A' for Active; 'I' for Inactive)
REMARK    1  A    between atoms: C_1  and  C_2
REMARK    2  A    between atoms: C_4  and  C_20
REMARK    3  A    between atoms: C_5  and  C_9
REMARK    4  A    between atoms: C_6  and  C_8
REMARK    5  A    between atoms: C_9  and  S_10
REMARK    6  A    between atoms: S_10  and  C_11
REMARK    7  A    between atoms: C_14  and  C_17
REMARK    8  A    between atoms: N_15  and  N_16
REMARK                            x       y       z     vdW  Elec       q    Type
REMARK                         _______ _______ _______ _____ _____    ______ ____
ROOT
ATOM      1  S   UNL     1       1.777  -4.858  -0.034  0.00  0.00    -0.080 S 
ENDROOT
BRANCH   1   2
ATOM      2  C   UNL     1       1.632  -6.614  -0.043  0.00  0.00    +0.209 A 
ATOM      3  N   UNL     1       0.516  -7.305  -0.046  0.00  0.00    -0.121 NA
ATOM      4  N   UNL     1       0.780  -8.562  -0.052  0.00  0.00    -0.132 NA
ATOM      5  C   UNL     1       2.070  -8.748  -0.054  0.00  0.00    +0.154 A 
ATOM      6  N   UNL     1       2.659  -7.513  -0.053  0.00  0.00    -0.228 N 
BRANCH   6   7
ATOM      7  N   UNL     1       3.997  -7.238  -0.059  0.00  0.00    -0.295 N 
ATOM      8  H   UNL     1       4.356  -7.170   0.881  0.00  0.00    +0.163 HD
ATOM      9  H   UNL     1       4.506  -7.927  -0.592  0.00  0.00    +0.163 HD
ENDBRANCH   6   7
BRANCH   5  10
ATOM     10  C   UNL     1       2.781 -10.076  -0.060  0.00  0.00    +0.059 C 
ATOM     11  C   UNL     1       1.932 -11.334   0.137  0.00  0.00    +0.012 C 
ATOM     12  C   UNL     1       2.517 -11.013  -1.240  0.00  0.00    +0.012 C 
ENDBRANCH   5  10
ENDBRANCH   1   2
BRANCH   1  13
ATOM     13  C   UNL     1       0.059  -4.275  -0.021  0.00  0.00    +0.113 C 
BRANCH  13  18
ATOM     14  C   UNL     1      -0.018   1.503   0.010  0.00  0.00    +0.044 C 
ATOM     15  C   UNL     1       0.002  -0.004   0.002  0.00  0.00    -0.050 A 
ATOM     16  C   UNL     1       0.006  -0.689  -1.199  0.00  0.00    +0.007 A 
ATOM     17  C   UNL     1       0.025  -2.071  -1.206  0.00  0.00    -0.046 A 
ATOM     18  C   UNL     1       0.040  -2.768  -0.013  0.00  0.00    -0.031 A 
ATOM     19  C   UNL     1       0.037  -2.084   1.188  0.00  0.00    -0.046 A 
ATOM     20  C   UNL     1       0.023  -0.702   1.195  0.00  0.00    +0.007 A 
ATOM     21  C   UNL     1       0.054  -2.844   2.489  0.00  0.00    +0.044 C 
ATOM     22  C   UNL     1       0.027  -2.817  -2.516  0.00  0.00    +0.044 C 
ENDBRANCH  13  18
ENDBRANCH   1  13
TORSDOF 5
