REMARK  Name = ZINC59037217
REMARK  8 active torsions:
REMARK  status: ('A' for Active; 'I' for Inactive)
REMARK    1  A    between atoms: C_3  and  O_8
REMARK    2  A    between atoms: O_8  and  C_9
REMARK    3  A    between atoms: C_10  and  C_15
REMARK    4  A    between atoms: C_15  and  N_16
REMARK    5  A    between atoms: N_19  and  C_20
REMARK    6  A    between atoms: C_20  and  C_21
REMARK    7  A    between atoms: C_21  and  C_23
REMARK    8  A    between atoms: C_21  and  N_28
REMARK                            x       y       z     vdW  Elec       q    Type
REMARK                         _______ _______ _______ _____ _____    ______ ____
ROOT
ATOM      1  N   UNL     1       5.569   3.798   1.845  0.00  0.00    -0.295 N 
ATOM      2  C   UNL     1       5.597   5.137   1.992  0.00  0.00    +0.300 C 
ATOM      3  O   UNL     1       5.932   5.844   1.061  0.00  0.00    -0.253 OA
ATOM      4  N   UNL     1       5.254   5.693   3.171  0.00  0.00    -0.301 N 
ATOM      5  H   UNL     1       5.303   3.233   2.587  0.00  0.00    +0.151 HD
ATOM      6  H   UNL     1       4.987   5.128   3.913  0.00  0.00    +0.150 HD
ENDROOT
BRANCH   1   7
ATOM      7  C   UNL     1       5.942   3.194   0.563  0.00  0.00    +0.146 C 
BRANCH   7   9
ATOM      8  C   UNL     1       4.590   1.074   0.550  0.00  0.00    +0.225 A 
ATOM      9  C   UNL     1       5.828   1.694   0.662  0.00  0.00    +0.032 A 
ATOM     10  C   UNL     1       6.954   0.917   0.865  0.00  0.00    +0.012 A 
ATOM     11  C   UNL     1       6.802  -0.461   0.950  0.00  0.00    +0.020 A 
ATOM     12  C   UNL     1       5.540  -1.009   0.829  0.00  0.00    +0.114 A 
ATOM     13  N   UNL     1       4.484  -0.241   0.641  0.00  0.00    -0.221 NA
BRANCH   8  14
ATOM     14  O   UNL     1       3.477   1.825   0.350  0.00  0.00    -0.438 OA
BRANCH  14  17
ATOM     15  C   UNL     1       0.473   0.162   1.555  0.00  0.00    +0.006 A 
ATOM     16  C   UNL     1       1.698   0.802   1.553  0.00  0.00    +0.046 A 
ATOM     17  C   UNL     1       2.273   1.195   0.353  0.00  0.00    +0.133 A 
ATOM     18  C   UNL     1       1.617   0.945  -0.843  0.00  0.00    +0.084 A 
ATOM     19  C   UNL     1       0.391   0.304  -0.837  0.00  0.00    +0.127 A 
ATOM     20  C   UNL     1      -0.180  -0.087   0.363  0.00  0.00    +0.038 A 
ATOM     21  F   UNL     1      -0.249   0.060  -2.001  0.00  0.00    -0.205 F 
ENDBRANCH  14  17
ENDBRANCH   8  14
ENDBRANCH   7   9
ENDBRANCH   1   7
BRANCH   4  22
ATOM     22  C   UNL     1       5.284   7.149   3.331  0.00  0.00    +0.098 C 
BRANCH  22  23
ATOM     23  C   UNL     1       4.953   7.509   4.780  0.00  0.00    +0.016 C 
BRANCH  23  24
ATOM     24  N   UNL     1       3.668   6.904   5.154  0.00  0.00    +0.387 N 
ATOM     25  C   UNL     1       2.610   7.428   4.283  0.00  0.00    -0.078 C 
ATOM     26  C   UNL     1       1.283   6.740   4.614  0.00  0.00    -0.019 C 
ATOM     27  C   UNL     1       0.924   7.014   6.078  0.00  0.00    -0.004 C 
ATOM     28  C   UNL     1       2.069   6.530   6.973  0.00  0.00    -0.019 C 
ATOM     29  C   UNL     1       3.366   7.226   6.554  0.00  0.00    -0.078 C 
ATOM     30  H   UNL     1       3.725   5.902   5.045  0.00  0.00    -0.081 HD
ENDBRANCH  23  24
BRANCH  23  31
ATOM     31  C   UNL     1       6.037   6.988   5.688  0.00  0.00    +0.093 A 
ATOM     32  C   UNL     1       7.044   7.713   6.208  0.00  0.00    +0.043 A 
ATOM     33  C   UNL     1       7.820   6.831   6.994  0.00  0.00    +0.041 A 
ATOM     34  C   UNL     1       7.242   5.620   6.907  0.00  0.00    +0.195 A 
ATOM     35  O   UNL     1       6.159   5.722   6.119  0.00  0.00    -0.469 OA
ENDBRANCH  23  31
ENDBRANCH  22  23
ENDBRANCH   4  22
TORSDOF 8
