REMARK  Name = ZINC22473252
REMARK  8 active torsions:
REMARK  status: ('A' for Active; 'I' for Inactive)
REMARK    1  A    between atoms: C_4  and  C_7
REMARK    2  A    between atoms: C_7  and  N_8
REMARK    3  A    between atoms: N_8  and  C_9
REMARK    4  A    between atoms: C_9  and  C_10
REMARK    5  A    between atoms: C_10  and  C_11
REMARK    6  A    between atoms: C_11  and  N_12
REMARK    7  A    between atoms: C_15  and  O_16
REMARK    8  A    between atoms: C_24  and  C_26
REMARK                            x       y       z     vdW  Elec       q    Type
REMARK                         _______ _______ _______ _____ _____    ______ ____
ROOT
ATOM      1  N   UNL     1      -2.461   1.451   0.125  0.00  0.00    -0.293 N 
ATOM      2  C   UNL     1      -1.318   2.095   0.432  0.00  0.00    +0.250 C 
ATOM      3  O   UNL     1      -0.249   1.531   0.305  0.00  0.00    -0.270 OA
ENDROOT
BRANCH   2   4
ATOM      4  C   UNL     1      -1.365   3.488   0.924  0.00  0.00    +0.074 A 
ATOM      5  C   UNL     1      -2.344   4.375   0.459  0.00  0.00    +0.017 A 
ATOM      6  C   UNL     1      -2.348   5.666   0.955  0.00  0.00    +0.021 A 
ATOM      7  C   UNL     1      -1.394   6.038   1.885  0.00  0.00    +0.112 A 
ATOM      8  N   UNL     1      -0.482   5.182   2.307  0.00  0.00    -0.243 NA
ATOM      9  C   UNL     1      -0.436   3.941   1.864  0.00  0.00    +0.141 A 
ATOM     10 CL   UNL     1       0.787   2.861   2.456  0.00  0.00    -0.061 Cl
ENDBRANCH   2   4
BRANCH   1  11
ATOM     11  C   UNL     1      -2.428   0.028  -0.223  0.00  0.00    +0.143 C 
BRANCH  11  15
ATOM     12  C   UNL     1      -3.248  -2.308   3.258  0.00  0.00    +0.000 A 
ATOM     13  C   UNL     1      -4.271  -1.982   2.388  0.00  0.00    +0.000 A 
ATOM     14  C   UNL     1      -4.006  -1.226   1.262  0.00  0.00    +0.005 A 
ATOM     15  C   UNL     1      -2.717  -0.796   1.005  0.00  0.00    -0.030 A 
ATOM     16  C   UNL     1      -1.693  -1.127   1.872  0.00  0.00    +0.005 A 
ATOM     17  C   UNL     1      -1.959  -1.879   3.002  0.00  0.00    +0.000 A 
ENDBRANCH  11  15
ENDBRANCH   1  11
BRANCH   1  18
ATOM     18  C   UNL     1      -3.736   2.172   0.138  0.00  0.00    +0.110 C 
BRANCH  18  19
ATOM     19  C   UNL     1      -4.189   2.433  -1.300  0.00  0.00    +0.040 C 
BRANCH  19  20
ATOM     20  C   UNL     1      -5.521   3.187  -1.286  0.00  0.00    +0.114 C 
BRANCH  20  21
ATOM     21  N   UNL     1      -5.955   3.437  -2.662  0.00  0.00    -0.384 N 
ATOM     22  C   UNL     1      -7.135   4.105  -2.901  0.00  0.00    +0.053 A 
ATOM     23  C   UNL     1      -7.919   4.547  -1.867  0.00  0.00    +0.113 A 
ATOM     24  C   UNL     1      -9.114   5.224  -2.142  0.00  0.00    +0.286 A 
ATOM     25  O   UNL     1      -9.523   5.459  -3.399  0.00  0.00    -0.425 OA
ATOM     26  C   UNL     1      -8.803   5.054  -4.468  0.00  0.00    +0.141 A 
ATOM     27  C   UNL     1      -7.590   4.374  -4.276  0.00  0.00    +0.041 A 
ATOM     28  C   UNL     1      -6.840   3.959  -5.377  0.00  0.00    +0.013 A 
ATOM     29  C   UNL     1      -7.294   4.227  -6.650  0.00  0.00    +0.001 A 
ATOM     30  C   UNL     1      -8.489   4.904  -6.839  0.00  0.00    +0.004 A 
ATOM     31  C   UNL     1      -9.246   5.308  -5.759  0.00  0.00    +0.047 A 
ATOM     32  H   UNL     1      -5.339   3.090  -3.505  0.00  0.00    +0.160 HD
BRANCH  24  33
ATOM     33  O   UNL     1      -9.802   5.612  -1.214  0.00  0.00    -0.480 OA
ATOM     34  H   UNL     1     -10.744   6.145  -1.412  0.00  0.00    +0.295 HD
ENDBRANCH  24  33
ENDBRANCH  20  21
ENDBRANCH  19  20
ENDBRANCH  18  19
ENDBRANCH   1  18
TORSDOF 8
