REMARK  Name = ZINC08868860
REMARK  9 active torsions:
REMARK  status: ('A' for Active; 'I' for Inactive)
REMARK    1  A    between atoms: C_1  and  C_2
REMARK    2  A    between atoms: C_2  and  O_3
REMARK    3  A    between atoms: O_3  and  C_4
REMARK    4  A    between atoms: C_4  and  C_6
REMARK    5  A    between atoms: C_10  and  N_11
REMARK    6  A    between atoms: C_12  and  C_14
REMARK    7  A    between atoms: N_19  and  S_20
REMARK    8  A    between atoms: S_20  and  C_23
REMARK    9  A    between atoms: C_33  and  N_59
REMARK                            x       y       z     vdW  Elec       q    Type
REMARK                         _______ _______ _______ _____ _____    ______ ____
ROOT
ATOM      1  N   UNL     1      -0.141  -0.249   2.974  0.00  0.00    -0.278 N 
ATOM      2  C   UNL     1      -1.160   0.300   2.283  0.00  0.00    +0.236 C 
ATOM      3  O   UNL     1      -2.291  -0.108   2.443  0.00  0.00    -0.274 OA
ATOM      4  H   UNL     1       0.763   0.077   2.846  0.00  0.00    +0.155 HD
ENDROOT
BRANCH   1   9
ATOM      5  C   UNL     1       0.523  -1.971   4.660  0.00  0.00    +0.091 A 
ATOM      6  C   UNL     1       0.001  -3.016   5.521  0.00  0.00    -0.025 A 
ATOM      7  C   UNL     1      -1.335  -3.212   5.447  0.00  0.00    -0.021 A 
ATOM      8  S   UNL     1      -1.901  -2.026   4.262  0.00  0.00    -0.079 S 
ATOM      9  C   UNL     1      -0.387  -1.281   3.868  0.00  0.00    +0.086 A 
ATOM     10  C   UNL     1      -2.129  -4.222   6.214  0.00  0.00    -0.036 C 
ATOM     11  C   UNL     1      -0.085  -4.526   7.479  0.00  0.00    -0.074 C 
ATOM     12  C   UNL     1       0.848  -3.869   6.458  0.00  0.00    +0.018 C 
ATOM     13  C   UNL     1      -1.886  -6.130   7.694  0.00  0.00    -0.096 C 
ATOM     14  N   UNL     1      -1.180  -5.218   6.769  0.00  0.00    +0.381 N 
ATOM     15  H   UNL     1      -0.783  -5.767   5.997  0.00  0.00    -0.082 HD
BRANCH   5  16
ATOM     16  C   UNL     1       1.952  -1.655   4.629  0.00  0.00    +0.342 C 
ATOM     17  O   UNL     1       2.407  -0.821   5.389  0.00  0.00    -0.245 OA
BRANCH  16  18
ATOM     18  O   UNL     1       2.765  -2.287   3.758  0.00  0.00    -0.461 OA
BRANCH  18  20
ATOM     19  C   UNL     1       4.928  -2.739   2.733  0.00  0.00    +0.048 C 
ATOM     20  C   UNL     1       4.170  -1.923   3.783  0.00  0.00    +0.229 C 
ENDBRANCH  18  20
ENDBRANCH  16  18
ENDBRANCH   5  16
ENDBRANCH   1   9
BRANCH   2  21
ATOM     21  C   UNL     1      -0.894   1.421   1.312  0.00  0.00    +0.166 C 
ATOM     22  C   UNL     1      -0.523   0.841  -0.070  0.00  0.00    +0.031 C 
ATOM     23  C   UNL     1      -1.222   1.811  -1.058  0.00  0.00    +0.019 C 
ATOM     24  C   UNL     1      -2.521   2.156  -0.287  0.00  0.00    +0.110 C 
ATOM     25  N   UNL     1      -2.113   2.230   1.128  0.00  0.00    -0.165 NA
BRANCH  25  26
ATOM     26  S   UNL     1      -2.893   3.080   2.315  0.00  0.00    +0.062 S 
ATOM     27  O   UNL     1      -4.268   3.108   1.957  0.00  0.00    -0.153 OA
ATOM     28  O   UNL     1      -2.440   2.556   3.555  0.00  0.00    -0.153 OA
BRANCH  26  29
ATOM     29  C   UNL     1      -2.317   4.743   2.230  0.00  0.00    +0.106 A 
ATOM     30  C   UNL     1      -1.150   5.103   2.877  0.00  0.00    +0.031 A 
ATOM     31  C   UNL     1      -0.694   6.406   2.806  0.00  0.00    +0.040 A 
ATOM     32  C   UNL     1      -1.412   7.353   2.097  0.00  0.00    +0.124 A 
ATOM     33  C   UNL     1      -2.584   6.992   1.453  0.00  0.00    +0.040 A 
ATOM     34  C   UNL     1      -3.035   5.688   1.520  0.00  0.00    +0.031 A 
ATOM     35  F   UNL     1      -0.971   8.628   2.032  0.00  0.00    -0.205 F 
ENDBRANCH  26  29
ENDBRANCH  25  26
ENDBRANCH   2  21
TORSDOF 7
