REMARK  Name = ZINC57336961
REMARK  5 active torsions:
REMARK  status: ('A' for Active; 'I' for Inactive)
REMARK    1  A    between atoms: C_1  and  C_2
REMARK    2  A    between atoms: C_2  and  C_19
REMARK    3  A    between atoms: N_5  and  N_9
REMARK    4  A    between atoms: C_10  and  C_12
REMARK    5  A    between atoms: C_12  and  C_13
REMARK                            x       y       z     vdW  Elec       q    Type
REMARK                         _______ _______ _______ _____ _____    ______ ____
ROOT
ATOM      1  C   UNL     1      -0.019   1.526   0.010  0.00  0.00    +0.047 C 
ATOM      2  C   UNL     1       0.002  -0.004   0.002  0.00  0.00    +0.137 C 
ATOM      3  C   UNL     1      -1.403  -0.557   0.139  0.00  0.00    +0.267 C 
ATOM      4  O   UNL     1      -2.332  -0.392  -0.621  0.00  0.00    -0.271 OA
ATOM      5  N   UNL     1      -1.403  -1.272   1.282  0.00  0.00    -0.137 N 
ATOM      6  C   UNL     1      -0.206  -1.247   1.879  0.00  0.00    +0.327 C 
ATOM      7  O   UNL     1       0.040  -1.819   2.924  0.00  0.00    -0.251 OA
ATOM      8  N   UNL     1       0.695  -0.520   1.195  0.00  0.00    -0.280 N 
ATOM      9  H   UNL     1       1.621  -0.365   1.440  0.00  0.00    +0.152 HD
ENDROOT
BRANCH   2  10
ATOM     10  C   UNL     1       0.657  -0.517  -1.255  0.00  0.00    -0.015 A 
ATOM     11  C   UNL     1      -0.107  -0.772  -2.378  0.00  0.00    +0.006 A 
ATOM     12  C   UNL     1       0.493  -1.242  -3.530  0.00  0.00    +0.000 A 
ATOM     13  C   UNL     1       1.859  -1.457  -3.560  0.00  0.00    +0.000 A 
ATOM     14  C   UNL     1       2.623  -1.202  -2.437  0.00  0.00    +0.000 A 
ATOM     15  C   UNL     1       2.023  -0.727  -1.286  0.00  0.00    +0.006 A 
ENDBRANCH   2  10
BRANCH   5  16
ATOM     16  N   UNL     1      -2.518  -1.955   1.783  0.00  0.00    -0.224 N 
ATOM     17  C   UNL     1      -2.586  -3.298   1.684  0.00  0.00    +0.230 C 
ATOM     18  O   UNL     1      -1.682  -3.914   1.162  0.00  0.00    -0.274 OA
ATOM     19  H   UNL     1      -3.242  -1.462   2.200  0.00  0.00    +0.174 HD
BRANCH  17  20
ATOM     20  C   UNL     1      -3.787  -4.033   2.223  0.00  0.00    +0.101 C 
BRANCH  20  21
ATOM     21  C   UNL     1      -3.613  -5.535   1.986  0.00  0.00    -0.002 C 
ATOM     22  C   UNL     1      -2.425  -6.046   2.803  0.00  0.00    +0.004 C 
ATOM     23  C   UNL     1      -2.252  -7.548   2.566  0.00  0.00    +0.000 C 
ATOM     24  C   UNL     1      -3.523  -8.282   2.999  0.00  0.00    +0.000 C 
ATOM     25  C   UNL     1      -4.711  -7.771   2.182  0.00  0.00    +0.000 C 
ATOM     26  C   UNL     1      -4.884  -6.269   2.419  0.00  0.00    +0.004 C 
ENDBRANCH  20  21
ENDBRANCH  17  20
ENDBRANCH   5  16
TORSDOF 4
