REMARK  Name = ZINC02457853
REMARK  10 active torsions:
REMARK  status: ('A' for Active; 'I' for Inactive)
REMARK    1  A    between atoms: C_1  and  C_2
REMARK    2  A    between atoms: C_2  and  C_3
REMARK    3  A    between atoms: C_3  and  C_5
REMARK    4  A    between atoms: C_3  and  N_6
REMARK    5  A    between atoms: C_7  and  C_9
REMARK    6  A    between atoms: C_9  and  O_30
REMARK    7  A    between atoms: N_19  and  C_20
REMARK    8  A    between atoms: C_23  and  O_26
REMARK    9  A    between atoms: O_26  and  C_27
REMARK   10  A    between atoms: C_27  and  C_28
REMARK                            x       y       z     vdW  Elec       q    Type
REMARK                         _______ _______ _______ _____ _____    ______ ____
ROOT
ATOM      1  C   UNL     1      -1.252  -0.767   0.121  0.00  0.00    +0.247 C 
ATOM      2  C   UNL     1      -1.139  -2.274   0.103  0.00  0.00    +0.034 A 
ATOM      3  C   UNL     1      -2.252  -3.076   0.208  0.00  0.00    +0.025 A 
ATOM      4  C   UNL     1      -2.111  -4.454   0.188  0.00  0.00    +0.018 A 
ATOM      5  C   UNL     1      -0.854  -5.019   0.063  0.00  0.00    +0.017 A 
ATOM      6  C   UNL     1       0.265  -4.216  -0.043  0.00  0.00    +0.025 A 
ATOM      7  C   UNL     1       0.128  -2.834  -0.023  0.00  0.00    +0.043 A 
ATOM      8  N   UNL     1       1.246  -2.006  -0.128  0.00  0.00    -0.269 N 
ATOM      9  C   UNL     1       1.165  -0.669  -0.119  0.00  0.00    +0.314 C 
ATOM     10  O   UNL     1       2.192  -0.026  -0.222  0.00  0.00    -0.252 OA
ATOM     11  N   UNL     1       0.002  -0.004   0.002  0.00  0.00    -0.214 N 
ATOM     12 BR   UNL     1      -3.636  -5.563   0.331  0.00  0.00    -0.050 Br
ATOM     13  H   UNL     1       2.120  -2.416  -0.215  0.00  0.00    +0.156 HD
ENDROOT
BRANCH  11  14
ATOM     14  C   UNL     1      -0.017   1.397   0.010  0.00  0.00    +0.042 A 
ATOM     15  C   UNL     1       0.364   2.103  -1.123  0.00  0.00    +0.027 A 
ATOM     16  C   UNL     1       0.341   3.484  -1.117  0.00  0.00    +0.047 A 
ATOM     17  C   UNL     1      -0.054   4.166   0.025  0.00  0.00    +0.121 A 
ATOM     18  C   UNL     1      -0.430   3.461   1.159  0.00  0.00    +0.047 A 
ATOM     19  C   UNL     1      -0.412   2.080   1.152  0.00  0.00    +0.027 A 
BRANCH  17  20
ATOM     20  O   UNL     1      -0.072   5.525   0.033  0.00  0.00    -0.492 OA
BRANCH  20  21
ATOM     21  C   UNL     1       0.328   6.186  -1.169  0.00  0.00    +0.225 C 
ATOM     22  C   UNL     1       0.244   7.701  -0.971  0.00  0.00    +0.048 C 
ENDBRANCH  20  21
ENDBRANCH  17  20
ENDBRANCH  11  14
BRANCH   1  24
ATOM     23  N   UNL     1      -1.760  -0.533  -2.289  0.00  0.00    -0.309 N 
ATOM     24  C   UNL     1      -2.156  -0.355  -1.013  0.00  0.00    +0.269 C 
ATOM     25  O   UNL     1      -3.239   0.136  -0.776  0.00  0.00    -0.270 OA
ATOM     26  H   UNL     1      -0.894  -0.926  -2.478  0.00  0.00    +0.149 HD
BRANCH  23  27
ATOM     27  C   UNL     1      -2.639  -0.133  -3.391  0.00  0.00    +0.070 C 
ATOM     28  C   UNL     1      -3.625  -1.263  -3.693  0.00  0.00    +0.028 C 
BRANCH  27  30
ATOM     29  C   UNL     1      -0.899   1.367  -4.373  0.00  0.00    +0.005 C 
ATOM     30  C   UNL     1      -1.797   0.156  -4.635  0.00  0.00    +0.018 C 
ENDBRANCH  27  30
ENDBRANCH  23  27
ENDBRANCH   1  24
BRANCH   1  31
ATOM     31  O   UNL     1      -1.885  -0.388   1.344  0.00  0.00    -0.360 OA
ATOM     32  H   UNL     1      -2.723  -0.841   1.510  0.00  0.00    +0.213 HD
ENDBRANCH   1  31
TORSDOF 7
