REMARK  Name = ZINC09090149
REMARK  3 active torsions:
REMARK  status: ('A' for Active; 'I' for Inactive)
REMARK    1  A    between atoms: C_1  and  C_2
REMARK    2  A    between atoms: C_12  and  C_14
REMARK    3  A    between atoms: C_21  and  C_25
REMARK                            x       y       z     vdW  Elec       q    Type
REMARK                         _______ _______ _______ _____ _____    ______ ____
ROOT
ATOM      1  C   UNL     1      -0.018   1.503   0.010  0.00  0.00    +0.044 C 
ATOM      2  C   UNL     1       0.002  -0.004   0.002  0.00  0.00    -0.049 A 
ATOM      3  C   UNL     1       0.006  -0.698  -1.199  0.00  0.00    +0.005 A 
ATOM      4  C   UNL     1       0.024  -2.068  -1.235  0.00  0.00    +0.029 A 
ATOM      5  C   UNL     1       0.040  -2.822  -0.038  0.00  0.00    +0.080 A 
ATOM      6  C   UNL     1       0.036  -2.081   1.166  0.00  0.00    +0.041 A 
ATOM      7  C   UNL     1       0.023  -0.709   1.192  0.00  0.00    +0.020 A 
ATOM      8  S   UNL     1       0.060  -3.361   2.397  0.00  0.00    -0.052 S 
ATOM      9  C   UNL     1       0.073  -4.752   1.275  0.00  0.00    +0.166 A 
ATOM     10  N   UNL     1       0.059  -4.165   0.101  0.00  0.00    -0.225 NA
ATOM     11  N   UNL     1       0.093  -6.104   1.569  0.00  0.00    -0.258 N 
ATOM     12  C   UNL     1       0.100  -7.011   0.571  0.00  0.00    +0.285 C 
ATOM     13  O   UNL     1       0.089  -6.640  -0.586  0.00  0.00    -0.266 OA
ATOM     14  H   UNL     1       0.102  -6.400   2.493  0.00  0.00    +0.157 HD
ENDROOT
BRANCH  12  15
ATOM     15  C   UNL     1       0.122  -8.458   0.885  0.00  0.00    +0.194 A 
ATOM     16  C   UNL     1       0.135  -9.345  -0.140  0.00  0.00    +0.103 A 
ATOM     17  C   UNL     1       0.139 -10.782   0.182  0.00  0.00    +0.193 A 
ATOM     18  O   UNL     1       0.375 -11.632  -0.659  0.00  0.00    -0.287 OA
ATOM     19  C   UNL     1      -0.158 -11.132   1.586  0.00  0.00    +0.065 A 
ATOM     20  C   UNL     1      -0.436 -12.444   1.966  0.00  0.00    +0.035 A 
ATOM     21  C   UNL     1      -0.715 -12.723   3.287  0.00  0.00    +0.045 A 
ATOM     22  C   UNL     1      -0.719 -11.703   4.231  0.00  0.00    -0.029 A 
ATOM     23  C   UNL     1      -0.443 -10.403   3.866  0.00  0.00    +0.051 A 
ATOM     24  C   UNL     1      -0.156 -10.099   2.539  0.00  0.00    +0.140 A 
ATOM     25  O   UNL     1       0.134  -8.835   2.171  0.00  0.00    -0.450 OA
ATOM     26  C   UNL     1      -1.029 -12.022   5.671  0.00  0.00    +0.045 C 
ATOM     27 CL   UNL     1      -1.062 -14.353   3.773  0.00  0.00    -0.083 Cl
ENDBRANCH  12  15
TORSDOF 1
