REMARK  Name = ZINC62944255
REMARK  5 active torsions:
REMARK  status: ('A' for Active; 'I' for Inactive)
REMARK    1  A    between atoms: C_1  and  C_2
REMARK    2  A    between atoms: C_2  and  C_4
REMARK    3  A    between atoms: C_2  and  N_23
REMARK    4  A    between atoms: C_4  and  C_6
REMARK    5  A    between atoms: C_4  and  N_12
REMARK                            x       y       z     vdW  Elec       q    Type
REMARK                         _______ _______ _______ _____ _____    ______ ____
ROOT
ATOM      1  C   UNL     1       0.742  -0.511   1.242  0.00  0.00    +0.079 C 
ENDROOT
BRANCH   1   2
ATOM      2  N   UNL     1       0.054  -0.037   2.450  0.00  0.00    -0.292 NA
ATOM      3  C   UNL     1       0.874  -0.251   3.634  0.00  0.00    +0.085 C 
ATOM      4  C   UNL     1       0.413   0.504   4.864  0.00  0.00    +0.020 C 
ATOM      5  C   UNL     1      -0.927  -0.044   5.366  0.00  0.00    +0.037 C 
ATOM      6  C   UNL     1      -2.035   0.632   4.585  0.00  0.00    -0.043 A 
ATOM      7  C   UNL     1      -2.875   1.530   5.218  0.00  0.00    +0.004 A 
ATOM      8  C   UNL     1      -3.883   2.145   4.499  0.00  0.00    +0.000 A 
ATOM      9  C   UNL     1      -4.047   1.863   3.156  0.00  0.00    +0.000 A 
ATOM     10  C   UNL     1      -3.204   0.964   2.528  0.00  0.00    +0.005 A 
ATOM     11  C   UNL     1      -2.199   0.349   3.252  0.00  0.00    -0.030 A 
ATOM     12  C   UNL     1      -1.280  -0.641   2.568  0.00  0.00    +0.120 C 
ENDBRANCH   1   2
BRANCH   1  13
ATOM     13  C   UNL     1       0.762  -2.018   1.233  0.00  0.00    +0.006 A 
ATOM     14  C   UNL     1       1.762  -2.856   0.864  0.00  0.00    +0.014 A 
ATOM     15  C   UNL     1       1.555  -4.220   0.940  0.00  0.00    +0.023 A 
ATOM     16  C   UNL     1       0.358  -4.680   1.381  0.00  0.00    +0.055 A 
ATOM     17  S   UNL     1      -0.521  -3.162   1.714  0.00  0.00    -0.085 S 
ATOM     18 BR   UNL     1      -0.227  -6.466   1.595  0.00  0.00    -0.043 Br
ENDBRANCH   1  13
BRANCH   1  20
ATOM     19  C   UNL     1      -0.019   1.526   0.010  0.00  0.00    -0.012 C 
ATOM     20  C   UNL     1       0.002  -0.004   0.002  0.00  0.00    -0.056 C 
BRANCH  20  21
ATOM     21  N   UNL     1       0.690  -0.478  -1.207  0.00  0.00    +0.381 N 
ATOM     22  H   UNL     1       1.636  -0.129  -1.214  0.00  0.00    -0.090 HD
ATOM     23  H   UNL     1       0.703  -1.487  -1.212  0.00  0.00    -0.090 HD
ATOM     24  H   UNL     1       0.202  -0.144  -2.024  0.00  0.00    -0.090 HD
ENDBRANCH  20  21
ENDBRANCH   1  20
TORSDOF 4
