REMARK  Name = ZINC09804796
REMARK  3 active torsions:
REMARK  status: ('A' for Active; 'I' for Inactive)
REMARK    1  A    between atoms: C_1  and  C_2
REMARK    2  A    between atoms: C_5  and  C_8
REMARK    3  A    between atoms: C_13  and  C_23
REMARK                            x       y       z     vdW  Elec       q    Type
REMARK                         _______ _______ _______ _____ _____    ______ ____
ROOT
ATOM      1  C   UNL     1       1.828   7.640  -3.743  0.00  0.00    +0.032 C 
ATOM      2  C   UNL     1       3.260   7.132  -3.583  0.00  0.00    +0.059 C 
ATOM      3  C   UNL     1       3.499   6.699  -2.146  0.00  0.00    +0.017 C 
ATOM      4  C   UNL     1       2.500   6.172  -1.420  0.00  0.00    +0.037 C 
ATOM      5  C   UNL     1       2.604   5.679   0.004  0.00  0.00    +0.143 C 
ATOM      6  N   UNL     1       3.832   6.047   0.677  0.00  0.00    -0.331 N 
ATOM      7  C   UNL     1       5.065   5.563   0.243  0.00  0.00    +0.049 A 
ATOM      8  C   UNL     1       5.802   4.673   1.007  0.00  0.00    +0.025 A 
ATOM      9  C   UNL     1       6.968   4.136   0.489  0.00  0.00    +0.002 A 
ATOM     10  C   UNL     1       7.396   4.484  -0.779  0.00  0.00    +0.002 A 
ATOM     11  C   UNL     1       6.672   5.389  -1.536  0.00  0.00    +0.025 A 
ATOM     12  C   UNL     1       5.516   5.940  -1.013  0.00  0.00    +0.052 A 
ATOM     13  N   UNL     1       4.767   6.888  -1.701  0.00  0.00    -0.316 N 
ATOM     14  C   UNL     1       1.205   6.042  -1.976  0.00  0.00    +0.163 C 
ATOM     15  O   UNL     1       0.324   5.548  -1.301  0.00  0.00    -0.292 OA
ATOM     16  C   UNL     1       0.882   6.493  -3.369  0.00  0.00    +0.088 C 
ATOM     17  H   UNL     1       3.796   6.640   1.444  0.00  0.00    +0.147 HD
ATOM     18  H   UNL     1       5.181   7.748  -1.876  0.00  0.00    +0.152 HD
ENDROOT
BRANCH   5  19
ATOM     19  C   UNL     1       2.493   4.176  -0.001  0.00  0.00    +0.059 A 
ATOM     20  C   UNL     1       2.678   3.488  -1.142  0.00  0.00    +0.205 A 
ATOM     21  O   UNL     1       2.592   2.155  -1.208  0.00  0.00    -0.462 OA
ATOM     22  C   UNL     1       2.312   1.395  -0.129  0.00  0.00    +0.138 A 
ATOM     23  C   UNL     1       2.229   0.011  -0.232  0.00  0.00    +0.048 A 
ATOM     24  C   UNL     1       1.942  -0.745   0.884  0.00  0.00    +0.023 A 
ATOM     25  C   UNL     1       1.732  -0.139   2.116  0.00  0.00    +0.042 A 
ATOM     26  C   UNL     1       1.810   1.232   2.238  0.00  0.00    +0.035 A 
ATOM     27  C   UNL     1       2.100   2.007   1.117  0.00  0.00    +0.066 A 
ATOM     28  C   UNL     1       2.193   3.477   1.198  0.00  0.00    +0.198 A 
ATOM     29  O   UNL     1       2.019   4.067   2.251  0.00  0.00    -0.287 OA
ATOM     30 CL   UNL     1       1.369  -1.112   3.507  0.00  0.00    -0.084 Cl
ENDBRANCH   5  19
BRANCH   1  35
ATOM     31  C   UNL     1       0.912   9.228  -9.223  0.00  0.00    +0.044 C 
ATOM     32  C   UNL     1       1.152   8.814  -7.794  0.00  0.00    -0.050 A 
ATOM     33  C   UNL     1       0.979   9.728  -6.772  0.00  0.00    +0.003 A 
ATOM     34  C   UNL     1       1.199   9.348  -5.461  0.00  0.00    +0.004 A 
ATOM     35  C   UNL     1       1.589   8.054  -5.172  0.00  0.00    -0.043 A 
ATOM     36  C   UNL     1       1.767   7.141  -6.195  0.00  0.00    +0.004 A 
ATOM     37  C   UNL     1       1.544   7.520  -7.506  0.00  0.00    +0.003 A 
ENDBRANCH   1  35
TORSDOF 2
