REMARK  Name = ZINC10013815
REMARK  7 active torsions:
REMARK  status: ('A' for Active; 'I' for Inactive)
REMARK    1  A    between atoms: C_1  and  C_2
REMARK    2  A    between atoms: C_2  and  O_3
REMARK    3  A    between atoms: O_3  and  C_4
REMARK    4  A    between atoms: C_9  and  C_10
REMARK    5  A    between atoms: C_14  and  C_24
REMARK    6  A    between atoms: C_19  and  N_23
REMARK    7  A    between atoms: C_20  and  C_21
REMARK                            x       y       z     vdW  Elec       q    Type
REMARK                         _______ _______ _______ _____ _____    ______ ____
ROOT
ATOM      1  C   UNL     1      -3.981  -1.497   0.032  0.00  0.00    +0.086 C 
ATOM      2  C   UNL     1      -4.838  -1.767  -1.211  0.00  0.00    +0.140 C 
ATOM      3  C   UNL     1      -3.970  -2.146  -2.390  0.00  0.00    +0.084 C 
ATOM      4  N   UNL     1      -4.292  -3.373  -2.697  0.00  0.00    -0.150 NA
ATOM      5  N   UNL     1      -5.259  -3.897  -1.838  0.00  0.00    -0.115 NA
ATOM      6  C   UNL     1      -5.608  -3.051  -0.916  0.00  0.00    +0.227 C 
ATOM      7  O   UNL     1      -6.396  -3.160   0.175  0.00  0.00    -0.425 OA
ATOM      8  C   UNL     1      -5.901  -2.555   1.285  0.00  0.00    +0.200 C 
ATOM      9  C   UNL     1      -4.799  -1.774   1.264  0.00  0.00    +0.095 C 
ENDROOT
BRANCH   3  10
ATOM     10  C   UNL     1      -2.966  -1.301  -3.057  0.00  0.00    +0.000 A 
ATOM     11  C   UNL     1      -2.731   0.001  -2.604  0.00  0.00    +0.011 A 
ATOM     12  C   UNL     1      -1.789   0.786  -3.233  0.00  0.00    +0.022 A 
ATOM     13  C   UNL     1      -1.076   0.290  -4.312  0.00  0.00    +0.059 A 
ATOM     14  C   UNL     1      -1.304  -1.000  -4.767  0.00  0.00    +0.060 A 
ATOM     15  C   UNL     1      -2.240  -1.799  -4.143  0.00  0.00    +0.031 A 
ATOM     16 CL   UNL     1      -0.405  -1.612  -6.120  0.00  0.00    -0.082 Cl
ATOM     17 CL   UNL     1       0.107   1.287  -5.098  0.00  0.00    -0.082 Cl
ENDBRANCH   3  10
BRANCH   1  23
ATOM     18  C   UNL     1      -1.498  -1.848   0.006  0.00  0.00    +0.124 A 
ATOM     19  C   UNL     1      -0.387  -2.679  -0.003  0.00  0.00    +0.046 A 
ATOM     20  C   UNL     1      -0.552  -4.051  -0.008  0.00  0.00    +0.004 A 
ATOM     21  C   UNL     1      -1.823  -4.596  -0.004  0.00  0.00    +0.001 A 
ATOM     22  C   UNL     1      -2.932  -3.769   0.004  0.00  0.00    +0.008 A 
ATOM     23  C   UNL     1      -2.772  -2.397   0.016  0.00  0.00    +0.004 A 
BRANCH  18  24
ATOM     24  O   UNL     1      -1.339  -0.499   0.012  0.00  0.00    -0.492 OA
BRANCH  24  26
ATOM     25  C   UNL     1      -0.019   1.526   0.010  0.00  0.00    +0.048 C 
ATOM     26  C   UNL     1       0.002  -0.004   0.002  0.00  0.00    +0.225 C 
ENDBRANCH  24  26
ENDBRANCH  18  24
ENDBRANCH   1  23
BRANCH   8  27
ATOM     27  N   UNL     1      -6.548  -2.744   2.481  0.00  0.00    -0.328 N 
ATOM     28  H   UNL     1      -7.342  -3.300   2.520  0.00  0.00    +0.145 HD
ATOM     29  H   UNL     1      -6.212  -2.321   3.287  0.00  0.00    +0.145 HD
ENDBRANCH   8  27
BRANCH   9  30
ATOM     30  C   UNL     1      -4.380  -1.171   2.494  0.00  0.00    +0.100 C 
ATOM     31  N   UNL     1      -4.048  -0.693   3.469  0.00  0.00    -0.191 NA
ENDBRANCH   9  30
TORSDOF 6
