REMARK  Name = ZINC43508994
REMARK  3 active torsions:
REMARK  status: ('A' for Active; 'I' for Inactive)
REMARK    1  A    between atoms: C_12  and  N_16
REMARK    2  A    between atoms: C_17  and  C_19
REMARK    3  A    between atoms: C_19  and  C_20
REMARK                            x       y       z     vdW  Elec       q    Type
REMARK                         _______ _______ _______ _____ _____    ______ ____
ROOT
ATOM      1  C   UNL     1      -0.017   1.386   0.010  0.00  0.00    +0.046 A 
ATOM      2  C   UNL     1       1.168   2.091   0.002  0.00  0.00    +0.044 A 
ATOM      3  C   UNL     1       2.387   1.426  -0.013  0.00  0.00    +0.040 A 
ATOM      4  C   UNL     1       2.429   0.050  -0.022  0.00  0.00    +0.052 A 
ATOM      5  C   UNL     1       1.237  -0.680  -0.015  0.00  0.00    +0.022 A 
ATOM      6  C   UNL     1       0.002  -0.004   0.002  0.00  0.00    +0.050 A 
ATOM      7  N   UNL     1      -0.988  -0.963   0.007  0.00  0.00    -0.358 N 
ATOM      8  H   UNL     1      -1.941  -0.779   0.019  0.00  0.00    +0.166 HD
ATOM      9  C   UNL     1      -0.429  -2.210  -0.008  0.00  0.00    +0.020 A 
ATOM     10  C   UNL     1       0.913  -2.103  -0.021  0.00  0.00    -0.016 A 
ATOM     11  C   UNL     1       1.866  -3.271  -0.038  0.00  0.00    +0.059 C 
ATOM     12  C   UNL     1       1.095  -4.533   0.369  0.00  0.00    +0.078 C 
ATOM     13  C   UNL     1      -0.192  -4.628  -0.455  0.00  0.00    +0.028 C 
ATOM     14  C   UNL     1      -1.165  -3.530  -0.011  0.00  0.00    +0.055 C 
ATOM     15 CL   UNL     1       3.956  -0.776  -0.042  0.00  0.00    -0.083 Cl
ATOM     16 CL   UNL     1       1.135   3.827   0.011  0.00  0.00    -0.083 Cl
ENDROOT
BRANCH  12  17
ATOM     17  N   UNL     1       1.925  -5.714   0.119  0.00  0.00    -0.312 N 
ATOM     18  C   UNL     1       1.716  -6.845   0.822  0.00  0.00    +0.214 C 
ATOM     19  O   UNL     1       0.841  -6.885   1.661  0.00  0.00    -0.276 OA
ATOM     20  H   UNL     1       2.625  -5.682  -0.552  0.00  0.00    +0.149 HD
BRANCH  18  21
ATOM     21  C   UNL     1       2.570  -8.060   0.566  0.00  0.00    +0.099 C 
BRANCH  21  22
ATOM     22  C   UNL     1       2.129  -9.197   1.489  0.00  0.00    +0.001 C 
ATOM     23  C   UNL     1       2.467  -8.860   2.959  0.00  0.00    +0.007 C 
ATOM     24  C   UNL     1       3.454  -9.981   3.405  0.00  0.00    -0.010 C 
ATOM     25  C   UNL     1       2.569 -11.261   3.508  0.00  0.00    +0.004 C 
ATOM     26  C   UNL     1       2.215 -11.611   2.045  0.00  0.00    +0.004 C 
ATOM     27  C   UNL     1       2.942 -10.492   1.183  0.00  0.00    -0.007 C 
ATOM     28  C   UNL     1       4.222 -10.242   2.061  0.00  0.00    +0.007 C 
ENDBRANCH  21  22
ENDBRANCH  18  21
ENDBRANCH  12  17
TORSDOF 3
