REMARK  Name = ZINC04150084
REMARK  8 active torsions:
REMARK  status: ('A' for Active; 'I' for Inactive)
REMARK    1  A    between atoms: C_1  and  C_2
REMARK    2  A    between atoms: N_4  and  C_5
REMARK    3  A    between atoms: C_8  and  S_11
REMARK    4  A    between atoms: S_11  and  N_14
REMARK    5  A    between atoms: N_14  and  C_15
REMARK    6  A    between atoms: N_33  and  C_34
REMARK    7  A    between atoms: C_37  and  O_40
REMARK    8  A    between atoms: O_40  and  C_41
REMARK                            x       y       z     vdW  Elec       q    Type
REMARK                         _______ _______ _______ _____ _____    ______ ____
ROOT
ATOM      1  C   UNL     1       0.985  -2.039   0.099  0.00  0.00    +0.112 A 
ATOM      2  C   UNL     1       0.216  -3.069   0.566  0.00  0.00    +0.031 A 
ATOM      3  C   UNL     1      -1.170  -2.893   0.651  0.00  0.00    +0.024 A 
ATOM      4  C   UNL     1      -1.745  -1.726   0.260  0.00  0.00    +0.027 A 
ATOM      5  N   UNL     1      -0.995  -0.735  -0.281  0.00  0.00    -0.310 N 
ATOM      6  C   UNL     1       0.355  -0.846  -0.308  0.00  0.00    +0.274 A 
ATOM      7  O   UNL     1       1.033   0.095  -0.689  0.00  0.00    -0.266 OA
ATOM      8  C   UNL     1      -1.576   0.463  -0.889  0.00  0.00    +0.130 C 
ATOM      9  C   UNL     1      -2.989   0.731  -0.405  0.00  0.00    +0.027 C 
ATOM     10  C   UNL     1      -3.814  -0.555  -0.469  0.00  0.00    +0.018 C 
ATOM     11  C   UNL     1      -3.224  -1.559   0.525  0.00  0.00    +0.054 C 
ATOM     12  C   UNL     1      -3.389  -0.988   1.944  0.00  0.00    +0.119 C 
ATOM     13  N   UNL     1      -2.670   0.296   1.988  0.00  0.00    -0.284 N 
ATOM     14  C   UNL     1      -3.010   1.324   0.997  0.00  0.00    +0.114 C 
ATOM     15  C   UNL     1      -1.721   0.522   2.917  0.00  0.00    +0.306 C 
ATOM     16  O   UNL     1      -1.381  -0.371   3.669  0.00  0.00    -0.252 OA
ATOM     17  N   UNL     1      -1.149   1.738   3.014  0.00  0.00    -0.269 N 
ATOM     18  H   UNL     1      -1.478   2.473   2.473  0.00  0.00    +0.156 HD
ENDROOT
BRANCH  17  19
ATOM     19  C   UNL     1      -0.079   1.941   3.896  0.00  0.00    +0.035 A 
ATOM     20  C   UNL     1       0.859   0.937   4.093  0.00  0.00    +0.027 A 
ATOM     21  C   UNL     1       1.916   1.139   4.959  0.00  0.00    +0.047 A 
ATOM     22  C   UNL     1       2.035   2.342   5.639  0.00  0.00    +0.120 A 
ATOM     23  C   UNL     1       1.095   3.344   5.447  0.00  0.00    +0.047 A 
ATOM     24  C   UNL     1       0.041   3.145   4.577  0.00  0.00    +0.027 A 
BRANCH  22  25
ATOM     25  O   UNL     1       3.072   2.538   6.496  0.00  0.00    -0.495 OA
ATOM     26  C   UNL     1       4.002   1.464   6.646  0.00  0.00    +0.277 C 
ENDBRANCH  22  25
ENDBRANCH  17  19
BRANCH   1  27
ATOM     27  N   UNL     1       2.378  -2.168   0.027  0.00  0.00    -0.211 N 
ATOM     28  H   UNL     1       2.909  -1.466  -0.381  0.00  0.00    +0.174 HD
BRANCH  27  29
ATOM     29  S   UNL     1       3.117  -3.518   0.638  0.00  0.00    +0.072 S 
ATOM     30  O   UNL     1       2.381  -4.635   0.160  0.00  0.00    -0.150 OA
ATOM     31  O   UNL     1       4.509  -3.363   0.396  0.00  0.00    -0.150 OA
BRANCH  29  35
ATOM     32  C   UNL     1       2.566  -3.430   5.132  0.00  0.00    +0.033 A 
ATOM     33  C   UNL     1       1.725  -4.204   4.343  0.00  0.00    +0.025 A 
ATOM     34  C   UNL     1       1.896  -4.228   2.973  0.00  0.00    +0.030 A 
ATOM     35  C   UNL     1       2.902  -3.483   2.386  0.00  0.00    +0.109 A 
ATOM     36  C   UNL     1       3.744  -2.716   3.170  0.00  0.00    +0.030 A 
ATOM     37  C   UNL     1       3.576  -2.683   4.540  0.00  0.00    +0.025 A 
BRANCH  32  41
ATOM     38  C   UNL     1       3.294  -3.388   8.825  0.00  0.00    +0.109 C 
ATOM     39  C   UNL     1       3.469  -3.315   7.330  0.00  0.00    +0.214 C 
ATOM     40  O   UNL     1       4.577  -3.178   6.855  0.00  0.00    -0.276 OA
ATOM     41  N   UNL     1       2.395  -3.402   6.521  0.00  0.00    -0.286 N 
ATOM     42  H   UNL     1       1.504  -3.445   6.901  0.00  0.00    +0.155 HD
ENDBRANCH  32  41
ENDBRANCH  29  35
ENDBRANCH  27  29
ENDBRANCH   1  27
TORSDOF 6
