REMARK  Name = ZINC64055390
REMARK  7 active torsions:
REMARK  status: ('A' for Active; 'I' for Inactive)
REMARK    1  A    between atoms: C_1  and  C_2
REMARK    2  A    between atoms: C_2  and  N_3
REMARK    3  A    between atoms: C_14  and  N_16
REMARK    4  A    between atoms: C_17  and  C_19
REMARK    5  A    between atoms: C_19  and  S_20
REMARK    6  A    between atoms: S_20  and  C_21
REMARK    7  A    between atoms: C_24  and  C_26
REMARK                            x       y       z     vdW  Elec       q    Type
REMARK                         _______ _______ _______ _____ _____    ______ ____
ROOT
ATOM      1  N   UNL     1       5.972  -1.675  -2.393  0.00  0.00    -0.285 N 
ATOM      2  C   UNL     1       6.978  -1.466  -1.522  0.00  0.00    +0.228 C 
ATOM      3  O   UNL     1       6.736  -1.089  -0.395  0.00  0.00    -0.275 OA
ATOM      4  H   UNL     1       6.158  -2.049  -3.269  0.00  0.00    +0.155 HD
ENDROOT
BRANCH   1  16
ATOM      5  N   UNL     1       0.855  -0.207  -0.833  0.00  0.00    -0.340 N 
ATOM      6  C   UNL     1       1.119   0.886  -0.028  0.00  0.00    +0.050 A 
ATOM      7  C   UNL     1       0.291   1.739   0.697  0.00  0.00    +0.026 A 
ATOM      8  C   UNL     1       0.835   2.771   1.430  0.00  0.00    +0.002 A 
ATOM      9  C   UNL     1       2.207   2.971   1.456  0.00  0.00    +0.001 A 
ATOM     10  C   UNL     1       3.043   2.138   0.746  0.00  0.00    +0.010 A 
ATOM     11  C   UNL     1       2.507   1.091  -0.000  0.00  0.00    +0.008 A 
ATOM     12  C   UNL     1       3.102   0.043  -0.851  0.00  0.00    +0.009 A 
ATOM     13  C   UNL     1       2.036  -0.731  -1.333  0.00  0.00    +0.050 A 
ATOM     14  C   UNL     1       2.299  -1.811  -2.170  0.00  0.00    +0.028 A 
ATOM     15  C   UNL     1       3.597  -2.117  -2.516  0.00  0.00    +0.025 A 
ATOM     16  C   UNL     1       4.656  -1.353  -2.035  0.00  0.00    +0.034 A 
ATOM     17  C   UNL     1       4.410  -0.270  -1.208  0.00  0.00    +0.034 A 
BRANCH   5  19
ATOM     18  C   UNL     1      -0.844  -1.787  -0.059  0.00  0.00    +0.027 C 
ATOM     19  C   UNL     1      -0.482  -0.738  -1.112  0.00  0.00    +0.119 C 
ENDBRANCH   5  19
ENDBRANCH   1  16
BRANCH   2  20
ATOM     20  C   UNL     1       8.405  -1.700  -1.948  0.00  0.00    +0.175 C 
BRANCH  20  21
ATOM     21  S   UNL     1       9.518  -1.333  -0.563  0.00  0.00    -0.056 S 
BRANCH  21  22
ATOM     22  C   UNL     1      11.125  -1.651  -1.211  0.00  0.00    +0.278 A 
ATOM     23  N   UNL     1      11.406  -2.057  -2.440  0.00  0.00    -0.101 NA
ATOM     24  N   UNL     1      12.680  -2.187  -2.565  0.00  0.00    -0.107 NA
ATOM     25  C   UNL     1      13.265  -1.869  -1.421  0.00  0.00    +0.248 A 
ATOM     26  O   UNL     1      12.288  -1.520  -0.551  0.00  0.00    -0.411 OA
BRANCH  25  27
ATOM     27  C   UNL     1      14.643  -1.885  -1.161  0.00  0.00    +0.044 C 
ATOM     28  C   UNL     1      15.665  -2.229  -2.046  0.00  0.00    +0.008 A 
ATOM     29  C   UNL     1      15.658  -2.645  -3.395  0.00  0.00    +0.010 A 
ATOM     30  C   UNL     1      16.831  -2.920  -4.021  0.00  0.00    +0.001 A 
ATOM     31  C   UNL     1      18.057  -2.801  -3.362  0.00  0.00    +0.002 A 
ATOM     32  C   UNL     1      18.139  -2.407  -2.067  0.00  0.00    +0.026 A 
ATOM     33  C   UNL     1      16.955  -2.102  -1.347  0.00  0.00    +0.043 A 
ATOM     34  N   UNL     1      16.768  -1.705  -0.104  0.00  0.00    -0.380 N 
ATOM     35  C   UNL     1      15.333  -1.526   0.137  0.00  0.00    +0.154 C 
ATOM     36  H   UNL     1      17.470  -1.553   0.548  0.00  0.00    +0.160 HD
ENDBRANCH  25  27
ENDBRANCH  21  22
ENDBRANCH  20  21
ENDBRANCH   2  20
TORSDOF 6
