REMARK  Name = ZINC62038767
REMARK  8 active torsions:
REMARK  status: ('A' for Active; 'I' for Inactive)
REMARK    1  A    between atoms: C_1  and  C_2
REMARK    2  A    between atoms: C_2  and  C_4
REMARK    3  A    between atoms: C_2  and  S_16
REMARK    4  A    between atoms: N_6  and  C_7
REMARK    5  A    between atoms: C_9  and  C_14
REMARK    6  A    between atoms: C_12  and  O_13
REMARK    7  A    between atoms: S_16  and  C_17
REMARK    8  A    between atoms: C_22  and  C_27
REMARK                            x       y       z     vdW  Elec       q    Type
REMARK                         _______ _______ _______ _____ _____    ______ ____
ROOT
ATOM      1  S   UNL     1       0.875  -0.630   1.472  0.00  0.00    -0.075 S 
ENDROOT
BRANCH   1   2
ATOM      2  C   UNL     1      -0.143  -0.125   2.818  0.00  0.00    +0.171 A 
ATOM      3  N   UNL     1      -1.256   0.534   2.573  0.00  0.00    -0.185 NA
ATOM      4  C   UNL     1      -2.073   0.946   3.546  0.00  0.00    +0.283 A 
ATOM      5  O   UNL     1      -3.097   1.554   3.276  0.00  0.00    -0.265 OA
ATOM      6  C   UNL     1      -1.726   0.657   4.957  0.00  0.00    +0.080 A 
ATOM      7  C   UNL     1      -2.447   0.998   6.178  0.00  0.00    +0.010 A 
ATOM      8  C   UNL     1      -1.923   0.620   7.371  0.00  0.00    +0.057 A 
ATOM      9  S   UNL     1      -0.420  -0.220   6.907  0.00  0.00    -0.078 S 
ATOM     10  C   UNL     1      -0.534  -0.043   5.147  0.00  0.00    +0.093 A 
ATOM     11  N   UNL     1       0.235  -0.429   4.092  0.00  0.00    -0.328 N 
ATOM     12  H   UNL     1       1.058  -0.919   4.247  0.00  0.00    +0.168 HD
BRANCH   7  13
ATOM     13  C   UNL     1      -3.724   1.741   6.118  0.00  0.00    +0.021 A 
ATOM     14  C   UNL     1      -4.918   1.455   6.724  0.00  0.00    +0.016 A 
ATOM     15  C   UNL     1      -5.984   2.305   6.520  0.00  0.00    +0.008 A 
ATOM     16  C   UNL     1      -5.820   3.393   5.727  0.00  0.00    +0.046 A 
ATOM     17  S   UNL     1      -4.108   3.248   5.241  0.00  0.00    -0.097 S 
ENDBRANCH   7  13
ENDBRANCH   1   2
BRANCH   1  19
ATOM     18  C   UNL     1      -0.028   1.508   0.025  0.00  0.00    +0.029 C 
ATOM     19  C   UNL     1      -0.002  -0.021   0.006  0.00  0.00    +0.137 C 
BRANCH  19  20
ATOM     20  C   UNL     1       0.706  -0.496  -1.237  0.00  0.00    +0.230 C 
ATOM     21  O   UNL     1       1.864  -0.852  -1.176  0.00  0.00    -0.274 OA
ATOM     22  N   UNL     1       0.053  -0.526  -2.415  0.00  0.00    -0.282 N 
ATOM     23  H   UNL     1      -0.891  -0.304  -2.453  0.00  0.00    +0.155 HD
BRANCH  22  24
ATOM     24  C   UNL     1       0.737  -0.878  -3.587  0.00  0.00    +0.076 A 
ATOM     25  C   UNL     1       1.744  -1.823  -3.542  0.00  0.00    +0.038 A 
ATOM     26  C   UNL     1       2.425  -2.171  -4.715  0.00  0.00    +0.016 A 
ATOM     27  C   UNL     1       2.081  -1.559  -5.927  0.00  0.00    +0.015 A 
ATOM     28  C   UNL     1       1.076  -0.619  -5.963  0.00  0.00    +0.048 A 
ATOM     29  C   UNL     1       0.397  -0.277  -4.801  0.00  0.00    +0.138 A 
BRANCH  29  30
ATOM     30  O   UNL     1      -0.597   0.647  -4.844  0.00  0.00    -0.505 OA
ATOM     31  H   UNL     1      -0.296   1.555  -4.705  0.00  0.00    +0.292 HD
ENDBRANCH  29  30
BRANCH  26  32
ATOM     32  C   UNL     1       3.496  -3.174  -4.674  0.00  0.00    +0.258 C 
ATOM     33  O   UNL     1       4.085  -3.474  -5.691  0.00  0.00    -0.296 OA
ENDBRANCH  26  32
ENDBRANCH  22  24
ENDBRANCH  19  20
ENDBRANCH   1  19
TORSDOF 7
