REMARK  Name = ZINC21775216
REMARK  8 active torsions:
REMARK  status: ('A' for Active; 'I' for Inactive)
REMARK    1  A    between atoms: C_1  and  N_2
REMARK    2  A    between atoms: N_5  and  C_8
REMARK    3  A    between atoms: C_8  and  C_10
REMARK    4  A    between atoms: C_8  and  C_23
REMARK    5  A    between atoms: C_10  and  N_11
REMARK    6  A    between atoms: N_11  and  S_12
REMARK    7  A    between atoms: S_12  and  C_15
REMARK    8  A    between atoms: N_32  and  C_33
REMARK                            x       y       z     vdW  Elec       q    Type
REMARK                         _______ _______ _______ _____ _____    ______ ____
ROOT
ATOM      1  C   UNL     1       3.740  -2.125   4.678  0.00  0.00    +0.102 C 
ENDROOT
BRANCH   1   2
ATOM      2  C   UNL     1       2.938  -1.645   3.497  0.00  0.00    -0.029 A 
ATOM      3  C   UNL     1       2.197  -2.544   2.751  0.00  0.00    +0.007 A 
ATOM      4  C   UNL     1       1.467  -2.103   1.668  0.00  0.00    +0.024 A 
ATOM      5  C   UNL     1       1.468  -0.752   1.318  0.00  0.00    +0.033 A 
ATOM      6  C   UNL     1       2.207   0.144   2.071  0.00  0.00    -0.026 A 
ATOM      7  C   UNL     1       2.941  -0.307   3.156  0.00  0.00    +0.010 A 
ATOM      8  C   UNL     1       2.237   1.619   1.756  0.00  0.00    +0.038 C 
ATOM      9  C   UNL     1       1.701   1.854   0.342  0.00  0.00    +0.024 C 
ATOM     10  C   UNL     1       0.398   1.059   0.193  0.00  0.00    +0.105 C 
ATOM     11  N   UNL     1       0.716  -0.370   0.208  0.00  0.00    -0.333 N 
ATOM     12  C   UNL     1      -0.503  -1.182   0.095  0.00  0.00    +0.129 C 
ENDBRANCH   1   2
BRANCH   1  17
ATOM     13  C   UNL     1       7.190  -6.494   3.723  0.00  0.00    -0.096 C 
ATOM     14  N   UNL     1       6.558  -5.209   4.050  0.00  0.00    +0.379 N 
ATOM     15  C   UNL     1       5.891  -4.636   2.873  0.00  0.00    -0.064 C 
ATOM     16  C   UNL     1       5.315  -3.264   3.233  0.00  0.00    +0.066 C 
ATOM     17  N   UNL     1       4.372  -3.410   4.351  0.00  0.00    -0.298 NA
ATOM     18  C   UNL     1       5.040  -3.984   5.528  0.00  0.00    +0.066 C 
ATOM     19  C   UNL     1       5.615  -5.355   5.167  0.00  0.00    -0.064 C 
ATOM     20  H   UNL     1       7.351  -4.514   4.363  0.00  0.00    -0.082 HD
ENDBRANCH   1  17
BRANCH   1  21
ATOM     21  C   UNL     1       2.815  -2.304   5.884  0.00  0.00    +0.129 C 
BRANCH  21  22
ATOM     22  N   UNL     1       2.246  -1.007   6.259  0.00  0.00    -0.188 NA
ATOM     23  H   UNL     1       2.781  -0.079   6.009  0.00  0.00    +0.148 HD
BRANCH  22  24
ATOM     24  S   UNL     1       0.935  -0.940   7.269  0.00  0.00    +0.060 S 
ATOM     25  O   UNL     1       0.641   0.438   7.461  0.00  0.00    -0.153 OA
ATOM     26  O   UNL     1      -0.021  -1.858   6.755  0.00  0.00    -0.153 OA
BRANCH  24  27
ATOM     27  C   UNL     1       1.448  -1.568   8.832  0.00  0.00    +0.125 A 
ATOM     28  C   UNL     1       1.479  -0.736   9.936  0.00  0.00    +0.050 A 
ATOM     29  C   UNL     1       1.877  -1.231  11.165  0.00  0.00    +0.043 A 
ATOM     30  C   UNL     1       2.255  -2.557  11.287  0.00  0.00    +0.021 A 
ATOM     31  C   UNL     1       2.230  -3.387  10.183  0.00  0.00    +0.023 A 
ATOM     32  C   UNL     1       1.827  -2.893   8.955  0.00  0.00    +0.067 A 
ATOM     33 CL   UNL     1       1.795  -3.937   7.567  0.00  0.00    -0.082 Cl
ATOM     34 CL   UNL     1       1.909  -0.188  12.552  0.00  0.00    -0.083 Cl
ENDBRANCH  24  27
ENDBRANCH  22  24
ENDBRANCH  21  22
ENDBRANCH   1  21
TORSDOF 6
