REMARK  Name = ZINC22786237
REMARK  7 active torsions:
REMARK  status: ('A' for Active; 'I' for Inactive)
REMARK    1  A    between atoms: C_1  and  C_2
REMARK    2  A    between atoms: C_3  and  C_35
REMARK    3  A    between atoms: C_11  and  C_13
REMARK    4  A    between atoms: C_13  and  N_14
REMARK    5  A    between atoms: N_17  and  C_20
REMARK    6  A    between atoms: C_20  and  C_21
REMARK    7  A    between atoms: C_24  and  C_26
REMARK                            x       y       z     vdW  Elec       q    Type
REMARK                         _______ _______ _______ _____ _____    ______ ____
ROOT
ATOM      1  N   UNL     1       0.104  -4.815   4.051  0.00  0.00    +0.386 N 
ATOM      2  C   UNL     1       1.356  -5.060   3.322  0.00  0.00    -0.063 C 
ATOM      3  C   UNL     1       1.363  -6.495   2.789  0.00  0.00    +0.066 C 
ATOM      4  N   UNL     1       1.239  -7.433   3.914  0.00  0.00    -0.297 NA
ATOM      5  C   UNL     1       0.002  -7.183   4.668  0.00  0.00    +0.066 C 
ATOM      6  C   UNL     1       0.006  -5.743   5.186  0.00  0.00    -0.063 C 
ATOM      7  H   UNL     1      -0.679  -4.958   3.431  0.00  0.00    -0.081 HD
ENDROOT
BRANCH   1   8
ATOM      8  C   UNL     1       0.090  -3.432   4.547  0.00  0.00    -0.003 C 
BRANCH   8  19
ATOM      9  C   UNL     1      -0.018   1.503   0.010  0.00  0.00    +0.045 C 
ATOM     10  C   UNL     1       0.002  -0.004   0.002  0.00  0.00    -0.026 A 
ATOM     11  C   UNL     1       0.006  -0.677  -1.160  0.00  0.00    -0.008 A 
ATOM     12  S   UNL     1       0.032  -2.385  -0.648  0.00  0.00    -0.073 S 
ATOM     13  C   UNL     1       0.037  -2.144   1.110  0.00  0.00    +0.116 A 
ATOM     14  C   UNL     1       0.024  -0.745   1.250  0.00  0.00    +0.075 A 
ATOM     15  C   UNL     1       0.029  -0.257   2.597  0.00  0.00    +0.260 A 
ATOM     16  O   UNL     1       0.014   0.942   2.821  0.00  0.00    -0.267 OA
ATOM     17  N   UNL     1       0.051  -1.142   3.611  0.00  0.00    -0.312 N 
ATOM     18  H   UNL     1       0.054  -0.817   4.525  0.00  0.00    +0.170 HD
ATOM     19  C   UNL     1       0.067  -2.480   3.380  0.00  0.00    +0.094 A 
ATOM     20  N   UNL     1       0.053  -2.956   2.163  0.00  0.00    -0.229 NA
ATOM     21  C   UNL     1      -0.009  -0.122  -2.561  0.00  0.00    +0.052 C 
ENDBRANCH   8  19
ENDBRANCH   1   8
BRANCH   4  22
ATOM     22  C   UNL     1       1.299  -8.824   3.447  0.00  0.00    +0.182 C 
BRANCH  22  23
ATOM     23  C   UNL     1       1.416  -9.747   4.633  0.00  0.00    +0.232 A 
ATOM     24  N   UNL     1       0.427 -10.286   5.289  0.00  0.00    -0.111 NA
ATOM     25  N   UNL     1       0.888 -11.017   6.241  0.00  0.00    -0.107 NA
ATOM     26  C   UNL     1       2.202 -10.970   6.226  0.00  0.00    +0.255 A 
ATOM     27  O   UNL     1       2.560 -10.168   5.202  0.00  0.00    -0.418 OA
BRANCH  26  28
ATOM     28  C   UNL     1       3.112 -11.666   7.148  0.00  0.00    +0.076 A 
ATOM     29  C   UNL     1       2.809 -12.504   8.201  0.00  0.00    +0.024 A 
ATOM     30  C   UNL     1       3.838 -13.060   8.950  0.00  0.00    -0.036 A 
ATOM     31  C   UNL     1       5.111 -12.732   8.585  0.00  0.00    -0.006 A 
ATOM     32  S   UNL     1       4.898 -11.654   7.194  0.00  0.00    -0.088 S 
ATOM     33  C   UNL     1       6.385 -13.188   9.220  0.00  0.00    +0.043 C 
ATOM     34  C   UNL     1       6.050 -13.800  10.589  0.00  0.00    +0.005 C 
ATOM     35  C   UNL     1       4.879 -14.772  10.419  0.00  0.00    +0.005 C 
ATOM     36  C   UNL     1       3.593 -13.997  10.130  0.00  0.00    +0.036 C 
ENDBRANCH  26  28
ENDBRANCH  22  23
ENDBRANCH   4  22
TORSDOF 5
