REMARK  Name = ZINC00906016
REMARK  11 active torsions:
REMARK  status: ('A' for Active; 'I' for Inactive)
REMARK    1  A    between atoms: C_1  and  N_2
REMARK    2  A    between atoms: N_2  and  C_3
REMARK    3  A    between atoms: N_2  and  C_4
REMARK    4  A    between atoms: C_7  and  C_10
REMARK    5  A    between atoms: C_10  and  C_12
REMARK    6  A    between atoms: C_10  and  N_21
REMARK    7  A    between atoms: N_14  and  C_15
REMARK    8  A    between atoms: N_21  and  C_22
REMARK    9  A    between atoms: C_22  and  C_23
REMARK   10  A    between atoms: C_32  and  C_34
REMARK   11  A    between atoms: C_34  and  N_35
REMARK                            x       y       z     vdW  Elec       q    Type
REMARK                         _______ _______ _______ _____ _____    ______ ____
ROOT
ATOM      1  N   UNL     1      -2.007   7.137  -9.812  0.00  0.00    -0.280 N 
ATOM      2  C   UNL     1      -2.458   8.306  -9.317  0.00  0.00    +0.238 C 
ATOM      3  O   UNL     1      -3.621   8.418  -8.991  0.00  0.00    -0.274 OA
ENDROOT
BRANCH   1   4
ATOM      4  C   UNL     1      -2.942   6.037 -10.062  0.00  0.00    +0.193 C 
BRANCH   4   8
ATOM      5  C   UNL     1      -2.453   3.040  -7.054  0.00  0.00    +0.029 A 
ATOM      6  C   UNL     1      -3.726   3.401  -7.476  0.00  0.00    +0.023 A 
ATOM      7  C   UNL     1      -3.880   4.370  -8.448  0.00  0.00    +0.008 A 
ATOM      8  C   UNL     1      -2.769   4.980  -9.001  0.00  0.00    -0.018 A 
ATOM      9  C   UNL     1      -1.500   4.619  -8.587  0.00  0.00    +0.008 A 
ATOM     10  C   UNL     1      -1.339   3.655  -7.611  0.00  0.00    +0.023 A 
BRANCH   5  12
ATOM     11  C   UNL     1      -3.466   1.383  -5.514  0.00  0.00    +0.129 C 
ATOM     12  N   UNL     1      -2.293   2.060  -6.071  0.00  0.00    -0.336 N 
ATOM     13  C   UNL     1      -0.951   1.710  -5.598  0.00  0.00    +0.129 C 
ENDBRANCH   5  12
ENDBRANCH   4   8
BRANCH   4  14
ATOM     14  C   UNL     1      -2.664   5.439 -11.417  0.00  0.00    +0.238 C 
ATOM     15  O   UNL     1      -1.537   5.097 -11.709  0.00  0.00    -0.273 OA
ATOM     16  N   UNL     1      -3.667   5.283 -12.303  0.00  0.00    -0.311 N 
ATOM     17  H   UNL     1      -4.567   5.556 -12.069  0.00  0.00    +0.149 HD
BRANCH  16  18
ATOM     18  C   UNL     1      -3.396   4.702 -13.621  0.00  0.00    +0.073 C 
ATOM     19  C   UNL     1      -2.919   5.799 -14.574  0.00  0.00    +0.022 C 
ATOM     20  C   UNL     1      -2.637   5.192 -15.950  0.00  0.00    +0.002 C 
ATOM     21  C   UNL     1      -3.916   4.559 -16.500  0.00  0.00    +0.000 C 
ATOM     22  C   UNL     1      -4.393   3.461 -15.547  0.00  0.00    +0.002 C 
ATOM     23  C   UNL     1      -4.675   4.069 -14.171  0.00  0.00    +0.022 C 
ENDBRANCH  16  18
ENDBRANCH   4  14
ENDBRANCH   1   4
BRANCH   1  24
ATOM     24  C   UNL     1      -0.581   6.965 -10.100  0.00  0.00    +0.144 C 
BRANCH  24  25
ATOM     25  C   UNL     1      -0.192   7.853 -11.254  0.00  0.00    -0.026 A 
ATOM     26  C   UNL     1      -1.164   8.340 -12.109  0.00  0.00    +0.009 A 
ATOM     27  C   UNL     1      -0.812   9.159 -13.165  0.00  0.00    +0.050 A 
ATOM     28  C   UNL     1       0.518   9.484 -13.378  0.00  0.00    +0.166 A 
ATOM     29  C   UNL     1       1.497   8.990 -12.520  0.00  0.00    +0.167 A 
ATOM     30  C   UNL     1       1.137   8.174 -11.460  0.00  0.00    +0.054 A 
ATOM     31  O   UNL     1       2.714   9.449 -12.937  0.00  0.00    -0.453 OA
ATOM     32  C   UNL     1       2.514   9.893 -14.292  0.00  0.00    +0.466 C 
ATOM     33  O   UNL     1       1.120  10.253 -14.331  0.00  0.00    -0.453 OA
ENDBRANCH  24  25
ENDBRANCH   1  24
BRANCH   2  34
ATOM     34  C   UNL     1      -1.518   9.474  -9.168  0.00  0.00    +0.241 C 
BRANCH  34  35
ATOM     35  N   UNL     1      -2.184  10.544  -8.421  0.00  0.00    -0.235 N 
ATOM     36  C   UNL     1      -2.935  11.569  -8.945  0.00  0.00    +0.090 A 
ATOM     37  C   UNL     1      -3.308  11.932 -10.235  0.00  0.00    +0.029 A 
ATOM     38  C   UNL     1      -4.080  13.042 -10.432  0.00  0.00    +0.002 A 
ATOM     39  C   UNL     1      -4.507  13.807  -9.354  0.00  0.00    +0.002 A 
ATOM     40  C   UNL     1      -4.159  13.470  -8.079  0.00  0.00    +0.032 A 
ATOM     41  C   UNL     1      -3.363  12.339  -7.850  0.00  0.00    +0.113 A 
ATOM     42  N   UNL     1      -2.871  11.770  -6.732  0.00  0.00    -0.129 NA
ATOM     43  N   UNL     1      -2.181  10.725  -7.030  0.00  0.00    -0.064 NA
ENDBRANCH  34  35
ENDBRANCH   2  34
TORSDOF 9
