REMARK  Name = ZINC13064838
REMARK  11 active torsions:
REMARK  status: ('A' for Active; 'I' for Inactive)
REMARK    1  A    between atoms: C_1  and  C_2
REMARK    2  A    between atoms: C_2  and  C_3
REMARK    3  A    between atoms: C_3  and  C_5
REMARK    4  A    between atoms: C_3  and  N_75
REMARK    5  A    between atoms: N_9  and  C_10
REMARK    6  A    between atoms: C_16  and  C_17
REMARK    7  A    between atoms: C_16  and  N_75
REMARK    8  A    between atoms: C_26  and  C_27
REMARK    9  A    between atoms: C_26  and  N_75
REMARK   10  A    between atoms: C_30  and  C_40
REMARK   11  A    between atoms: C_32  and  C_39
REMARK                            x       y       z     vdW  Elec       q    Type
REMARK                         _______ _______ _______ _____ _____    ______ ____
ROOT
ATOM      1  N   UNL     1       5.220   4.521  -1.520  0.00  0.00    +0.392 N 
ATOM      2  H   UNL     1       5.340   3.655  -2.059  0.00  0.00    -0.080 HD
ENDROOT
BRANCH   1   3
ATOM      3  C   UNL     1       6.499   5.262  -1.508  0.00  0.00    +0.003 C 
BRANCH   3   4
ATOM      4  C   UNL     1       6.447   6.386  -0.506  0.00  0.00    +0.138 A 
ATOM      5  N   UNL     1       6.052   6.307   0.741  0.00  0.00    -0.115 NA
ATOM      6  N   UNL     1       6.157   7.478   1.267  0.00  0.00    -0.023 NA
ATOM      7  N   UNL     1       6.603   8.304   0.387  0.00  0.00    -0.044 NA
ATOM      8  N   UNL     1       6.794   7.669  -0.720  0.00  0.00    -0.228 N 
BRANCH   8   9
ATOM      9  C   UNL     1       7.294   8.238  -1.974  0.00  0.00    +0.111 C 
ATOM     10  C   UNL     1       8.688   8.826  -1.747  0.00  0.00    +0.027 C 
ATOM     11  C   UNL     1       9.211   9.420  -3.057  0.00  0.00    +0.002 C 
ATOM     12  C   UNL     1       8.263  10.523  -3.530  0.00  0.00    +0.000 C 
ATOM     13  C   UNL     1       6.869   9.935  -3.758  0.00  0.00    +0.002 C 
ATOM     14  C   UNL     1       6.346   9.341  -2.448  0.00  0.00    +0.027 C 
ENDBRANCH   8   9
ENDBRANCH   3   4
BRANCH   3  16
ATOM     15  C   UNL     1       7.770   3.234  -2.225  0.00  0.00    +0.002 C 
ATOM     16  C   UNL     1       7.623   4.295  -1.132  0.00  0.00    -0.011 C 
ENDBRANCH   3  16
ENDBRANCH   1   3
BRANCH   1  17
ATOM     17  C   UNL     1       4.168   5.341  -2.158  0.00  0.00    -0.041 C 
BRANCH  17  18
ATOM     18  C   UNL     1       4.431   5.399  -3.641  0.00  0.00    -0.060 A 
ATOM     19  C   UNL     1       5.087   6.489  -4.183  0.00  0.00    +0.005 A 
ATOM     20  C   UNL     1       5.336   6.544  -5.541  0.00  0.00    +0.050 A 
ATOM     21  C   UNL     1       4.917   5.512  -6.365  0.00  0.00    +0.166 A 
ATOM     22  C   UNL     1       4.252   4.416  -5.820  0.00  0.00    +0.166 A 
ATOM     23  C   UNL     1       4.011   4.365  -4.457  0.00  0.00    +0.051 A 
ATOM     24  O   UNL     1       3.948   3.546  -6.827  0.00  0.00    -0.453 OA
ATOM     25  C   UNL     1       4.070   4.306  -8.043  0.00  0.00    +0.466 C 
ATOM     26  O   UNL     1       5.030   5.327  -7.713  0.00  0.00    -0.453 OA
ENDBRANCH  17  18
ENDBRANCH   1  17
BRANCH   1  27
ATOM     27  C   UNL     1       4.822   4.175  -0.139  0.00  0.00    -0.036 C 
BRANCH  27  28
ATOM     28  C   UNL     1       3.834   3.038  -0.192  0.00  0.00    +0.001 A 
ATOM     29  C   UNL     1       4.269   1.760  -0.069  0.00  0.00    +0.017 A 
ATOM     30  C   UNL     1       3.283   0.678  -0.124  0.00  0.00    +0.002 A 
ATOM     31  C   UNL     1       3.671  -0.660  -0.002  0.00  0.00    -0.041 A 
ATOM     32  C   UNL     1       2.727  -1.646  -0.058  0.00  0.00    +0.007 A 
ATOM     33  C   UNL     1       1.386  -1.332  -0.235  0.00  0.00    -0.048 A 
ATOM     34  C   UNL     1       0.982  -0.020  -0.357  0.00  0.00    +0.029 A 
ATOM     35  C   UNL     1       1.925   1.001  -0.303  0.00  0.00    +0.050 A 
ATOM     36  N   UNL     1       1.549   2.322  -0.423  0.00  0.00    -0.322 N 
ATOM     37  H   UNL     1       0.612   2.543  -0.547  0.00  0.00    +0.169 HD
ATOM     38  C   UNL     1       2.461   3.308  -0.371  0.00  0.00    +0.251 A 
ATOM     39  O   UNL     1       2.092   4.465  -0.481  0.00  0.00    -0.268 OA
ATOM     40  C   UNL     1       0.362  -2.436  -0.293  0.00  0.00    +0.044 C 
ATOM     41  C   UNL     1       5.123  -1.013   0.191  0.00  0.00    +0.044 C 
ENDBRANCH  27  28
ENDBRANCH   1  27
TORSDOF 8
