REMARK  Name = ZINC53271743
REMARK  6 active torsions:
REMARK  status: ('A' for Active; 'I' for Inactive)
REMARK    1  A    between atoms: C_1  and  C_2
REMARK    2  A    between atoms: N_5  and  C_8
REMARK    3  A    between atoms: C_8  and  C_10
REMARK    4  A    between atoms: C_8  and  C_26
REMARK    5  A    between atoms: C_10  and  N_11
REMARK    6  A    between atoms: C_12  and  C_14
REMARK                            x       y       z     vdW  Elec       q    Type
REMARK                         _______ _______ _______ _____ _____    ______ ____
ROOT
ATOM      1  N   UNL     1      -2.242  -5.869   1.705  0.00  0.00    -0.311 N 
ATOM      2  C   UNL     1      -3.428  -6.505   1.770  0.00  0.00    +0.260 C 
ATOM      3  O   UNL     1      -4.463  -5.867   1.742  0.00  0.00    -0.269 OA
ATOM      4  H   UNL     1      -1.417  -6.378   1.727  0.00  0.00    +0.149 HD
ENDROOT
BRANCH   2   5
ATOM      5  C   UNL     1      -3.471  -7.975   1.874  0.00  0.00    +0.105 A 
ATOM      6  C   UNL     1      -4.676  -8.595   1.933  0.00  0.00    +0.039 A 
ATOM      7  C   UNL     1      -4.730 -10.053   2.036  0.00  0.00    -0.011 A 
ATOM      8  C   UNL     1      -5.943 -10.742   2.099  0.00  0.00    +0.009 A 
ATOM      9  C   UNL     1      -5.939 -12.116   2.195  0.00  0.00    +0.001 A 
ATOM     10  C   UNL     1      -4.744 -12.821   2.230  0.00  0.00    +0.001 A 
ATOM     11  C   UNL     1      -3.535 -12.162   2.170  0.00  0.00    +0.014 A 
ATOM     12  C   UNL     1      -3.513 -10.772   2.071  0.00  0.00    +0.046 A 
ATOM     13  C   UNL     1      -2.252 -10.021   2.003  0.00  0.00    +0.257 A 
ATOM     14  O   UNL     1      -1.185 -10.607   2.031  0.00  0.00    -0.267 OA
ATOM     15  N   UNL     1      -2.286  -8.678   1.904  0.00  0.00    -0.318 N 
ATOM     16  H   UNL     1      -1.449  -8.189   1.855  0.00  0.00    +0.169 HD
ENDBRANCH   2   5
BRANCH   1  17
ATOM     17  C   UNL     1      -2.199  -4.408   1.601  0.00  0.00    +0.094 C 
BRANCH  17  18
ATOM     18  C   UNL     1      -0.749  -3.951   1.434  0.00  0.00    -0.013 C 
BRANCH  18  23
ATOM     19  C   UNL     1      -0.050   1.431  -0.320  0.00  0.00    +0.007 C 
ATOM     20  C   UNL     1      -0.022  -0.097  -0.232  0.00  0.00    -0.018 C 
ATOM     21  C   UNL     1      -1.455  -0.633  -0.171  0.00  0.00    -0.015 C 
ATOM     22  C   UNL     1      -1.418  -2.153  -0.003  0.00  0.00    -0.078 C 
ATOM     23  N   UNL     1      -0.714  -2.495   1.238  0.00  0.00    +0.386 N 
ATOM     24  C   UNL     1       0.682  -2.047   1.158  0.00  0.00    -0.078 C 
ATOM     25  C   UNL     1       0.726  -0.523   1.035  0.00  0.00    -0.015 C 
ATOM     26  H   UNL     1      -1.167  -2.042   2.017  0.00  0.00    -0.081 HD
ENDBRANCH  18  23
BRANCH  18  27
ATOM     27  C   UNL     1       0.037  -4.310   2.669  0.00  0.00    -0.022 A 
ATOM     28  C   UNL     1       0.877  -5.355   2.872  0.00  0.00    +0.009 A 
ATOM     29  C   UNL     1       1.497  -5.487   4.100  0.00  0.00    +0.008 A 
ATOM     30  C   UNL     1       1.246  -4.569   5.065  0.00  0.00    +0.045 A 
ATOM     31  S   UNL     1       0.109  -3.467   4.241  0.00  0.00    -0.103 S 
ENDBRANCH  18  27
ENDBRANCH  17  18
ENDBRANCH   1  17
TORSDOF 5
