REMARK  Name = ZINC19890030
REMARK  9 active torsions:
REMARK  status: ('A' for Active; 'I' for Inactive)
REMARK    1  A    between atoms: C_1  and  C_2
REMARK    2  A    between atoms: C_9  and  C_11
REMARK    3  A    between atoms: C_14  and  N_17
REMARK    4  A    between atoms: C_21  and  N_25
REMARK    5  A    between atoms: N_25  and  C_26
REMARK    6  A    between atoms: C_26  and  C_27
REMARK    7  A    between atoms: C_27  and  C_28
REMARK    8  A    between atoms: C_33  and  O_34
REMARK    9  A    between atoms: O_34  and  C_35
REMARK                            x       y       z     vdW  Elec       q    Type
REMARK                         _______ _______ _______ _____ _____    ______ ____
ROOT
ATOM      1  N   UNL     1       0.342   2.333   1.940  0.00  0.00    -0.212 N 
ATOM      2  C   UNL     1       1.494   2.461   1.272  0.00  0.00    +0.225 C 
ATOM      3  O   UNL     1       2.452   3.107   1.641  0.00  0.00    -0.275 OA
ATOM      4  C   UNL     1       1.413   1.673  -0.017  0.00  0.00    +0.090 C 
ATOM      5  C   UNL     1      -0.002   1.061   0.022  0.00  0.00    +0.026 C 
ATOM      6  C   UNL     1      -0.571   1.567   1.330  0.00  0.00    +0.213 C 
ATOM      7  O   UNL     1      -1.678   1.319   1.757  0.00  0.00    -0.277 OA
ENDROOT
BRANCH   1  11
ATOM      8  C   UNL     1      -0.349   4.166   5.623  0.00  0.00    +0.007 A 
ATOM      9  C   UNL     1      -1.065   4.571   4.494  0.00  0.00    +0.012 A 
ATOM     10  C   UNL     1      -0.834   3.963   3.279  0.00  0.00    +0.024 A 
ATOM     11  C   UNL     1       0.110   2.948   3.176  0.00  0.00    +0.044 A 
ATOM     12  C   UNL     1       0.820   2.538   4.299  0.00  0.00    +0.024 A 
ATOM     13  C   UNL     1       0.598   3.146   5.516  0.00  0.00    +0.012 A 
BRANCH   8  22
ATOM     14  C   UNL     1      -1.601   7.571  12.593  0.00  0.00    +0.044 C 
ATOM     15  C   UNL     1      -1.577   7.114  11.157  0.00  0.00    -0.049 A 
ATOM     16  C   UNL     1      -2.413   7.704  10.220  0.00  0.00    +0.005 A 
ATOM     17  C   UNL     1      -2.415   7.314   8.917  0.00  0.00    +0.029 A 
ATOM     18  C   UNL     1      -1.556   6.283   8.468  0.00  0.00    +0.079 A 
ATOM     19  C   UNL     1      -0.715   5.701   9.447  0.00  0.00    +0.040 A 
ATOM     20  C   UNL     1      -0.722   6.103  10.760  0.00  0.00    +0.020 A 
ATOM     21  S   UNL     1       0.173   4.482   8.507  0.00  0.00    -0.067 S 
ATOM     22  C   UNL     1      -0.594   4.815   6.928  0.00  0.00    +0.109 A 
ATOM     23  N   UNL     1      -1.435   5.782   7.223  0.00  0.00    -0.239 NA
ENDBRANCH   8  22
ENDBRANCH   1  11
BRANCH   5  24
ATOM     24  N   UNL     1      -0.804   1.537  -1.113  0.00  0.00    +0.387 N 
ATOM     25  H   UNL     1      -1.232   2.521  -0.872  0.00  0.00    -0.085 HD
ATOM     26  H   UNL     1      -0.163   1.624  -2.003  0.00  0.00    -0.085 HD
BRANCH  24  27
ATOM     27  C   UNL     1      -1.900   0.606  -1.410  0.00  0.00    -0.077 C 
BRANCH  27  28
ATOM     28  C   UNL     1      -2.711   1.135  -2.595  0.00  0.00    +0.020 C 
BRANCH  28  29
ATOM     29  C   UNL     1      -3.836   0.180  -2.901  0.00  0.00    -0.007 A 
ATOM     30  C   UNL     1      -3.674  -0.792  -3.869  0.00  0.00    +0.007 A 
ATOM     31  C   UNL     1      -4.705  -1.669  -4.149  0.00  0.00    +0.000 A 
ATOM     32  C   UNL     1      -5.901  -1.576  -3.461  0.00  0.00    +0.004 A 
ATOM     33  C   UNL     1      -6.068  -0.605  -2.492  0.00  0.00    +0.046 A 
ATOM     34  C   UNL     1      -5.033   0.272  -2.205  0.00  0.00    +0.123 A 
BRANCH  34  35
ATOM     35  O   UNL     1      -5.192   1.224  -1.248  0.00  0.00    -0.495 OA
ATOM     36  C   UNL     1      -6.451   1.260  -0.573  0.00  0.00    +0.277 C 
ENDBRANCH  34  35
ENDBRANCH  28  29
ENDBRANCH  27  28
ENDBRANCH  24  27
ENDBRANCH   5  24
TORSDOF 7
