REMARK  Name = ZINC39666899
REMARK  13 active torsions:
REMARK  status: ('A' for Active; 'I' for Inactive)
REMARK    1  A    between atoms: C_1  and  C_2
REMARK    2  A    between atoms: C_2  and  C_3
REMARK    3  A    between atoms: C_3  and  C_4
REMARK    4  A    between atoms: C_3  and  C_6
REMARK    5  A    between atoms: C_4  and  C_5
REMARK    6  A    between atoms: C_6  and  N_7
REMARK    7  A    between atoms: C_8  and  C_10
REMARK    8  A    between atoms: C_21  and  C_23
REMARK    9  A    between atoms: C_23  and  C_25
REMARK   10  A    between atoms: C_23  and  O_28
REMARK   11  A    between atoms: C_25  and  C_26
REMARK   12  A    between atoms: C_25  and  C_27
REMARK   13  A    between atoms: O_28  and  C_29
REMARK                            x       y       z     vdW  Elec       q    Type
REMARK                         _______ _______ _______ _____ _____    ______ ____
ROOT
ATOM      1  C   UNL     1      -3.086  -4.774  -1.741  0.00  0.00    +0.100 C 
ATOM      2  C   UNL     1      -4.206  -4.078  -0.935  0.00  0.00    +0.121 C 
ATOM      3  N   UNL     1      -5.282  -5.092  -0.837  0.00  0.00    -0.297 N 
ATOM      4  C   UNL     1      -4.565  -6.372  -0.620  0.00  0.00    +0.115 C 
ATOM      5  C   UNL     1      -3.325  -6.279  -1.531  0.00  0.00    -0.004 C 
ATOM      6  C   UNL     1      -2.119  -6.915  -0.846  0.00  0.00    -0.010 C 
ATOM      7  C   UNL     1      -2.355  -8.421  -0.700  0.00  0.00    -0.082 C 
ATOM      8  N   UNL     1      -2.560  -9.016  -2.026  0.00  0.00    +0.379 N 
ATOM      9  C   UNL     1      -3.775  -8.466  -2.639  0.00  0.00    -0.082 C 
ATOM     10  C   UNL     1      -3.599  -6.962  -2.867  0.00  0.00    -0.010 C 
ATOM     11  C   UNL     1      -6.613  -4.896  -0.926  0.00  0.00    +0.257 C 
ATOM     12  O   UNL     1      -7.046  -3.797  -1.199  0.00  0.00    -0.272 OA
ATOM     13  H   UNL     1      -1.766  -8.809  -2.613  0.00  0.00    -0.086 HD
ATOM     14  H   UNL     1      -2.655 -10.016  -1.933  0.00  0.00    -0.086 HD
ENDROOT
BRANCH   1  16
ATOM     15  N   UNL     1      -0.669  -4.341  -2.036  0.00  0.00    -0.315 N 
ATOM     16  C   UNL     1      -1.733  -4.378  -1.209  0.00  0.00    +0.218 C 
ATOM     17  O   UNL     1      -1.602  -4.093  -0.038  0.00  0.00    -0.275 OA
ATOM     18  H   UNL     1      -0.774  -4.569  -2.973  0.00  0.00    +0.149 HD
BRANCH  15  19
ATOM     19  C   UNL     1       0.647  -3.956  -1.518  0.00  0.00    +0.107 C 
BRANCH  19  20
ATOM     20  C   UNL     1       1.672  -3.995  -2.654  0.00  0.00    +0.006 C 
BRANCH  20  22
ATOM     21  C   UNL     1       2.258  -3.063  -4.897  0.00  0.00    +0.004 C 
ATOM     22  C   UNL     1       1.320  -2.931  -3.696  0.00  0.00    +0.002 C 
ENDBRANCH  20  22
BRANCH  20  23
ATOM     23  C   UNL     1       3.067  -3.714  -2.091  0.00  0.00    +0.002 C 
ATOM     24  C   UNL     1       3.474  -4.850  -1.149  0.00  0.00    +0.004 C 
ENDBRANCH  20  23
ENDBRANCH  19  20
ENDBRANCH  15  19
ENDBRANCH   1  16
BRANCH  11  25
ATOM     25  C   UNL     1      -7.561  -6.042  -0.687  0.00  0.00    +0.261 C 
BRANCH  25  26
ATOM     26  C   UNL     1      -7.485  -6.469   0.781  0.00  0.00    +0.033 C 
ATOM     27  C   UNL     1      -7.991  -5.331   1.669  0.00  0.00    +0.011 C 
ATOM     28  C   UNL     1      -8.354  -7.710   0.997  0.00  0.00    +0.011 C 
ENDBRANCH  25  26
BRANCH  25  29
ATOM     29  O   UNL     1      -8.894  -5.630  -0.995  0.00  0.00    -0.479 OA
BRANCH  29  30
ATOM     30  C   UNL     1      -9.707  -6.553  -1.573  0.00  0.00    +0.122 A 
ATOM     31  C   UNL     1     -11.023  -6.229  -1.871  0.00  0.00    +0.045 A 
ATOM     32  C   UNL     1     -11.848  -7.169  -2.459  0.00  0.00    +0.004 A 
ATOM     33  C   UNL     1     -11.363  -8.430  -2.750  0.00  0.00    +0.000 A 
ATOM     34  C   UNL     1     -10.052  -8.755  -2.454  0.00  0.00    +0.004 A 
ATOM     35  C   UNL     1      -9.222  -7.817  -1.871  0.00  0.00    +0.045 A 
ENDBRANCH  29  30
ENDBRANCH  25  29
ENDBRANCH  11  25
TORSDOF 9
