REMARK  Name = ZINC44568528
REMARK  9 active torsions:
REMARK  status: ('A' for Active; 'I' for Inactive)
REMARK    1  A    between atoms: C_1  and  O_2
REMARK    2  A    between atoms: O_2  and  C_3
REMARK    3  A    between atoms: C_3  and  C_5
REMARK    4  A    between atoms: C_5  and  C_6
REMARK    5  A    between atoms: C_6  and  C_7
REMARK    6  A    between atoms: C_7  and  N_8
REMARK    7  A    between atoms: C_20  and  C_22
REMARK    8  A    between atoms: C_27  and  O_28
REMARK    9  A    between atoms: O_28  and  C_29
REMARK                            x       y       z     vdW  Elec       q    Type
REMARK                         _______ _______ _______ _____ _____    ______ ____
ROOT
ATOM      1  N   UNL     1       1.874  -6.425  -3.241  0.00  0.00    -0.299 N 
ATOM      2  C   UNL     1       2.442  -5.589  -4.132  0.00  0.00    +0.303 C 
ATOM      3  O   UNL     1       2.305  -4.387  -4.012  0.00  0.00    -0.253 OA
ATOM      4  N   UNL     1       3.162  -6.085  -5.158  0.00  0.00    -0.273 N 
ATOM      5  C   UNL     1       3.889  -5.190  -6.071  0.00  0.00    +0.116 C 
ATOM      6  C   UNL     1       5.395  -5.451  -5.936  0.00  0.00    +0.074 C 
ATOM      7  C   UNL     1       5.631  -6.939  -5.929  0.00  0.00    +0.040 A 
ATOM      8  C   UNL     1       4.684  -7.869  -5.685  0.00  0.00    +0.062 A 
ATOM      9  N   UNL     1       5.255  -9.073  -5.759  0.00  0.00    -0.348 N 
ATOM     10  C   UNL     1       6.524  -8.928  -6.043  0.00  0.00    +0.171 A 
ATOM     11  N   UNL     1       6.795  -7.607  -6.158  0.00  0.00    -0.349 N 
ATOM     12  H   UNL     1       7.657  -7.212  -6.365  0.00  0.00    +0.166 HD
ATOM     13  C   UNL     1       3.244  -7.539  -5.388  0.00  0.00    +0.160 C 
ATOM     14  H   UNL     1       1.920  -7.384  -3.377  0.00  0.00    +0.150 HD
ATOM     15  H   UNL     1       4.803  -9.920  -5.624  0.00  0.00    +0.167 HD
ENDROOT
BRANCH  13  16
ATOM     16  C   UNL     1       2.382  -7.922  -6.563  0.00  0.00    +0.021 A 
ATOM     17  C   UNL     1       2.963  -8.199  -7.786  0.00  0.00    +0.009 A 
ATOM     18  C   UNL     1       2.172  -8.550  -8.864  0.00  0.00    +0.001 A 
ATOM     19  C   UNL     1       0.799  -8.625  -8.723  0.00  0.00    +0.004 A 
ATOM     20  C   UNL     1       0.213  -8.349  -7.502  0.00  0.00    +0.046 A 
ATOM     21  C   UNL     1       1.005  -8.002  -6.417  0.00  0.00    +0.135 A 
BRANCH  21  22
ATOM     22  O   UNL     1       0.432  -7.735  -5.214  0.00  0.00    -0.405 OA
BRANCH  22  23
ATOM     23  C   UNL     1      -0.991  -7.837  -5.137  0.00  0.00    +0.575 C 
ATOM     24  F   UNL     1      -1.384  -9.141  -5.460  0.00  0.00    -0.133 F 
ATOM     25  F   UNL     1      -1.411  -7.532  -3.837  0.00  0.00    -0.133 F 
ATOM     26  F   UNL     1      -1.573  -6.939  -6.037  0.00  0.00    -0.133 F 
ENDBRANCH  22  23
ENDBRANCH  21  22
ENDBRANCH  13  16
BRANCH   1  27
ATOM     27  C   UNL     1       1.187  -5.885  -2.065  0.00  0.00    +0.106 C 
BRANCH  27  28
ATOM     28  C   UNL     1       0.636  -7.037  -1.222  0.00  0.00    +0.030 C 
BRANCH  28  29
ATOM     29  C   UNL     1      -0.082  -6.473   0.006  0.00  0.00    +0.122 C 
BRANCH  29  30
ATOM     30  C   UNL     1      -0.624  -7.608   0.836  0.00  0.00    +0.307 C 
ATOM     31  O   UNL     1      -0.454  -8.750   0.482  0.00  0.00    -0.251 OA
BRANCH  30  33
ATOM     32  C   UNL     1      -1.782  -8.473   2.706  0.00  0.00    +0.280 C 
ATOM     33  O   UNL     1      -1.296  -7.349   1.969  0.00  0.00    -0.468 OA
ENDBRANCH  30  33
ENDBRANCH  29  30
ENDBRANCH  28  29
ENDBRANCH  27  28
ENDBRANCH   1  27
TORSDOF 8
