REMARK  Name = ZINC59015759
REMARK  7 active torsions:
REMARK  status: ('A' for Active; 'I' for Inactive)
REMARK    1  A    between atoms: C_3  and  C_9
REMARK    2  A    between atoms: N_10  and  N_11
REMARK    3  A    between atoms: C_14  and  S_17
REMARK    4  A    between atoms: S_17  and  C_18
REMARK    5  A    between atoms: C_18  and  C_19
REMARK    6  A    between atoms: N_21  and  C_22
REMARK    7  A    between atoms: C_23  and  C_30
REMARK                            x       y       z     vdW  Elec       q    Type
REMARK                         _______ _______ _______ _____ _____    ______ ____
ROOT
ATOM      1  N   UNL     1       5.990   2.242  -0.044  0.00  0.00    -0.205 N 
ATOM      2  C   UNL     1       7.196   1.565  -0.059  0.00  0.00    +0.232 A 
ATOM      3  N   UNL     1       7.350   0.257  -0.073  0.00  0.00    -0.186 NA
ATOM      4  C   UNL     1       8.653  -0.042  -0.086  0.00  0.00    +0.211 A 
ATOM      5  N   UNL     1       9.347   1.071  -0.080  0.00  0.00    -0.144 NA
ATOM      6  N   UNL     1       8.423   2.129  -0.068  0.00  0.00    -0.245 N 
ATOM      7  H   UNL     1       5.979   3.212  -0.039  0.00  0.00    +0.177 HD
ATOM      8  H   UNL     1       8.626   3.077  -0.065  0.00  0.00    +0.192 HD
ENDROOT
BRANCH   1  10
ATOM      9  C   UNL     1       3.654   2.162  -0.022  0.00  0.00    +0.139 C 
ATOM     10  N   UNL     1       4.786   1.526  -0.036  0.00  0.00    -0.188 NA
BRANCH   9  13
ATOM     11  C   UNL     1      -0.017   1.379   0.010  0.00  0.00    +0.002 A 
ATOM     12  C   UNL     1       1.166   2.089   0.002  0.00  0.00    +0.011 A 
ATOM     13  C   UNL     1       2.386   1.409  -0.013  0.00  0.00    +0.014 A 
ATOM     14  C   UNL     1       2.399   0.011  -0.021  0.00  0.00    +0.068 A 
ATOM     15  C   UNL     1       1.207  -0.687  -0.013  0.00  0.00    +0.060 A 
ATOM     16  C   UNL     1       0.002  -0.004   0.002  0.00  0.00    +0.021 A 
ATOM     17 CL   UNL     1       1.219  -2.423  -0.022  0.00  0.00    -0.082 Cl
ATOM     18 CL   UNL     1       3.909  -0.845  -0.040  0.00  0.00    -0.081 Cl
ENDBRANCH   9  13
ENDBRANCH   1  10
BRANCH   4  19
ATOM     19  S   UNL     1       9.329  -1.669  -0.106  0.00  0.00    -0.075 S 
BRANCH  19  20
ATOM     20  C   UNL     1      11.123  -1.399  -0.118  0.00  0.00    +0.173 C 
BRANCH  20  21
ATOM     21  C   UNL     1      11.831  -2.729  -0.136  0.00  0.00    +0.228 C 
ATOM     22  O   UNL     1      11.189  -3.758  -0.140  0.00  0.00    -0.275 OA
ATOM     23  N   UNL     1      13.178  -2.775  -0.146  0.00  0.00    -0.278 N 
ATOM     24  H   UNL     1      13.692  -1.952  -0.143  0.00  0.00    +0.155 HD
BRANCH  23  25
ATOM     25  C   UNL     1      13.831  -4.000  -0.163  0.00  0.00    +0.090 A 
ATOM     26  C   UNL     1      15.191  -4.238  -0.170  0.00  0.00    +0.084 A 
ATOM     27  C   UNL     1      15.629  -5.632  -0.188  0.00  0.00    -0.018 A 
ATOM     28  C   UNL     1      14.620  -6.523  -0.197  0.00  0.00    -0.004 A 
ATOM     29  S   UNL     1      13.148  -5.532  -0.171  0.00  0.00    -0.077 S 
ATOM     30  C   UNL     1      15.124  -7.941  -0.219  0.00  0.00    +0.043 C 
ATOM     31  C   UNL     1      16.601  -7.823  -0.656  0.00  0.00    +0.010 C 
ATOM     32  C   UNL     1      16.953  -6.393  -0.197  0.00  0.00    +0.037 C 
BRANCH  26  33
ATOM     33  C   UNL     1      16.136  -3.161  -0.161  0.00  0.00    +0.102 C 
ATOM     34  N   UNL     1      16.885  -2.307  -0.154  0.00  0.00    -0.191 NA
ENDBRANCH  26  33
ENDBRANCH  23  25
ENDBRANCH  20  21
ENDBRANCH  19  20
ENDBRANCH   4  19
TORSDOF 7
