REMARK  Name = ZINC64622934
REMARK  6 active torsions:
REMARK  status: ('A' for Active; 'I' for Inactive)
REMARK    1  A    between atoms: C_1  and  C_2
REMARK    2  A    between atoms: C_2  and  O_3
REMARK    3  A    between atoms: O_3  and  C_4
REMARK    4  A    between atoms: C_4  and  C_6
REMARK    5  A    between atoms: C_11  and  N_12
REMARK    6  A    between atoms: C_28  and  C_30
REMARK                            x       y       z     vdW  Elec       q    Type
REMARK                         _______ _______ _______ _____ _____    ______ ____
ROOT
ATOM      1  N   UNL     1      -0.767  -4.849   2.485  0.00  0.00    -0.269 N 
ATOM      2  C   UNL     1      -0.286  -6.107   2.421  0.00  0.00    +0.307 C 
ATOM      3  O   UNL     1       0.209  -6.619   3.406  0.00  0.00    -0.252 OA
ATOM      4  N   UNL     1      -0.355  -6.797   1.266  0.00  0.00    -0.276 N 
ATOM      5  C   UNL     1      -1.060  -6.220   0.117  0.00  0.00    +0.114 C 
ATOM      6  C   UNL     1      -0.096  -6.124  -1.081  0.00  0.00    +0.052 C 
ATOM      7  C   UNL     1       0.632  -7.443  -1.156  0.00  0.00    -0.035 C 
ATOM      8  C   UNL     1       0.809  -8.292  -2.161  0.00  0.00    -0.001 A 
ATOM      9  C   UNL     1       0.458  -8.208  -3.588  0.00  0.00    +0.010 A 
ATOM     10  C   UNL     1       0.774  -9.289  -4.348  0.00  0.00    +0.001 A 
ATOM     11  C   UNL     1       1.398 -10.432  -3.838  0.00  0.00    +0.002 A 
ATOM     12  C   UNL     1       1.764 -10.592  -2.541  0.00  0.00    +0.026 A 
ATOM     13  C   UNL     1       1.491  -9.518  -1.645  0.00  0.00    +0.043 A 
ATOM     14  N   UNL     1       1.750  -9.394  -0.377  0.00  0.00    -0.375 N 
ATOM     15  C   UNL     1       1.325  -8.061   0.053  0.00  0.00    +0.131 C 
ATOM     16  C   UNL     1       0.283  -8.119   1.168  0.00  0.00    +0.134 C 
ATOM     17  H   UNL     1      -1.225  -4.466   1.720  0.00  0.00    +0.156 HD
ATOM     18  H   UNL     1       2.155 -10.070   0.189  0.00  0.00    +0.160 HD
ENDROOT
BRANCH  16  19
ATOM     19  C   UNL     1       0.956  -8.459   2.474  0.00  0.00    -0.025 A 
ATOM     20  C   UNL     1       2.014  -7.692   2.926  0.00  0.00    +0.008 A 
ATOM     21  C   UNL     1       2.631  -8.002   4.123  0.00  0.00    +0.038 A 
ATOM     22  C   UNL     1       2.189  -9.081   4.870  0.00  0.00    +0.123 A 
ATOM     23  C   UNL     1       1.129  -9.848   4.416  0.00  0.00    +0.038 A 
ATOM     24  C   UNL     1       0.510  -9.533   3.221  0.00  0.00    +0.008 A 
ATOM     25  F   UNL     1       2.791  -9.386   6.040  0.00  0.00    -0.205 F 
ENDBRANCH  16  19
BRANCH   1  31
ATOM     26  C   UNL     1      -0.515  -2.702   3.578  0.00  0.00    +0.080 A 
ATOM     27  C   UNL     1      -0.358  -1.961   4.753  0.00  0.00    +0.017 A 
ATOM     28  C   UNL     1      -0.289  -2.607   5.968  0.00  0.00    +0.001 A 
ATOM     29  C   UNL     1      -0.373  -3.989   6.032  0.00  0.00    +0.002 A 
ATOM     30  C   UNL     1      -0.527  -4.734   4.880  0.00  0.00    +0.024 A 
ATOM     31  C   UNL     1      -0.605  -4.100   3.647  0.00  0.00    +0.049 A 
BRANCH  26  32
ATOM     32  C   UNL     1      -0.590  -2.017   2.275  0.00  0.00    +0.341 C 
ATOM     33  O   UNL     1      -0.607  -2.667   1.248  0.00  0.00    -0.245 OA
BRANCH  32  34
ATOM     34  O   UNL     1      -0.638  -0.672   2.223  0.00  0.00    -0.461 OA
BRANCH  34  36
ATOM     35  C   UNL     1      -0.757   1.448   1.067  0.00  0.00    +0.048 C 
ATOM     36  C   UNL     1      -0.710  -0.075   0.926  0.00  0.00    +0.229 C 
ENDBRANCH  34  36
ENDBRANCH  32  34
ENDBRANCH  26  32
ENDBRANCH   1  31
TORSDOF 5
