REMARK  Name = ZINC64414805
REMARK  6 active torsions:
REMARK  status: ('A' for Active; 'I' for Inactive)
REMARK    1  A    between atoms: C_1  and  S_2
REMARK    2  A    between atoms: S_2  and  C_5
REMARK    3  A    between atoms: C_12  and  N_15
REMARK    4  A    between atoms: C_16  and  C_18
REMARK    5  A    between atoms: N_21  and  C_24
REMARK    6  A    between atoms: C_24  and  C_25
REMARK                            x       y       z     vdW  Elec       q    Type
REMARK                         _______ _______ _______ _____ _____    ______ ____
ROOT
ATOM      1  N   UNL     1       6.028  -1.300  -5.082  0.00  0.00    -0.288 N 
ATOM      2  C   UNL     1       7.356  -1.114  -5.214  0.00  0.00    +0.218 C 
ATOM      3  O   UNL     1       8.130  -1.768  -4.547  0.00  0.00    -0.275 OA
ATOM      4  H   UNL     1       5.410  -0.777  -5.616  0.00  0.00    +0.151 HD
ENDROOT
BRANCH   1  12
ATOM      5  C   UNL     1       1.794  -1.470  -0.888  0.00  0.00    +0.089 A 
ATOM      6  C   UNL     1       1.151  -1.929  -2.023  0.00  0.00    +0.029 A 
ATOM      7  C   UNL     1       1.860  -2.267  -3.153  0.00  0.00    +0.026 A 
ATOM      8  C   UNL     1       3.261  -2.158  -3.193  0.00  0.00    +0.043 A 
ATOM      9  C   UNL     1       3.881  -1.691  -2.031  0.00  0.00    +0.034 A 
ATOM     10  C   UNL     1       3.173  -1.346  -0.902  0.00  0.00    +0.043 A 
ATOM     11  S   UNL     1       5.620  -1.671  -2.407  0.00  0.00    -0.082 S 
ATOM     12  C   UNL     1       5.518  -2.293  -4.133  0.00  0.00    +0.224 C 
ATOM     13  N   UNL     1       4.068  -2.475  -4.285  0.00  0.00    -0.316 N 
ATOM     14  H   UNL     1       3.687  -2.803  -5.114  0.00  0.00    +0.149 HD
BRANCH   5  16
ATOM     15  C   UNL     1       0.474   0.717   0.343  0.00  0.00    +0.200 C 
ATOM     16  S   UNL     1       0.871  -1.040   0.550  0.00  0.00    -0.006 S 
ATOM     17  O   UNL     1       1.780  -1.213   1.629  0.00  0.00    -0.170 OA
ATOM     18  O   UNL     1      -0.312  -1.823   0.468  0.00  0.00    -0.170 OA
ENDBRANCH   5  16
ENDBRANCH   1  12
BRANCH   2  19
ATOM     19  C   UNL     1       7.881  -0.092  -6.190  0.00  0.00    +0.077 C 
ATOM     20  C   UNL     1       7.355   1.295  -5.810  0.00  0.00    +0.028 C 
ATOM     21  C   UNL     1       7.940   2.336  -6.768  0.00  0.00    +0.085 C 
ATOM     22  N   UNL     1       9.406   2.309  -6.687  0.00  0.00    -0.299 NA
ATOM     23  C   UNL     1       9.936   1.001  -7.092  0.00  0.00    +0.085 C 
ATOM     24  C   UNL     1       9.411  -0.080  -6.144  0.00  0.00    +0.028 C 
BRANCH  22  25
ATOM     25  C   UNL     1       9.997   3.388  -7.489  0.00  0.00    +0.131 C 
BRANCH  25  26
ATOM     26  C   UNL     1       9.876   4.712  -6.731  0.00  0.00    +0.188 C 
ATOM     27  N   UNL     1       8.461   5.055  -6.540  0.00  0.00    -0.362 N 
ATOM     28  C   UNL     1       8.244   5.114  -5.258  0.00  0.00    +0.060 A 
ATOM     29  C   UNL     1       7.045   5.408  -4.460  0.00  0.00    +0.027 A 
ATOM     30  C   UNL     1       7.122   5.397  -3.114  0.00  0.00    +0.002 A 
ATOM     31  C   UNL     1       8.315   5.112  -2.426  0.00  0.00    +0.002 A 
ATOM     32  C   UNL     1       9.470   4.829  -3.060  0.00  0.00    +0.027 A 
ATOM     33  C   UNL     1       9.506   4.813  -4.529  0.00  0.00    +0.060 A 
ATOM     34  N   UNL     1      10.455   4.579  -5.388  0.00  0.00    -0.362 N 
ATOM     35  H   UNL     1       7.808   5.209  -7.240  0.00  0.00    +0.162 HD
ATOM     36  H   UNL     1      11.376   4.357  -5.180  0.00  0.00    +0.162 HD
ENDBRANCH  25  26
ENDBRANCH  22  25
ENDBRANCH   2  19
TORSDOF 5
