REMARK  Name = ZINC38899480
REMARK  8 active torsions:
REMARK  status: ('A' for Active; 'I' for Inactive)
REMARK    1  A    between atoms: C_1  and  C_2
REMARK    2  A    between atoms: C_2  and  C_34
REMARK    3  A    between atoms: C_3  and  N_20
REMARK    4  A    between atoms: N_5  and  N_9
REMARK    5  A    between atoms: C_10  and  C_11
REMARK    6  A    between atoms: N_20  and  O_33
REMARK    7  A    between atoms: N_23  and  C_24
REMARK    8  A    between atoms: C_27  and  N_30
REMARK                            x       y       z     vdW  Elec       q    Type
REMARK                         _______ _______ _______ _____ _____    ______ ____
ROOT
ATOM      1  C   UNL     1       0.043   1.548  -2.615  0.00  0.00    +0.026 C 
ATOM      2  C   UNL     1       0.092   0.027  -2.451  0.00  0.00    +0.056 C 
ATOM      3  C   UNL     1      -0.332  -0.405  -1.022  0.00  0.00    +0.232 C 
ATOM      4  N   UNL     1       0.817  -0.522  -0.143  0.00  0.00    -0.187 N 
ATOM      5  C   UNL     1       2.051  -0.671  -0.663  0.00  0.00    +0.132 C 
ATOM      6  S   UNL     1       3.520  -0.888   0.190  0.00  0.00    -0.026 S 
ATOM      7  S   UNL     1       1.827  -0.595  -2.433  0.00  0.00    -0.091 S 
ATOM      8  C   UNL     1      -0.745  -0.675  -3.522  0.00  0.00    +0.026 C 
ENDROOT
BRANCH   3   9
ATOM      9  N   UNL     1      -1.011  -1.701  -1.095  0.00  0.00    -0.143 N 
ATOM     10  C   UNL     1      -0.305  -2.841  -0.963  0.00  0.00    +0.331 C 
ATOM     11  O   UNL     1       0.873  -2.795  -0.666  0.00  0.00    -0.250 OA
ATOM     12  N   UNL     1      -0.904  -4.032  -1.160  0.00  0.00    -0.268 N 
ATOM     13  H   UNL     1      -1.832  -4.067  -1.441  0.00  0.00    +0.156 HD
BRANCH  12  14
ATOM     14  C   UNL     1      -0.188  -5.217  -0.959  0.00  0.00    +0.035 A 
ATOM     15  C   UNL     1       0.601  -5.370   0.173  0.00  0.00    +0.025 A 
ATOM     16  C   UNL     1       1.307  -6.541   0.369  0.00  0.00    +0.034 A 
ATOM     17  C   UNL     1       1.227  -7.561  -0.561  0.00  0.00    +0.126 A 
ATOM     18  C   UNL     1       0.443  -7.412  -1.690  0.00  0.00    +0.034 A 
ATOM     19  C   UNL     1      -0.270  -6.245  -1.888  0.00  0.00    +0.025 A 
BRANCH  17  20
ATOM     20  N   UNL     1       1.984  -8.815  -0.348  0.00  0.00    +0.056 N 
ATOM     21  O   UNL     1       2.671  -8.947   0.638  0.00  0.00    -0.126 OA
ATOM     22  O   UNL     1       1.916  -9.708  -1.161  0.00  0.00    -0.126 OA
ENDBRANCH  17  20
ENDBRANCH  12  14
BRANCH   9  23
ATOM     23  O   UNL     1      -2.411  -1.755  -1.304  0.00  0.00    -0.289 OA
ATOM     24  H   UNL     1      -2.783  -2.646  -1.245  0.00  0.00    +0.242 HD
ENDBRANCH   9  23
ENDBRANCH   3   9
BRANCH   4  25
ATOM     25  N   UNL     1       0.643  -0.479   1.246  0.00  0.00    -0.185 NA
ATOM     26  C   UNL     1      -0.564  -0.435   1.755  0.00  0.00    +0.136 C 
BRANCH  26  27
ATOM     27  C   UNL     1      -0.742  -0.500   3.142  0.00  0.00    +0.000 C 
ATOM     28  C   UNL     1      -1.949  -0.472   3.839  0.00  0.00    +0.004 A 
ATOM     29  C   UNL     1      -3.293  -0.375   3.416  0.00  0.00    +0.010 A 
ATOM     30  C   UNL     1      -4.290  -0.369   4.337  0.00  0.00    +0.001 A 
ATOM     31  C   UNL     1      -4.022  -0.458   5.706  0.00  0.00    +0.002 A 
ATOM     32  C   UNL     1      -2.758  -0.554   6.183  0.00  0.00    +0.026 A 
ATOM     33  C   UNL     1      -1.662  -0.565   5.280  0.00  0.00    +0.043 A 
ATOM     34  N   UNL     1      -0.363  -0.648   5.487  0.00  0.00    -0.380 N 
ATOM     35  C   UNL     1       0.334  -0.623   4.198  0.00  0.00    +0.150 C 
ATOM     36  H   UNL     1       0.063  -0.718   6.355  0.00  0.00    +0.160 HD
ENDBRANCH  26  27
ENDBRANCH   4  25
TORSDOF 6
