REMARK  Name = ZINC24536656
REMARK  4 active torsions:
REMARK  status: ('A' for Active; 'I' for Inactive)
REMARK    1  A    between atoms: C_6  and  N_7
REMARK    2  A    between atoms: C_9  and  C_14
REMARK    3  A    between atoms: N_16  and  N_17
REMARK    4  A    between atoms: N_17  and  C_18
REMARK                            x       y       z     vdW  Elec       q    Type
REMARK                         _______ _______ _______ _____ _____    ______ ____
ROOT
ATOM      1  N   UNL     1      -1.269  -0.452  -0.004  0.00  0.00    -0.271 N 
ATOM      2  C   UNL     1      -2.646   0.049  -0.091  0.00  0.00    +0.127 C 
ATOM      3  C   UNL     1      -3.523  -1.199  -0.337  0.00  0.00    +0.103 C 
ATOM      4  C   UNL     1      -2.654  -2.321   0.278  0.00  0.00    +0.110 C 
ATOM      5  C   UNL     1      -1.244  -1.780   0.202  0.00  0.00    +0.221 C 
ATOM      6  O   UNL     1      -0.237  -2.446   0.315  0.00  0.00    -0.275 OA
ENDROOT
BRANCH   1  12
ATOM      7  C   UNL     1       1.131  -0.195   0.087  0.00  0.00    +0.027 A 
ATOM      8  C   UNL     1       2.259   0.596  -0.034  0.00  0.00    +0.051 A 
ATOM      9  C   UNL     1       2.136   1.934  -0.370  0.00  0.00    +0.166 A 
ATOM     10  C   UNL     1       0.875   2.484  -0.586  0.00  0.00    +0.168 A 
ATOM     11  C   UNL     1      -0.254   1.692  -0.465  0.00  0.00    +0.073 A 
ATOM     12  C   UNL     1      -0.127   0.351  -0.127  0.00  0.00    +0.040 A 
ATOM     13  O   UNL     1       1.023   3.805  -0.900  0.00  0.00    -0.453 OA
ATOM     14  C   UNL     1       2.353   4.154  -0.475  0.00  0.00    +0.466 C 
ATOM     15  O   UNL     1       3.075   2.911  -0.549  0.00  0.00    -0.453 OA
ENDBRANCH   1  12
BRANCH   3  16
ATOM     16  C   UNL     1      -4.841  -1.081   0.383  0.00  0.00    +0.234 C 
ATOM     17  O   UNL     1      -5.086  -0.094   1.044  0.00  0.00    -0.274 OA
ATOM     18  N   UNL     1      -5.750  -2.073   0.293  0.00  0.00    -0.236 N 
ATOM     19  H   UNL     1      -5.554  -2.863  -0.236  0.00  0.00    +0.173 HD
BRANCH  18  20
ATOM     20  N   UNL     1      -6.976  -1.964   0.962  0.00  0.00    -0.262 N 
ATOM     21  H   UNL     1      -7.136  -1.218   1.560  0.00  0.00    +0.170 HD
BRANCH  20  22
ATOM     22  C   UNL     1      -7.968  -2.931   0.766  0.00  0.00    +0.081 A 
ATOM     23  C   UNL     1      -8.798  -3.298   1.818  0.00  0.00    +0.066 A 
ATOM     24  C   UNL     1      -9.777  -4.254   1.622  0.00  0.00    +0.042 A 
ATOM     25  C   UNL     1      -9.931  -4.845   0.380  0.00  0.00    +0.044 A 
ATOM     26  C   UNL     1      -9.105  -4.481  -0.669  0.00  0.00    +0.042 A 
ATOM     27  C   UNL     1      -8.128  -3.521  -0.481  0.00  0.00    +0.066 A 
ATOM     28 CL   UNL     1      -7.098  -3.060  -1.800  0.00  0.00    -0.081 Cl
ATOM     29 CL   UNL     1     -11.161  -6.045   0.138  0.00  0.00    -0.083 Cl
ATOM     30 CL   UNL     1      -8.606  -2.558   3.377  0.00  0.00    -0.081 Cl
ENDBRANCH  20  22
ENDBRANCH  18  20
ENDBRANCH   3  16
TORSDOF 4
