REMARK  Name = ZINC09252134
REMARK  5 active torsions:
REMARK  status: ('A' for Active; 'I' for Inactive)
REMARK    1  A    between atoms: C_1  and  C_2
REMARK    2  A    between atoms: C_7  and  N_8
REMARK    3  A    between atoms: N_11  and  S_14
REMARK    4  A    between atoms: S_14  and  C_17
REMARK    5  A    between atoms: C_26  and  C_31
REMARK                            x       y       z     vdW  Elec       q    Type
REMARK                         _______ _______ _______ _____ _____    ______ ____
ROOT
ATOM      1  S   UNL     1       0.058   0.978   6.583  0.00  0.00    +0.061 S 
ATOM      2  O   UNL     1       1.293   1.679   6.649  0.00  0.00    -0.153 OA
ATOM      3  O   UNL     1      -1.197   1.636   6.679  0.00  0.00    -0.153 OA
ENDROOT
BRANCH   1   4
ATOM      4  C   UNL     1       0.094  -0.228   7.867  0.00  0.00    +0.107 A 
ATOM      5  C   UNL     1      -1.088  -0.727   8.382  0.00  0.00    +0.030 A 
ATOM      6  C   UNL     1      -1.056  -1.670   9.386  0.00  0.00    +0.027 A 
ATOM      7  C   UNL     1       0.161  -2.131   9.894  0.00  0.00    +0.055 A 
ATOM      8  C   UNL     1       1.346  -1.631   9.378  0.00  0.00    +0.057 A 
ATOM      9  C   UNL     1       1.301  -0.680   8.356  0.00  0.00    +0.053 A 
ATOM     10  N   UNL     1       2.607  -2.025   9.815  0.00  0.00    -0.283 N 
ATOM     11  C   UNL     1       2.972  -3.272  10.105  0.00  0.00    +0.229 C 
ATOM     12  O   UNL     1       4.117  -3.494  10.440  0.00  0.00    -0.275 OA
ATOM     13  C   UNL     1       1.990  -4.412  10.026  0.00  0.00    +0.158 C 
ATOM     14  C   UNL     1       0.884  -4.152  11.015  0.00  0.00    +0.229 C 
ATOM     15  O   UNL     1       0.705  -4.932  11.927  0.00  0.00    -0.275 OA
ATOM     16  N   UNL     1       0.100  -3.083  10.907  0.00  0.00    -0.283 N 
ATOM     17  C   UNL     1       1.411  -4.496   8.612  0.00  0.00    +0.027 C 
ATOM     18  H   UNL     1       3.278  -1.332   9.916  0.00  0.00    +0.155 HD
ATOM     19  H   UNL     1      -0.573  -2.955  11.595  0.00  0.00    +0.155 HD
ENDBRANCH   1   4
BRANCH   1  23
ATOM     20  N   UNL     1       0.026  -0.016   2.415  0.00  0.00    -0.327 N 
ATOM     21  C   UNL     1      -1.238   0.332   3.081  0.00  0.00    +0.122 C 
ATOM     22  C   UNL     1      -1.211  -0.231   4.507  0.00  0.00    +0.128 C 
ATOM     23  N   UNL     1       0.055   0.160   5.143  0.00  0.00    -0.174 NA
ATOM     24  C   UNL     1       1.319  -0.187   4.477  0.00  0.00    +0.128 C 
ATOM     25  C   UNL     1       1.292   0.371   3.053  0.00  0.00    +0.122 C 
BRANCH  20  32
ATOM     26  C   UNL     1      -0.018   1.503   0.010  0.00  0.00    +0.045 C 
ATOM     27  C   UNL     1       0.002  -0.004   0.002  0.00  0.00    -0.029 A 
ATOM     28  C   UNL     1       0.006  -0.689  -1.198  0.00  0.00    +0.006 A 
ATOM     29  C   UNL     1       0.024  -2.071  -1.207  0.00  0.00    +0.020 A 
ATOM     30  C   UNL     1       0.040  -2.774  -0.014  0.00  0.00    +0.043 A 
ATOM     31  C   UNL     1       0.035  -2.095   1.189  0.00  0.00    +0.043 A 
ATOM     32  C   UNL     1       0.023  -0.706   1.201  0.00  0.00    +0.034 A 
ATOM     33 CL   UNL     1       0.063  -4.509  -0.031  0.00  0.00    -0.083 Cl
ENDBRANCH  20  32
ENDBRANCH   1  23
TORSDOF 3
