REMARK  Name = ZINC39687166
REMARK  10 active torsions:
REMARK  status: ('A' for Active; 'I' for Inactive)
REMARK    1  A    between atoms: C_1  and  C_2
REMARK    2  A    between atoms: C_2  and  C_4
REMARK    3  A    between atoms: C_2  and  N_12
REMARK    4  A    between atoms: C_4  and  C_5
REMARK    5  A    between atoms: C_13  and  C_15
REMARK    6  A    between atoms: C_26  and  C_28
REMARK    7  A    between atoms: C_28  and  C_29
REMARK    8  A    between atoms: C_29  and  C_30
REMARK    9  A    between atoms: C_33  and  O_36
REMARK   10  A    between atoms: O_36  and  C_37
REMARK                            x       y       z     vdW  Elec       q    Type
REMARK                         _______ _______ _______ _____ _____    ______ ____
ROOT
ATOM      1  C   UNL     1       0.780  -1.133   3.576  0.00  0.00    +0.100 C 
ATOM      2  C   UNL     1       1.189  -2.611   3.392  0.00  0.00    +0.121 C 
ATOM      3  N   UNL     1       1.007  -3.220   4.731  0.00  0.00    -0.300 N 
ATOM      4  C   UNL     1      -0.237  -2.602   5.250  0.00  0.00    +0.115 C 
ATOM      5  C   UNL     1      -0.156  -1.131   4.797  0.00  0.00    -0.004 C 
ATOM      6  C   UNL     1       0.429  -0.267   5.910  0.00  0.00    -0.010 C 
ATOM      7  C   UNL     1      -0.546  -0.235   7.090  0.00  0.00    -0.082 C 
ATOM      8  N   UNL     1      -1.836   0.308   6.647  0.00  0.00    +0.379 N 
ATOM      9  C   UNL     1      -2.435  -0.578   5.643  0.00  0.00    -0.082 C 
ATOM     10  C   UNL     1      -1.540  -0.625   4.401  0.00  0.00    -0.010 C 
ATOM     11  C   UNL     1       1.794  -4.130   5.338  0.00  0.00    +0.216 C 
ATOM     12  O   UNL     1       1.508  -4.536   6.445  0.00  0.00    -0.276 OA
ATOM     13  H   UNL     1      -2.457   0.385   7.439  0.00  0.00    -0.086 HD
ATOM     14  H   UNL     1      -1.694   1.223   6.245  0.00  0.00    -0.086 HD
ENDROOT
BRANCH   1  16
ATOM     15  N   UNL     1       0.108   0.671   2.023  0.00  0.00    -0.312 N 
ATOM     16  C   UNL     1       0.051  -0.633   2.355  0.00  0.00    +0.218 C 
ATOM     17  O   UNL     1      -0.587  -1.406   1.672  0.00  0.00    -0.275 OA
ATOM     18  H   UNL     1       0.619   1.289   2.570  0.00  0.00    +0.149 HD
BRANCH  15  20
ATOM     19  C   UNL     1      -2.054   1.464   1.200  0.00  0.00    +0.028 C 
ATOM     20  C   UNL     1      -0.600   1.157   0.836  0.00  0.00    +0.074 C 
BRANCH  20  21
ATOM     21  C   UNL     1       0.077   2.429   0.323  0.00  0.00    +0.060 C 
BRANCH  21  22
ATOM     22  C   UNL     1       1.470   2.101  -0.151  0.00  0.00    -0.010 A 
ATOM     23  C   UNL     1       2.545   2.261   0.702  0.00  0.00    +0.006 A 
ATOM     24  C   UNL     1       3.823   1.961   0.268  0.00  0.00    +0.000 A 
ATOM     25  C   UNL     1       4.026   1.499  -1.019  0.00  0.00    +0.003 A 
ATOM     26  C   UNL     1       2.952   1.337  -1.873  0.00  0.00    +0.038 A 
ATOM     27  C   UNL     1       1.671   1.633  -1.438  0.00  0.00    +0.127 A 
ATOM     28  F   UNL     1       0.620   1.471  -2.271  0.00  0.00    -0.205 F 
ENDBRANCH  21  22
ENDBRANCH  20  21
ENDBRANCH  15  20
ENDBRANCH   1  16
BRANCH  11  29
ATOM     29  C   UNL     1       3.028  -4.643   4.643  0.00  0.00    +0.100 C 
BRANCH  29  30
ATOM     30  C   UNL     1       3.736  -5.658   5.543  0.00  0.00    +0.044 C 
BRANCH  30  31
ATOM     31  C   UNL     1       4.971  -6.171   4.847  0.00  0.00    -0.047 A 
ATOM     32  C   UNL     1       4.891  -7.286   4.034  0.00  0.00    +0.007 A 
ATOM     33  C   UNL     1       6.021  -7.759   3.396  0.00  0.00    +0.046 A 
ATOM     34  C   UNL     1       7.237  -7.113   3.570  0.00  0.00    +0.120 A 
ATOM     35  C   UNL     1       7.314  -5.994   4.386  0.00  0.00    +0.046 A 
ATOM     36  C   UNL     1       6.179  -5.522   5.018  0.00  0.00    +0.007 A 
BRANCH  34  37
ATOM     37  O   UNL     1       8.350  -7.576   2.944  0.00  0.00    -0.495 OA
ATOM     38  C   UNL     1       9.567  -6.862   3.170  0.00  0.00    +0.277 C 
ENDBRANCH  34  37
ENDBRANCH  30  31
ENDBRANCH  29  30
ENDBRANCH  11  29
TORSDOF 8
