REMARK  Name = ZINC08977544
REMARK  11 active torsions:
REMARK  status: ('A' for Active; 'I' for Inactive)
REMARK    1  A    between atoms: C_1  and  C_2
REMARK    2  A    between atoms: C_2  and  O_3
REMARK    3  A    between atoms: O_3  and  C_4
REMARK    4  A    between atoms: C_4  and  C_6
REMARK    5  A    between atoms: C_7  and  C_33
REMARK    6  A    between atoms: C_8  and  S_30
REMARK    7  A    between atoms: C_9  and  N_11
REMARK    8  A    between atoms: C_12  and  C_14
REMARK    9  A    between atoms: N_19  and  S_20
REMARK   10  A    between atoms: S_20  and  C_23
REMARK   11  A    between atoms: S_30  and  C_31
REMARK                            x       y       z     vdW  Elec       q    Type
REMARK                         _______ _______ _______ _____ _____    ______ ____
ROOT
ATOM      1  N   UNL     1      -0.011   0.966   0.007  0.00  0.00    -0.278 N 
ATOM      2  C   UNL     1       1.147   1.655   0.000  0.00  0.00    +0.236 C 
ATOM      3  O   UNL     1       1.130   2.868   0.007  0.00  0.00    -0.274 OA
ATOM      4  H   UNL     1       0.002  -0.004   0.002  0.00  0.00    +0.155 HD
ENDROOT
BRANCH   1   8
ATOM      5  C   UNL     1      -3.308   3.362   0.036  0.00  0.00    +0.102 A 
ATOM      6  C   UNL     1      -3.569   1.997   0.030  0.00  0.00    -0.013 A 
ATOM      7  C   UNL     1      -2.511   1.127   0.020  0.00  0.00    +0.055 A 
ATOM      8  C   UNL     1      -1.224   1.645   0.017  0.00  0.00    +0.087 A 
ATOM      9  S   UNL     1      -1.524   3.404   0.036  0.00  0.00    -0.066 S 
ATOM     10  C   UNL     1      -4.987   1.485   0.034  0.00  0.00    +0.046 C 
BRANCH   5  11
ATOM     11  C   UNL     1      -4.223   4.442   0.046  0.00  0.00    +0.346 C 
ATOM     12  O   UNL     1      -5.421   4.225   0.051  0.00  0.00    -0.244 OA
BRANCH  11  13
ATOM     13  O   UNL     1      -3.767   5.713   0.051  0.00  0.00    -0.461 OA
BRANCH  13  15
ATOM     14  C   UNL     1      -4.046   8.113   0.065  0.00  0.00    +0.048 C 
ATOM     15  C   UNL     1      -4.747   6.753   0.061  0.00  0.00    +0.229 C 
ENDBRANCH  13  15
ENDBRANCH  11  13
ENDBRANCH   5  11
BRANCH   7  16
ATOM     16  S   UNL     1      -2.779  -0.614   0.013  0.00  0.00    -0.008 S 
BRANCH  16  17
ATOM     17  C   UNL     1      -2.818  -0.934   1.794  0.00  0.00    +0.138 C 
ATOM     18  N   UNL     1      -2.842  -1.135   2.911  0.00  0.00    -0.183 NA
ENDBRANCH  16  17
ENDBRANCH   7  16
ENDBRANCH   1   8
BRANCH   2  19
ATOM     19  C   UNL     1       2.462   0.920  -0.017  0.00  0.00    +0.166 C 
ATOM     20  C   UNL     1       2.572   0.070  -1.300  0.00  0.00    +0.031 C 
ATOM     21  C   UNL     1       3.410   0.980  -2.244  0.00  0.00    +0.019 C 
ATOM     22  C   UNL     1       4.379   1.657  -1.243  0.00  0.00    +0.110 C 
ATOM     23  N   UNL     1       3.573   1.882  -0.030  0.00  0.00    -0.165 NA
BRANCH  23  24
ATOM     24  S   UNL     1       3.870   3.030   1.127  0.00  0.00    +0.062 S 
ATOM     25  O   UNL     1       4.627   4.055   0.497  0.00  0.00    -0.153 OA
ATOM     26  O   UNL     1       2.630   3.286   1.772  0.00  0.00    -0.153 OA
BRANCH  24  27
ATOM     27  C   UNL     1       4.923   2.295   2.333  0.00  0.00    +0.106 A 
ATOM     28  C   UNL     1       4.375   1.641   3.422  0.00  0.00    +0.030 A 
ATOM     29  C   UNL     1       5.201   1.059   4.365  0.00  0.00    +0.022 A 
ATOM     30  C   UNL     1       6.575   1.140   4.226  0.00  0.00    +0.041 A 
ATOM     31  C   UNL     1       7.122   1.799   3.139  0.00  0.00    +0.022 A 
ATOM     32  C   UNL     1       6.295   2.376   2.193  0.00  0.00    +0.030 A 
ATOM     33 CL   UNL     1       7.613   0.416   5.414  0.00  0.00    -0.084 Cl
ENDBRANCH  24  27
ENDBRANCH  23  24
ENDBRANCH   2  19
TORSDOF 9
