REMARK  Name = ZINC13638358
REMARK  6 active torsions:
REMARK  status: ('A' for Active; 'I' for Inactive)
REMARK    1  A    between atoms: C_1  and  O_2
REMARK    2  A    between atoms: O_2  and  C_3
REMARK    3  A    between atoms: C_6  and  N_9
REMARK    4  A    between atoms: N_9  and  S_10
REMARK    5  A    between atoms: S_10  and  C_13
REMARK    6  A    between atoms: C_26  and  C_29
REMARK                            x       y       z     vdW  Elec       q    Type
REMARK                         _______ _______ _______ _____ _____    ______ ____
ROOT
ATOM      1  C   UNL     1       0.402  -2.818  -0.301  0.00  0.00    +0.109 A 
ATOM      2  C   UNL     1      -0.891  -2.386  -0.068  0.00  0.00    +0.030 A 
ATOM      3  C   UNL     1      -1.138  -1.058   0.213  0.00  0.00    +0.025 A 
ATOM      4  C   UNL     1      -0.091  -0.145   0.266  0.00  0.00    +0.031 A 
ATOM      5  C   UNL     1       1.216  -0.593   0.045  0.00  0.00    -0.018 A 
ATOM      6  C   UNL     1       1.451  -1.920  -0.244  0.00  0.00    +0.034 A 
ATOM      7  C   UNL     1       2.305   0.400   0.159  0.00  0.00    +0.049 C 
ATOM      8  C   UNL     1       3.586   0.252  -0.578  0.00  0.00    -0.023 C 
ATOM      9  C   UNL     1       4.060   1.462  -0.852  0.00  0.00    -0.030 C 
ATOM     10  C   UNL     1       3.093   2.531  -0.338  0.00  0.00    +0.033 C 
ATOM     11  C   UNL     1       1.769   1.764  -0.370  0.00  0.00    +0.029 C 
ATOM     12  C   UNL     1       0.716   2.201   0.633  0.00  0.00    +0.105 C 
ATOM     13  N   UNL     1      -0.368   1.200   0.537  0.00  0.00    -0.336 N 
ATOM     14  H   UNL     1      -1.288   1.482   0.659  0.00  0.00    +0.147 HD
ENDROOT
BRANCH  12  15
ATOM     15  C   UNL     1       1.295   2.209   2.025  0.00  0.00    -0.027 A 
ATOM     16  C   UNL     1       1.233   1.069   2.805  0.00  0.00    +0.006 A 
ATOM     17  C   UNL     1       1.767   1.074   4.080  0.00  0.00    +0.015 A 
ATOM     18  C   UNL     1       2.356   2.223   4.578  0.00  0.00    +0.018 A 
ATOM     19  C   UNL     1       2.413   3.364   3.799  0.00  0.00    +0.015 A 
ATOM     20  C   UNL     1       1.882   3.357   2.523  0.00  0.00    +0.006 A 
ATOM     21 BR   UNL     1       3.082   2.232   6.324  0.00  0.00    -0.050 Br
ENDBRANCH  12  15
BRANCH   1  22
ATOM     22  S   UNL     1       0.711  -4.513  -0.672  0.00  0.00    +0.072 S 
ATOM     23  O   UNL     1      -0.524  -5.066  -1.105  0.00  0.00    -0.150 OA
ATOM     24  O   UNL     1       1.884  -4.545  -1.474  0.00  0.00    -0.150 OA
BRANCH  22  25
ATOM     25  N   UNL     1       1.092  -5.264   0.754  0.00  0.00    -0.216 N 
ATOM     26  H   UNL     1       0.534  -5.984   1.087  0.00  0.00    +0.174 HD
BRANCH  25  30
ATOM     27  C   UNL     1       4.448  -4.059   2.913  0.00  0.00    +0.120 A 
ATOM     28  C   UNL     1       3.243  -4.270   3.566  0.00  0.00    +0.047 A 
ATOM     29  C   UNL     1       2.131  -4.670   2.852  0.00  0.00    +0.028 A 
ATOM     30  C   UNL     1       2.219  -4.859   1.479  0.00  0.00    +0.048 A 
ATOM     31  C   UNL     1       3.427  -4.653   0.827  0.00  0.00    +0.028 A 
ATOM     32  C   UNL     1       4.537  -4.248   1.542  0.00  0.00    +0.047 A 
BRANCH  27  34
ATOM     33  C   UNL     1       6.752  -3.468   2.881  0.00  0.00    +0.277 C 
ATOM     34  O   UNL     1       5.543  -3.667   3.618  0.00  0.00    -0.495 OA
ENDBRANCH  27  34
ENDBRANCH  25  30
ENDBRANCH  22  25
ENDBRANCH   1  22
TORSDOF 5
