REMARK  Name = ZINC39668606
REMARK  8 active torsions:
REMARK  status: ('A' for Active; 'I' for Inactive)
REMARK    1  A    between atoms: C_1  and  C_2
REMARK    2  A    between atoms: C_6  and  C_9
REMARK    3  A    between atoms: C_13  and  C_22
REMARK    4  A    between atoms: N_24  and  C_25
REMARK    5  A    between atoms: C_25  and  C_26
REMARK    6  A    between atoms: C_26  and  C_28
REMARK    7  A    between atoms: C_26  and  O_29
REMARK    8  A    between atoms: O_29  and  C_30
REMARK                            x       y       z     vdW  Elec       q    Type
REMARK                         _______ _______ _______ _____ _____    ______ ____
ROOT
ATOM      1  C   UNL     1       0.098  -3.068   4.957  0.00  0.00    +0.251 C 
ATOM      2  O   UNL     1       0.938  -3.448   5.750  0.00  0.00    -0.270 OA
ATOM      3  N   UNL     1      -1.193  -3.415   5.124  0.00  0.00    -0.296 N 
ATOM      4  C   UNL     1      -2.349  -3.058   4.268  0.00  0.00    +0.121 C 
ATOM      5  C   UNL     1      -3.213  -4.337   4.224  0.00  0.00    +0.100 C 
ATOM      6  C   UNL     1      -2.836  -5.109   5.500  0.00  0.00    -0.004 C 
ATOM      7  C   UNL     1      -1.778  -4.248   6.203  0.00  0.00    +0.115 C 
ATOM      8  C   UNL     1      -4.060  -5.281   6.394  0.00  0.00    -0.010 C 
ATOM      9  C   UNL     1      -3.673  -6.101   7.628  0.00  0.00    -0.082 C 
ATOM     10  N   UNL     1      -3.163  -7.412   7.207  0.00  0.00    +0.379 N 
ATOM     11  C   UNL     1      -1.933  -7.242   6.423  0.00  0.00    -0.082 C 
ATOM     12  C   UNL     1      -2.246  -6.470   5.139  0.00  0.00    -0.010 C 
ATOM     13  H   UNL     1      -2.966  -7.973   8.022  0.00  0.00    -0.086 HD
ATOM     14  H   UNL     1      -3.858  -7.876   6.642  0.00  0.00    -0.086 HD
ENDROOT
BRANCH   1  20
ATOM     15  C   UNL     1       0.879   1.452   2.981  0.00  0.00    +0.047 C 
ATOM     16  C   UNL     1       0.870  -0.050   2.854  0.00  0.00    -0.014 A 
ATOM     17  C   UNL     1       1.234  -0.643   1.659  0.00  0.00    +0.007 A 
ATOM     18  C   UNL     1       1.229  -2.020   1.531  0.00  0.00    +0.021 A 
ATOM     19  C   UNL     1       0.861  -2.815   2.599  0.00  0.00    +0.056 A 
ATOM     20  C   UNL     1       0.493  -2.225   3.811  0.00  0.00    +0.091 A 
ATOM     21  C   UNL     1       0.505  -0.832   3.934  0.00  0.00    +0.140 A 
ATOM     22  F   UNL     1       0.156  -0.252   5.103  0.00  0.00    -0.204 F 
ATOM     23 CL   UNL     1       0.856  -4.543   2.435  0.00  0.00    -0.083 Cl
ENDBRANCH   1  20
BRANCH   5  24
ATOM     24  C   UNL     1      -4.678  -3.982   4.236  0.00  0.00    +0.218 C 
ATOM     25  O   UNL     1      -5.053  -2.978   4.804  0.00  0.00    -0.275 OA
ATOM     26  N   UNL     1      -5.570  -4.780   3.617  0.00  0.00    -0.312 N 
ATOM     27  H   UNL     1      -5.270  -5.583   3.164  0.00  0.00    +0.149 HD
BRANCH  26  28
ATOM     28  C   UNL     1      -6.994  -4.434   3.629  0.00  0.00    +0.148 C 
BRANCH  28  29
ATOM     29  C   UNL     1      -7.783  -5.497   2.862  0.00  0.00    +0.187 C 
ATOM     30  C   UNL     1      -9.250  -5.073   2.767  0.00  0.00    +0.053 C 
BRANCH  29  31
ATOM     31  O   UNL     1      -7.691  -6.747   3.548  0.00  0.00    -0.486 OA
BRANCH  31  32
ATOM     32  C   UNL     1      -7.850  -7.873   2.803  0.00  0.00    +0.139 A 
ATOM     33  C   UNL     1      -8.195  -7.786   1.458  0.00  0.00    +0.049 A 
ATOM     34  C   UNL     1      -8.346  -8.961   0.740  0.00  0.00    +0.023 A 
ATOM     35  C   UNL     1      -8.150 -10.172   1.379  0.00  0.00    +0.111 A 
ATOM     36  N   UNL     1      -7.824 -10.219   2.655  0.00  0.00    -0.260 NA
ATOM     37  C   UNL     1      -7.665  -9.124   3.372  0.00  0.00    +0.156 A 
ENDBRANCH  31  32
ENDBRANCH  29  31
ENDBRANCH  28  29
ENDBRANCH  26  28
ENDBRANCH   5  24
TORSDOF 6
