REMARK  Name = ZINC38936033
REMARK  6 active torsions:
REMARK  status: ('A' for Active; 'I' for Inactive)
REMARK    1  A    between atoms: C_4  and  C_7
REMARK    2  A    between atoms: N_9  and  C_10
REMARK    3  A    between atoms: C_10  and  C_12
REMARK    4  A    between atoms: C_10  and  C_24
REMARK    5  A    between atoms: N_26  and  N_27
REMARK    6  A    between atoms: C_28  and  C_29
REMARK                            x       y       z     vdW  Elec       q    Type
REMARK                         _______ _______ _______ _____ _____    ______ ____
ROOT
ATOM      1  C   UNL     1       4.993  -2.744  -0.172  0.00  0.00    +0.189 C 
ENDROOT
BRANCH   1   2
ATOM      2  C   UNL     1       5.053  -3.054   1.325  0.00  0.00    +0.156 C 
ATOM      3  C   UNL     1       6.404  -3.661   1.620  0.00  0.00    -0.009 A 
ATOM      4  C   UNL     1       7.580  -3.014   1.344  0.00  0.00    +0.006 A 
ATOM      5  C   UNL     1       8.787  -3.632   1.642  0.00  0.00    +0.000 A 
ATOM      6  C   UNL     1       8.806  -4.893   2.213  0.00  0.00    +0.001 A 
ATOM      7  C   UNL     1       7.626  -5.553   2.494  0.00  0.00    +0.013 A 
ATOM      8  C   UNL     1       6.413  -4.938   2.198  0.00  0.00    +0.045 A 
ATOM      9  C   UNL     1       5.116  -5.585   2.472  0.00  0.00    +0.283 C 
ATOM     10  O   UNL     1       5.093  -6.691   2.973  0.00  0.00    -0.267 OA
ATOM     11  N   UNL     1       3.961  -4.968   2.176  0.00  0.00    -0.105 NA
ATOM     12  N   UNL     1       3.867  -3.852   1.669  0.00  0.00    -0.305 N 
ATOM     13  H   UNL     1       2.985  -3.488   1.491  0.00  0.00    +0.181 HD
ENDBRANCH   1   2
BRANCH   1  16
ATOM     14  C   UNL     1       3.955  -0.546  -0.329  0.00  0.00    +0.245 C 
ATOM     15  O   UNL     1       4.986  -0.059   0.092  0.00  0.00    -0.270 OA
ATOM     16  N   UNL     1       3.840  -1.883  -0.447  0.00  0.00    -0.298 N 
ATOM     17  H   UNL     1       2.994  -2.276  -0.714  0.00  0.00    +0.150 HD
BRANCH  14  21
ATOM     18  C   UNL     1       0.715   1.970  -1.433  0.00  0.00    +0.000 A 
ATOM     19  C   UNL     1       1.887   2.527  -0.953  0.00  0.00    +0.001 A 
ATOM     20  C   UNL     1       2.943   1.716  -0.593  0.00  0.00    +0.013 A 
ATOM     21  C   UNL     1       2.827   0.330  -0.713  0.00  0.00    +0.037 A 
ATOM     22  C   UNL     1       1.642  -0.226  -1.198  0.00  0.00    +0.013 A 
ATOM     23  C   UNL     1       0.594   0.597  -1.555  0.00  0.00    +0.001 A 
ENDBRANCH  14  21
ENDBRANCH   1  16
BRANCH   1  24
ATOM     24  C   UNL     1       4.855  -4.030  -0.946  0.00  0.00    +0.255 C 
ATOM     25  O   UNL     1       3.755  -4.442  -1.247  0.00  0.00    -0.272 OA
ATOM     26  N   UNL     1       5.955  -4.723  -1.303  0.00  0.00    -0.205 N 
ATOM     27  H   UNL     1       6.830  -4.434  -1.000  0.00  0.00    +0.177 HD
BRANCH  26  28
ATOM     28  N   UNL     1       5.834  -5.861  -2.111  0.00  0.00    -0.188 NA
ATOM     29  C   UNL     1       6.902  -6.534  -2.457  0.00  0.00    +0.136 C 
BRANCH  29  30
ATOM     30  C   UNL     1       6.781  -7.674  -3.266  0.00  0.00    +0.000 C 
ATOM     31  C   UNL     1       7.809  -8.499  -3.717  0.00  0.00    +0.004 A 
ATOM     32  C   UNL     1       9.208  -8.471  -3.528  0.00  0.00    +0.010 A 
ATOM     33  C   UNL     1       9.983  -9.426  -4.100  0.00  0.00    +0.001 A 
ATOM     34  C   UNL     1       9.432 -10.448  -4.879  0.00  0.00    +0.002 A 
ATOM     35  C   UNL     1       8.100 -10.537  -5.103  0.00  0.00    +0.026 A 
ATOM     36  C   UNL     1       7.223  -9.574  -4.537  0.00  0.00    +0.043 A 
ATOM     37  N   UNL     1       5.915  -9.441  -4.603  0.00  0.00    -0.380 N 
ATOM     38  C   UNL     1       5.507  -8.267  -3.825  0.00  0.00    +0.150 C 
ATOM     39  H   UNL     1       5.314 -10.030  -5.086  0.00  0.00    +0.160 HD
ENDBRANCH  29  30
ENDBRANCH  26  28
ENDBRANCH   1  24
TORSDOF 6
