REMARK  Name = ZINC66362572
REMARK  3 active torsions:
REMARK  status: ('A' for Active; 'I' for Inactive)
REMARK    1  A    between atoms: C_4  and  C_7
REMARK    2  A    between atoms: C_19  and  C_21
REMARK    3  A    between atoms: N_23  and  C_24
REMARK                            x       y       z     vdW  Elec       q    Type
REMARK                         _______ _______ _______ _____ _____    ______ ____
ROOT
ATOM      1  C   UNL     1       3.716  -0.711  -0.038  0.00  0.00    +0.247 C 
ATOM      2  O   UNL     1       4.759  -0.097  -0.152  0.00  0.00    -0.270 OA
ATOM      3  N   UNL     1       3.732  -2.055   0.053  0.00  0.00    -0.283 N 
ATOM      4  C   UNL     1       4.926  -2.898   0.154  0.00  0.00    +0.080 C 
ATOM      5  C   UNL     1       6.072  -2.216   0.865  0.00  0.00    +0.023 C 
ATOM      6  C   UNL     1       5.743  -1.969   2.337  0.00  0.00    +0.002 C 
ATOM      7  C   UNL     1       5.452  -3.320   3.001  0.00  0.00    +0.000 C 
ATOM      8  C   UNL     1       4.216  -3.930   2.345  0.00  0.00    +0.005 C 
ATOM      9  C   UNL     1       4.469  -4.182   0.872  0.00  0.00    +0.012 C 
ATOM     10  C   UNL     1       3.065  -4.385   0.224  0.00  0.00    +0.037 C 
ATOM     11  C   UNL     1       2.550  -2.936   0.074  0.00  0.00    +0.163 C 
ENDROOT
BRANCH   1  15
ATOM     12  C   UNL     1       0.022   1.383   0.073  0.00  0.00    +0.000 A 
ATOM     13  C   UNL     1       1.020   1.793  -0.792  0.00  0.00    +0.001 A 
ATOM     14  C   UNL     1       2.222   1.117  -0.834  0.00  0.00    +0.013 A 
ATOM     15  C   UNL     1       2.430   0.018   0.001  0.00  0.00    +0.037 A 
ATOM     16  C   UNL     1       1.419  -0.391   0.872  0.00  0.00    +0.013 A 
ATOM     17  C   UNL     1       0.222   0.294   0.903  0.00  0.00    +0.001 A 
ENDBRANCH   1  15
BRANCH  11  18
ATOM     18  C   UNL     1       1.783  -2.798  -1.216  0.00  0.00    +0.238 C 
ATOM     19  O   UNL     1       2.322  -2.322  -2.193  0.00  0.00    -0.273 OA
ATOM     20  N   UNL     1       0.499  -3.202  -1.283  0.00  0.00    -0.283 N 
ATOM     21  H   UNL     1       0.045  -3.509  -0.483  0.00  0.00    +0.155 HD
BRANCH  20  22
ATOM     22  C   UNL     1      -0.177  -3.179  -2.506  0.00  0.00    +0.043 A 
ATOM     23  C   UNL     1       0.528  -3.244  -3.694  0.00  0.00    +0.024 A 
ATOM     24  C   UNL     1      -0.142  -3.221  -4.908  0.00  0.00    +0.004 A 
ATOM     25  C   UNL     1      -1.516  -3.134  -4.953  0.00  0.00    +0.026 A 
ATOM     26  C   UNL     1      -2.249  -3.068  -3.771  0.00  0.00    +0.048 A 
ATOM     27  C   UNL     1      -1.576  -3.096  -2.538  0.00  0.00    +0.021 A 
ATOM     28  C   UNL     1      -2.614  -3.019  -1.507  0.00  0.00    +0.029 A 
ATOM     29  C   UNL     1      -3.794  -2.958  -2.143  0.00  0.00    +0.083 A 
ATOM     30  N   UNL     1      -3.595  -2.978  -3.497  0.00  0.00    -0.361 N 
ATOM     31  H   UNL     1      -4.299  -2.943  -4.165  0.00  0.00    +0.165 HD
ENDBRANCH  20  22
ENDBRANCH  11  18
TORSDOF 3
