REMARK  Name = ZINC05164248
REMARK  7 active torsions:
REMARK  status: ('A' for Active; 'I' for Inactive)
REMARK    1  A    between atoms: C_1  and  O_2
REMARK    2  A    between atoms: O_2  and  C_3
REMARK    3  A    between atoms: C_6  and  C_9
REMARK    4  A    between atoms: C_17  and  O_30
REMARK    5  A    between atoms: C_20  and  C_21
REMARK    6  A    between atoms: C_20  and  N_65
REMARK    7  A    between atoms: N_23  and  C_24
REMARK                            x       y       z     vdW  Elec       q    Type
REMARK                         _______ _______ _______ _____ _____    ______ ____
ROOT
ATOM      1  C   UNL     1      -0.062   1.721   0.141  0.00  0.00    -0.031 C 
ATOM      2  C   UNL     1      -0.812   2.221  -1.097  0.00  0.00    +0.011 C 
ATOM      3  C   UNL     1      -0.262   1.513  -2.337  0.00  0.00    +0.005 C 
ATOM      4  C   UNL     1      -0.986   2.025  -3.584  0.00  0.00    +0.000 C 
ATOM      5  C   UNL     1      -0.759   3.532  -3.720  0.00  0.00    +0.003 C 
ATOM      6  C   UNL     1      -1.314   4.243  -2.485  0.00  0.00    +0.035 C 
ATOM      7  C   UNL     1      -0.601   3.730  -1.234  0.00  0.00    +0.066 C 
ATOM      8  C   UNL     1       0.898   4.022  -1.336  0.00  0.00    +0.016 C 
ATOM      9  C   UNL     1       1.604   3.467  -0.096  0.00  0.00    -0.075 C 
ATOM     10  N   UNL     1       1.379   2.007  -0.027  0.00  0.00    +0.390 N 
ATOM     11  H   UNL     1       1.703   1.579  -0.902  0.00  0.00    -0.080 HD
ENDROOT
BRANCH   1  15
ATOM     12  C   UNL     1      -0.602  -2.500   0.529  0.00  0.00    +0.120 A 
ATOM     13  C   UNL     1      -1.360  -1.629   1.298  0.00  0.00    +0.046 A 
ATOM     14  C   UNL     1      -1.183  -0.265   1.171  0.00  0.00    +0.005 A 
ATOM     15  C   UNL     1      -0.252   0.233   0.278  0.00  0.00    -0.060 A 
ATOM     16  C   UNL     1       0.500  -0.633  -0.493  0.00  0.00    +0.005 A 
ATOM     17  C   UNL     1       0.332  -1.998  -0.366  0.00  0.00    +0.046 A 
BRANCH  12  19
ATOM     18  C   UNL     1       0.040  -4.679  -0.171  0.00  0.00    +0.277 C 
ATOM     19  O   UNL     1      -0.775  -3.842   0.652  0.00  0.00    -0.495 OA
ENDBRANCH  12  19
ENDBRANCH   1  15
BRANCH   7  20
ATOM     20  O   UNL     1      -1.135   4.386  -0.081  0.00  0.00    -0.388 OA
ATOM     21  H   UNL     1      -1.030   5.347  -0.092  0.00  0.00    +0.210 HD
ENDBRANCH   7  20
BRANCH  10  22
ATOM     22  C   UNL     1       2.143   1.432   1.099  0.00  0.00    +0.019 C 
BRANCH  22  23
ATOM     23  C   UNL     1       1.739   2.079   2.399  0.00  0.00    +0.197 C 
ATOM     24  O   UNL     1       0.822   2.872   2.422  0.00  0.00    -0.278 OA
ATOM     25  N   UNL     1       2.398   1.777   3.535  0.00  0.00    -0.314 N 
ATOM     26  H   UNL     1       3.132   1.143   3.517  0.00  0.00    +0.149 HD
BRANCH  25  27
ATOM     27  C   UNL     1       2.006   2.406   4.799  0.00  0.00    +0.073 C 
ATOM     28  C   UNL     1       2.701   3.763   4.930  0.00  0.00    +0.022 C 
ATOM     29  C   UNL     1       2.292   4.420   6.250  0.00  0.00    +0.002 C 
ATOM     30  C   UNL     1       2.704   3.521   7.417  0.00  0.00    +0.000 C 
ATOM     31  C   UNL     1       2.009   2.164   7.285  0.00  0.00    +0.002 C 
ATOM     32  C   UNL     1       2.418   1.507   5.966  0.00  0.00    +0.022 C 
ENDBRANCH  25  27
ENDBRANCH  22  23
ENDBRANCH  10  22
TORSDOF 6
