REMARK  Name = ZINC13897668
REMARK  11 active torsions:
REMARK  status: ('A' for Active; 'I' for Inactive)
REMARK    1  A    between atoms: C_1  and  C_2
REMARK    2  A    between atoms: C_2  and  C_3
REMARK    3  A    between atoms: C_3  and  C_29
REMARK    4  A    between atoms: N_4  and  N_5
REMARK    5  A    between atoms: C_6  and  C_8
REMARK    6  A    between atoms: C_8  and  S_9
REMARK    7  A    between atoms: S_9  and  C_10
REMARK    8  A    between atoms: C_13  and  C_22
REMARK    9  A    between atoms: N_14  and  C_15
REMARK   10  A    between atoms: C_18  and  C_21
REMARK   11  A    between atoms: C_32  and  O_35
REMARK                            x       y       z     vdW  Elec       q    Type
REMARK                         _______ _______ _______ _____ _____    ______ ____
ROOT
ATOM      1  C   UNL     1      -5.218   0.872   0.032  0.00  0.00    +0.197 A 
ATOM      2  N   UNL     1      -5.130  -0.440   0.024  0.00  0.00    -0.122 NA
ATOM      3  N   UNL     1      -6.304  -0.962   0.028  0.00  0.00    -0.128 NA
ATOM      4  C   UNL     1      -7.216  -0.018   0.037  0.00  0.00    +0.169 A 
ATOM      5  N   UNL     1      -6.550   1.188   0.045  0.00  0.00    -0.270 N 
ENDROOT
BRANCH   5   6
ATOM      6  C   UNL     1      -7.116   2.469   0.061  0.00  0.00    +0.051 A 
ATOM      7  C   UNL     1      -7.858   2.889   1.158  0.00  0.00    +0.026 A 
ATOM      8  C   UNL     1      -8.410   4.154   1.173  0.00  0.00    +0.005 A 
ATOM      9  C   UNL     1      -8.235   5.000   0.093  0.00  0.00    -0.050 A 
ATOM     10  C   UNL     1      -7.502   4.583  -1.003  0.00  0.00    +0.005 A 
ATOM     11  C   UNL     1      -6.942   3.321  -1.022  0.00  0.00    +0.026 A 
ATOM     12  C   UNL     1      -8.844   6.378   0.110  0.00  0.00    +0.044 C 
ENDBRANCH   5   6
BRANCH   4  13
ATOM     13  C   UNL     1      -8.682  -0.212   0.044  0.00  0.00    +0.020 A 
ATOM     14  C   UNL     1      -9.531   0.855  -0.254  0.00  0.00    +0.013 A 
ATOM     15  C   UNL     1     -10.897   0.666  -0.251  0.00  0.00    +0.021 A 
ATOM     16  C   UNL     1     -11.427  -0.576   0.056  0.00  0.00    +0.041 A 
ATOM     17  C   UNL     1     -10.590  -1.637   0.357  0.00  0.00    +0.021 A 
ATOM     18  C   UNL     1      -9.222  -1.462   0.353  0.00  0.00    +0.013 A 
ATOM     19 CL   UNL     1     -13.148  -0.803   0.064  0.00  0.00    -0.084 Cl
ENDBRANCH   4  13
BRANCH   1  20
ATOM     20  S   UNL     1      -3.874   2.010   0.031  0.00  0.00    -0.076 S 
BRANCH  20  21
ATOM     21  C   UNL     1      -2.482   0.853   0.018  0.00  0.00    +0.174 C 
BRANCH  21  23
ATOM     22  N   UNL     1      -0.011   0.966   0.007  0.00  0.00    -0.206 N 
ATOM     23  C   UNL     1      -1.187   1.624   0.017  0.00  0.00    +0.242 C 
ATOM     24  O   UNL     1      -1.204   2.837   0.023  0.00  0.00    -0.273 OA
ATOM     25  H   UNL     1       0.002  -0.004   0.002  0.00  0.00    +0.177 HD
BRANCH  22  27
ATOM     26  C   UNL     1       2.325   1.049  -0.015  0.00  0.00    +0.066 C 
ATOM     27  N   UNL     1       1.193   1.683  -0.000  0.00  0.00    -0.184 NA
BRANCH  26  28
ATOM     28  C   UNL     1       3.592   1.804  -0.022  0.00  0.00    -0.002 A 
ATOM     29  C   UNL     1       4.812   1.124  -0.032  0.00  0.00    +0.013 A 
ATOM     30  C   UNL     1       5.994   1.833  -0.044  0.00  0.00    +0.046 A 
ATOM     31  C   UNL     1       5.973   3.222  -0.037  0.00  0.00    +0.117 A 
ATOM     32  C   UNL     1       4.762   3.902  -0.022  0.00  0.00    +0.046 A 
ATOM     33  C   UNL     1       3.575   3.201  -0.015  0.00  0.00    +0.013 A 
BRANCH  31  34
ATOM     34  O   UNL     1       7.140   3.917  -0.044  0.00  0.00    -0.507 OA
ATOM     35  H   UNL     1       7.486   4.114   0.837  0.00  0.00    +0.292 HD
ENDBRANCH  31  34
ENDBRANCH  26  28
BRANCH  26  37
ATOM     36  C   UNL     1       2.339  -0.960  -1.468  0.00  0.00    +0.010 C 
ATOM     37  C   UNL     1       2.346  -0.458  -0.023  0.00  0.00    +0.054 C 
ENDBRANCH  26  37
ENDBRANCH  22  27
ENDBRANCH  21  23
ENDBRANCH  20  21
ENDBRANCH   1  20
TORSDOF 9
