REMARK  Name = ZINC39674982
REMARK  9 active torsions:
REMARK  status: ('A' for Active; 'I' for Inactive)
REMARK    1  A    between atoms: C_1  and  C_2
REMARK    2  A    between atoms: C_4  and  C_38
REMARK    3  A    between atoms: N_5  and  C_7
REMARK    4  A    between atoms: C_7  and  C_8
REMARK    5  A    between atoms: C_8  and  N_9
REMARK    6  A    between atoms: C_10  and  C_12
REMARK    7  A    between atoms: C_23  and  C_25
REMARK    8  A    between atoms: C_26  and  C_37
REMARK    9  A    between atoms: C_29  and  C_30
REMARK                            x       y       z     vdW  Elec       q    Type
REMARK                         _______ _______ _______ _____ _____    ______ ____
ROOT
ATOM      1  C   UNL     1       2.723  -6.622   3.912  0.00  0.00    +0.100 C 
ATOM      2  C   UNL     1       2.181  -6.277   5.318  0.00  0.00    +0.121 C 
ATOM      3  N   UNL     1       3.021  -7.068   6.248  0.00  0.00    -0.296 N 
ATOM      4  C   UNL     1       4.385  -6.986   5.673  0.00  0.00    +0.115 C 
ATOM      5  C   UNL     1       4.169  -7.086   4.150  0.00  0.00    -0.004 C 
ATOM      6  C   UNL     1       4.344  -8.529   3.687  0.00  0.00    -0.010 C 
ATOM      7  C   UNL     1       5.804  -8.950   3.881  0.00  0.00    -0.082 C 
ATOM      8  N   UNL     1       6.678  -8.057   3.109  0.00  0.00    +0.379 N 
ATOM      9  C   UNL     1       6.573  -6.686   3.623  0.00  0.00    -0.082 C 
ATOM     10  C   UNL     1       5.146  -6.171   3.418  0.00  0.00    -0.010 C 
ATOM     11  C   UNL     1       2.632  -7.716   7.364  0.00  0.00    +0.252 C 
ATOM     12  O   UNL     1       3.448  -8.327   8.027  0.00  0.00    -0.270 OA
ATOM     13  H   UNL     1       7.633  -8.373   3.189  0.00  0.00    -0.086 HD
ATOM     14  H   UNL     1       6.402  -8.074   2.139  0.00  0.00    -0.086 HD
ENDROOT
BRANCH  11  15
ATOM     15  C   UNL     1       1.219  -7.685   7.779  0.00  0.00    +0.106 A 
ATOM     16  C   UNL     1       0.246  -8.572   7.423  0.00  0.00    +0.147 A 
ATOM     17  O   UNL     1      -0.895  -8.198   8.006  0.00  0.00    -0.359 OA
ATOM     18  N   UNL     1      -0.674  -7.030   8.771  0.00  0.00    -0.077 NA
ATOM     19  C   UNL     1       0.587  -6.695   8.664  0.00  0.00    +0.127 A 
ATOM     20  C   UNL     1       0.429  -9.768   6.524  0.00  0.00    +0.090 C 
BRANCH  19  21
ATOM     21  C   UNL     1       1.250  -5.535   9.309  0.00  0.00    +0.023 A 
ATOM     22  C   UNL     1       2.607  -5.297   9.094  0.00  0.00    +0.011 A 
ATOM     23  C   UNL     1       3.218  -4.217   9.696  0.00  0.00    +0.001 A 
ATOM     24  C   UNL     1       2.489  -3.371  10.513  0.00  0.00    +0.001 A 
ATOM     25  C   UNL     1       1.143  -3.602  10.730  0.00  0.00    +0.020 A 
ATOM     26  C   UNL     1       0.518  -4.676  10.127  0.00  0.00    +0.050 A 
ATOM     27 CL   UNL     1      -1.174  -4.960  10.395  0.00  0.00    -0.083 Cl
ENDBRANCH  19  21
ENDBRANCH  11  15
BRANCH   1  29
ATOM     28  N   UNL     1       2.565  -5.540   1.694  0.00  0.00    -0.313 N 
ATOM     29  C   UNL     1       2.701  -5.402   3.028  0.00  0.00    +0.218 C 
ATOM     30  O   UNL     1       2.807  -4.297   3.516  0.00  0.00    -0.275 OA
ATOM     31  H   UNL     1       2.481  -6.424   1.303  0.00  0.00    +0.149 HD
BRANCH  28  32
ATOM     32  C   UNL     1       2.545  -4.354   0.834  0.00  0.00    +0.127 C 
BRANCH  32  33
ATOM     33  C   UNL     1       2.381  -4.785  -0.625  0.00  0.00    +0.162 C 
BRANCH  33  38
ATOM     34  C   UNL     1       0.701  -0.856  -3.258  0.00  0.00    +0.067 C 
ATOM     35  C   UNL     1       1.604  -1.886  -2.630  0.00  0.00    +0.060 A 
ATOM     36  C   UNL     1       2.994  -1.952  -2.770  0.00  0.00    +0.047 A 
ATOM     37  C   UNL     1       3.434  -3.014  -2.056  0.00  0.00    +0.036 A 
ATOM     38  N   UNL     1       2.361  -3.599  -1.485  0.00  0.00    -0.267 N 
ATOM     39  N   UNL     1       1.224  -2.870  -1.857  0.00  0.00    -0.176 NA
ATOM     40  C   UNL     1       4.867  -3.463  -1.923  0.00  0.00    +0.065 C 
ENDBRANCH  33  38
ENDBRANCH  32  33
ENDBRANCH  28  32
ENDBRANCH   1  29
TORSDOF 6
