REMARK  Name = ZINC38638239
REMARK  7 active torsions:
REMARK  status: ('A' for Active; 'I' for Inactive)
REMARK    1  A    between atoms: C_4  and  N_7
REMARK    2  A    between atoms: C_9  and  C_14
REMARK    3  A    between atoms: N_16  and  C_17
REMARK    4  A    between atoms: C_17  and  C_18
REMARK    5  A    between atoms: C_18  and  C_20
REMARK    6  A    between atoms: C_18  and  N_29
REMARK    7  A    between atoms: N_32  and  C_35
REMARK                            x       y       z     vdW  Elec       q    Type
REMARK                         _______ _______ _______ _____ _____    ______ ____
ROOT
ATOM      1  C   UNL     1       9.040  -5.367   0.321  0.00  0.00    +0.104 C 
ENDROOT
BRANCH   1   2
ATOM      2  C   UNL     1       9.438  -6.609   1.077  0.00  0.00    -0.025 A 
ATOM      3  C   UNL     1      10.764  -6.819   1.407  0.00  0.00    +0.009 A 
ATOM      4  C   UNL     1      11.134  -7.956   2.102  0.00  0.00    +0.050 A 
ATOM      5  C   UNL     1      10.176  -8.887   2.468  0.00  0.00    +0.166 A 
ATOM      6  C   UNL     1       8.841  -8.675   2.135  0.00  0.00    +0.167 A 
ATOM      7  C   UNL     1       8.476  -7.531   1.444  0.00  0.00    +0.054 A 
ATOM      8  O   UNL     1       8.103  -9.724   2.603  0.00  0.00    -0.453 OA
ATOM      9  C   UNL     1       9.051 -10.775   2.865  0.00  0.00    +0.466 C 
ATOM     10  O   UNL     1      10.275 -10.069   3.144  0.00  0.00    -0.453 OA
ENDBRANCH   1   2
BRANCH   1  11
ATOM     11  N   UNL     1       8.624  -5.735  -1.039  0.00  0.00    -0.291 NA
ATOM     12  C   UNL     1       7.549  -6.736  -1.008  0.00  0.00    +0.104 C 
ATOM     13  C   UNL     1       7.021  -6.958  -2.430  0.00  0.00    +0.120 C 
ATOM     14  N   UNL     1       8.156  -7.292  -3.303  0.00  0.00    -0.325 N 
ATOM     15  C   UNL     1       9.331  -6.407  -3.285  0.00  0.00    +0.120 C 
ATOM     16  C   UNL     1       9.768  -6.207  -1.830  0.00  0.00    +0.104 C 
BRANCH  14  17
ATOM     17  C   UNL     1       8.119  -8.420  -4.128  0.00  0.00    +0.065 A 
ATOM     18  C   UNL     1       7.623  -8.320  -5.421  0.00  0.00    +0.026 A 
ATOM     19  C   UNL     1       7.588  -9.437  -6.235  0.00  0.00    +0.002 A 
ATOM     20  C   UNL     1       8.046 -10.653  -5.763  0.00  0.00    +0.003 A 
ATOM     21  C   UNL     1       8.541 -10.758  -4.476  0.00  0.00    +0.040 A 
ATOM     22  C   UNL     1       8.585  -9.643  -3.658  0.00  0.00    +0.144 A 
ATOM     23  F   UNL     1       9.073  -9.744  -2.403  0.00  0.00    -0.204 F 
ENDBRANCH  14  17
ENDBRANCH   1  11
BRANCH   1  24
ATOM     24  C   UNL     1       7.878  -4.682   1.042  0.00  0.00    +0.127 C 
BRANCH  24  27
ATOM     25  C   UNL     1       6.389  -2.786   0.686  0.00  0.00    +0.218 C 
ATOM     26  O   UNL     1       5.853  -3.046   1.743  0.00  0.00    -0.275 OA
ATOM     27  N   UNL     1       7.412  -3.544   0.245  0.00  0.00    -0.313 N 
ATOM     28  H   UNL     1       7.841  -3.336  -0.600  0.00  0.00    +0.149 HD
BRANCH  25  31
ATOM     29  N   UNL     1       4.924   0.531   0.281  0.00  0.00    -0.271 N 
ATOM     30  C   UNL     1       4.734  -0.896   0.565  0.00  0.00    +0.127 C 
ATOM     31  C   UNL     1       5.910  -1.615  -0.133  0.00  0.00    +0.101 C 
ATOM     32  C   UNL     1       6.979  -0.498  -0.181  0.00  0.00    +0.110 C 
ATOM     33  C   UNL     1       6.176   0.783  -0.140  0.00  0.00    +0.221 C 
ATOM     34  O   UNL     1       6.601   1.879  -0.441  0.00  0.00    -0.275 OA
BRANCH  29  38
ATOM     35  C   UNL     1       1.960   3.428   0.706  0.00  0.00    +0.000 A 
ATOM     36  C   UNL     1       3.255   3.805   0.400  0.00  0.00    +0.002 A 
ATOM     37  C   UNL     1       4.240   2.848   0.258  0.00  0.00    +0.023 A 
ATOM     38  C   UNL     1       3.929   1.504   0.424  0.00  0.00    +0.036 A 
ATOM     39  C   UNL     1       2.628   1.128   0.732  0.00  0.00    +0.023 A 
ATOM     40  C   UNL     1       1.647   2.091   0.872  0.00  0.00    +0.002 A 
ENDBRANCH  29  38
ENDBRANCH  25  31
ENDBRANCH  24  27
ENDBRANCH   1  24
TORSDOF 7
