REMARK  Name = ZINC33435762
REMARK  2 active torsions:
REMARK  status: ('A' for Active; 'I' for Inactive)
REMARK    1  A    between atoms: C_13  and  C_15
REMARK    2  A    between atoms: C_16  and  N_20
REMARK                            x       y       z     vdW  Elec       q    Type
REMARK                         _______ _______ _______ _____ _____    ______ ____
ROOT
ATOM      1  C   UNL     1       0.177   9.298  -2.687  0.00  0.00    +0.178 A 
ATOM      2  C   UNL     1       0.622  10.283  -3.573  0.00  0.00    +0.126 A 
ATOM      3  S   UNL     1      -0.780  10.489  -4.574  0.00  0.00    +0.052 S 
ATOM      4  N   UNL     1      -1.797   9.342  -3.815  0.00  0.00    -0.108 NA
ATOM      5  N   UNL     1      -1.060   8.861  -2.872  0.00  0.00    -0.135 NA
ENDROOT
BRANCH   2   6
ATOM      6  N   UNL     1       1.850  10.921  -3.634  0.00  0.00    -0.261 N 
ATOM      7  C   UNL     1       2.077  11.854  -4.580  0.00  0.00    +0.307 C 
ATOM      8  O   UNL     1       1.177  12.202  -5.319  0.00  0.00    -0.252 OA
ATOM      9  N   UNL     1       3.302  12.402  -4.705  0.00  0.00    -0.284 N 
ATOM     10  C   UNL     1       4.364  12.094  -3.740  0.00  0.00    +0.114 C 
ATOM     11  C   UNL     1       5.008  13.369  -3.229  0.00  0.00    +0.027 C 
ATOM     12  C   UNL     1       5.400  14.292  -4.384  0.00  0.00    +0.018 C 
ATOM     13  C   UNL     1       4.137  14.628  -5.182  0.00  0.00    +0.054 C 
ATOM     14  C   UNL     1       3.604  13.328  -5.809  0.00  0.00    +0.119 C 
ATOM     15  C   UNL     1       3.072  15.159  -4.252  0.00  0.00    +0.027 A 
ATOM     16  C   UNL     1       2.125  15.974  -4.791  0.00  0.00    +0.022 A 
ATOM     17  C   UNL     1       1.069  16.454  -4.009  0.00  0.00    +0.007 A 
ATOM     18  C   UNL     1       0.993  16.074  -2.701  0.00  0.00    +0.070 A 
ATOM     19  C   UNL     1       1.986  15.236  -2.176  0.00  0.00    +0.251 A 
ATOM     20  O   UNL     1       1.901  14.850  -1.021  0.00  0.00    -0.268 OA
ATOM     21  N   UNL     1       3.040  14.847  -2.936  0.00  0.00    -0.312 N 
ATOM     22  C   UNL     1       4.107  14.111  -2.259  0.00  0.00    +0.130 C 
ATOM     23  H   UNL     1       2.639  10.666  -2.912  0.00  0.00    +0.157 HD
ENDBRANCH   2   6
BRANCH   1  36
ATOM     24  C   UNL     1      -0.936   6.401   5.292  0.00  0.00    +0.005 A 
ATOM     25  C   UNL     1      -2.077   7.156   5.530  0.00  0.00    +0.018 A 
ATOM     26  C   UNL     1      -2.663   7.844   4.487  0.00  0.00    +0.084 A 
ATOM     27  N   UNL     1      -2.156   7.787   3.270  0.00  0.00    -0.350 N 
ATOM     28  C   UNL     1      -1.073   7.075   3.002  0.00  0.00    +0.099 A 
ATOM     29  C   UNL     1      -0.431   6.357   4.006  0.00  0.00    +0.042 A 
ATOM     30  N   UNL     1      -0.573   7.043   1.705  0.00  0.00    -0.314 N 
ATOM     31  C   UNL     1       0.835   7.462   1.673  0.00  0.00    +0.125 C 
ATOM     32  C   UNL     1       1.398   7.242   0.265  0.00  0.00    +0.127 C 
ATOM     33  N   UNL     1       0.524   7.925  -0.700  0.00  0.00    -0.293 N 
ATOM     34  C   UNL     1      -0.921   7.659  -0.639  0.00  0.00    +0.127 C 
ATOM     35  C   UNL     1      -1.393   7.863   0.804  0.00  0.00    +0.125 C 
ATOM     36  C   UNL     1       1.034   8.772  -1.617  0.00  0.00    +0.269 C 
ATOM     37  O   UNL     1       2.204   9.100  -1.557  0.00  0.00    -0.268 OA
ATOM     38  H   UNL     1      -2.634   8.341   2.448  0.00  0.00    +0.166 HD
ENDBRANCH   1  36
TORSDOF 2
