REMARK  Name = ZINC20367384
REMARK  8 active torsions:
REMARK  status: ('A' for Active; 'I' for Inactive)
REMARK    1  A    between atoms: C_1  and  C_2
REMARK    2  A    between atoms: C_5  and  C_8
REMARK    3  A    between atoms: C_8  and  O_9
REMARK    4  A    between atoms: O_9  and  C_10
REMARK    5  A    between atoms: C_14  and  C_16
REMARK    6  A    between atoms: C_19  and  C_30
REMARK    7  A    between atoms: C_25  and  N_29
REMARK    8  A    between atoms: C_26  and  C_27
REMARK                            x       y       z     vdW  Elec       q    Type
REMARK                         _______ _______ _______ _____ _____    ______ ____
ROOT
ATOM      1  C   UNL     1       4.491  -8.522  -0.058  0.00  0.00    +0.102 C 
ATOM      2  C   UNL     1       4.696  -9.389   1.157  0.00  0.00    +0.054 A 
ATOM      3  C   UNL     1       4.839  -9.015   2.497  0.00  0.00    +0.100 A 
ATOM      4  N   UNL     1       4.994 -10.114   3.211  0.00  0.00    -0.171 NA
ATOM      5  N   UNL     1       4.953 -11.216   2.341  0.00  0.00    -0.246 N 
ATOM      6  H   UNL     1       5.041 -12.147   2.596  0.00  0.00    +0.192 HD
ATOM      7  C   UNL     1       4.771 -10.750   1.088  0.00  0.00    +0.223 A 
ATOM      8  O   UNL     1       4.670 -11.430  -0.081  0.00  0.00    -0.423 OA
ATOM      9  C   UNL     1       4.766 -10.723  -1.226  0.00  0.00    +0.200 C 
ATOM     10  C   UNL     1       4.694  -9.374  -1.285  0.00  0.00    +0.098 C 
ENDROOT
BRANCH   3  11
ATOM     11  C   UNL     1       4.821  -7.628   3.023  0.00  0.00    +0.003 A 
ATOM     12  C   UNL     1       5.358  -6.587   2.269  0.00  0.00    +0.011 A 
ATOM     13  C   UNL     1       5.338  -5.298   2.762  0.00  0.00    +0.020 A 
ATOM     14  C   UNL     1       4.786  -5.039   4.005  0.00  0.00    +0.041 A 
ATOM     15  C   UNL     1       4.251  -6.070   4.759  0.00  0.00    +0.020 A 
ATOM     16  C   UNL     1       4.261  -7.361   4.271  0.00  0.00    +0.011 A 
ATOM     17 CL   UNL     1       4.765  -3.416   4.621  0.00  0.00    -0.084 Cl
ENDBRANCH   3  11
BRANCH   1  22
ATOM     18  C   UNL     1       1.608  -6.079  -0.040  0.00  0.00    +0.121 A 
ATOM     19  C   UNL     1       0.520  -6.939  -0.044  0.00  0.00    +0.045 A 
ATOM     20  C   UNL     1       0.721  -8.306  -0.053  0.00  0.00    +0.004 A 
ATOM     21  C   UNL     1       2.006  -8.817  -0.058  0.00  0.00    +0.005 A 
ATOM     22  C   UNL     1       3.092  -7.962  -0.053  0.00  0.00    -0.031 A 
ATOM     23  C   UNL     1       2.896  -6.594  -0.050  0.00  0.00    +0.050 A 
BRANCH  18  24
ATOM     24  O   UNL     1       1.413  -4.734  -0.032  0.00  0.00    -0.487 OA
BRANCH  24  25
ATOM     25  C   UNL     1       0.059  -4.275  -0.021  0.00  0.00    +0.264 C 
BRANCH  25  30
ATOM     26  C   UNL     1      -0.018   1.503   0.010  0.00  0.00    +0.044 C 
ATOM     27  C   UNL     1       0.002  -0.004   0.002  0.00  0.00    -0.050 A 
ATOM     28  C   UNL     1       0.006  -0.689  -1.199  0.00  0.00    +0.004 A 
ATOM     29  C   UNL     1       0.025  -2.071  -1.206  0.00  0.00    +0.007 A 
ATOM     30  C   UNL     1       0.040  -2.768  -0.013  0.00  0.00    -0.010 A 
ATOM     31  C   UNL     1       0.037  -2.084   1.188  0.00  0.00    +0.007 A 
ATOM     32  C   UNL     1       0.023  -0.702   1.195  0.00  0.00    +0.004 A 
ENDBRANCH  25  30
ENDBRANCH  24  25
ENDBRANCH  18  24
ENDBRANCH   1  22
BRANCH   9  33
ATOM     33  N   UNL     1       4.948 -11.413  -2.398  0.00  0.00    -0.328 N 
ATOM     34  H   UNL     1       5.004 -12.381  -2.388  0.00  0.00    +0.145 HD
ATOM     35  H   UNL     1       5.021 -10.932  -3.238  0.00  0.00    +0.145 HD
ENDBRANCH   9  33
BRANCH  10  36
ATOM     36  C   UNL     1       4.815  -8.731  -2.559  0.00  0.00    +0.101 C 
ATOM     37  N   UNL     1       4.910  -8.221  -3.570  0.00  0.00    -0.191 NA
ENDBRANCH  10  36
TORSDOF 7
