REMARK  Name = ZINC36208032
REMARK  11 active torsions:
REMARK  status: ('A' for Active; 'I' for Inactive)
REMARK    1  A    between atoms: C_1  and  C_2
REMARK    2  A    between atoms: C_2  and  N_3
REMARK    3  A    between atoms: N_3  and  C_4
REMARK    4  A    between atoms: N_3  and  C_22
REMARK    5  A    between atoms: C_4  and  C_5
REMARK    6  A    between atoms: C_17  and  C_21
REMARK    7  A    between atoms: C_22  and  C_23
REMARK    8  A    between atoms: C_23  and  C_25
REMARK    9  A    between atoms: C_23  and  O_34
REMARK   10  A    between atoms: C_25  and  O_26
REMARK   11  A    between atoms: O_26  and  C_27
REMARK                            x       y       z     vdW  Elec       q    Type
REMARK                         _______ _______ _______ _____ _____    ______ ____
ROOT
ATOM      1  N   UNL     1       0.778  -0.365  -1.328  0.00  0.00    +0.386 N 
ATOM      2  H   UNL     1       0.446   0.163  -2.121  0.00  0.00    -0.081 HD
ENDROOT
BRANCH   1   4
ATOM      3  C   UNL     1       0.498  -0.797   1.066  0.00  0.00    -0.017 C 
ATOM      4  C   UNL     1      -0.067  -0.079  -0.161  0.00  0.00    -0.082 C 
ENDBRANCH   1   4
BRANCH   1   5
ATOM      5  C   UNL     1       0.720  -1.800  -1.635  0.00  0.00    -0.003 C 
BRANCH   5   6
ATOM      6  C   UNL     1      -0.680  -2.167  -2.057  0.00  0.00    +0.094 A 
ATOM      7  N   UNL     1      -0.963  -3.454  -2.384  0.00  0.00    -0.312 N 
ATOM      8  H   UNL     1      -0.259  -4.120  -2.341  0.00  0.00    +0.170 HD
ATOM      9  C   UNL     1      -2.199  -3.824  -2.765  0.00  0.00    +0.260 A 
ATOM     10  O   UNL     1      -2.437  -4.984  -3.054  0.00  0.00    -0.267 OA
ATOM     11  C   UNL     1      -3.232  -2.832  -2.825  0.00  0.00    +0.075 A 
ATOM     12  C   UNL     1      -4.633  -3.001  -3.209  0.00  0.00    -0.023 A 
ATOM     13  C   UNL     1      -5.412  -1.899  -3.183  0.00  0.00    -0.004 A 
ATOM     14  S   UNL     1      -4.339  -0.591  -2.654  0.00  0.00    -0.073 S 
ATOM     15  C   UNL     1      -2.845  -1.530  -2.469  0.00  0.00    +0.116 A 
ATOM     16  N   UNL     1      -1.601  -1.241  -2.097  0.00  0.00    -0.229 NA
ATOM     17  C   UNL     1      -6.867  -1.807  -3.529  0.00  0.00    +0.046 C 
ATOM     18  C   UNL     1      -7.267  -3.085  -4.280  0.00  0.00    -0.009 C 
ATOM     19  C   UNL     1      -6.732  -4.295  -3.509  0.00  0.00    +0.008 C 
ATOM     20  C   UNL     1      -5.209  -4.352  -3.623  0.00  0.00    +0.037 C 
ATOM     21  C   UNL     1      -8.792  -3.167  -4.378  0.00  0.00    +0.008 C 
ENDBRANCH   5   6
ENDBRANCH   1   5
BRANCH   1  22
ATOM     22  C   UNL     1       2.166   0.016  -1.033  0.00  0.00    -0.043 C 
BRANCH  22  23
ATOM     23  C   UNL     1       2.248   1.531  -0.833  0.00  0.00    +0.135 C 
BRANCH  23  24
ATOM     24  O   UNL     1       1.804   2.193  -2.019  0.00  0.00    -0.390 OA
ATOM     25  H   UNL     1       2.325   1.980  -2.806  0.00  0.00    +0.210 HD
ENDBRANCH  23  24
BRANCH  23  26
ATOM     26  C   UNL     1       3.695   1.929  -0.538  0.00  0.00    +0.258 C 
BRANCH  26  27
ATOM     27  O   UNL     1       3.753   3.325  -0.236  0.00  0.00    -0.489 OA
BRANCH  27  28
ATOM     28  C   UNL     1       4.976   3.844   0.052  0.00  0.00    +0.121 A 
ATOM     29  C   UNL     1       6.097   3.028   0.038  0.00  0.00    +0.047 A 
ATOM     30  C   UNL     1       7.339   3.557   0.331  0.00  0.00    +0.023 A 
ATOM     31  C   UNL     1       7.465   4.900   0.638  0.00  0.00    +0.041 A 
ATOM     32  C   UNL     1       6.347   5.716   0.652  0.00  0.00    +0.023 A 
ATOM     33  C   UNL     1       5.104   5.192   0.353  0.00  0.00    +0.047 A 
ATOM     34 CL   UNL     1       9.027   5.563   1.006  0.00  0.00    -0.084 Cl
ENDBRANCH  27  28
ENDBRANCH  26  27
ENDBRANCH  23  26
ENDBRANCH  22  23
ENDBRANCH   1  22
TORSDOF 9
