REMARK  Name = ZINC00987147
REMARK  11 active torsions:
REMARK  status: ('A' for Active; 'I' for Inactive)
REMARK    1  A    between atoms: C_1  and  C_2
REMARK    2  A    between atoms: C_4  and  C_8
REMARK    3  A    between atoms: C_5  and  C_7
REMARK    4  A    between atoms: C_15  and  N_38
REMARK    5  A    between atoms: C_16  and  C_36
REMARK    6  A    between atoms: C_17  and  C_19
REMARK    7  A    between atoms: C_22  and  O_27
REMARK    8  A    between atoms: C_23  and  O_25
REMARK    9  A    between atoms: O_25  and  C_26
REMARK   10  A    between atoms: O_27  and  C_28
REMARK   11  A    between atoms: C_28  and  C_29
REMARK                            x       y       z     vdW  Elec       q    Type
REMARK                         _______ _______ _______ _____ _____    ______ ____
ROOT
ATOM      1  C   UNL     1      -2.085  -3.499   0.048  0.00  0.00    +0.101 A 
ATOM      2  C   UNL     1      -3.425  -3.105   0.102  0.00  0.00    +0.054 A 
ATOM      3  C   UNL     1      -4.193  -4.230   0.193  0.00  0.00    +0.223 A 
ATOM      4  N   UNL     1      -3.363  -5.294   0.195  0.00  0.00    -0.246 N 
ATOM      5  H   UNL     1      -3.630  -6.225   0.249  0.00  0.00    +0.192 HD
ATOM      6  N   UNL     1      -2.047  -4.817   0.099  0.00  0.00    -0.171 NA
ATOM      7  O   UNL     1      -5.546  -4.188   0.266  0.00  0.00    -0.423 OA
ATOM      8  C   UNL     1      -6.122  -2.996   0.524  0.00  0.00    +0.200 C 
ATOM      9  C   UNL     1      -5.468  -1.815   0.453  0.00  0.00    +0.098 C 
ATOM     10  C   UNL     1      -4.013  -1.718   0.070  0.00  0.00    +0.102 C 
ENDROOT
BRANCH   1  14
ATOM     11  C   UNL     1       0.640   0.558   1.431  0.00  0.00    +0.051 C 
ATOM     12  C   UNL     1       0.290  -0.686   0.655  0.00  0.00    -0.012 A 
ATOM     13  C   UNL     1      -0.794  -1.486   0.778  0.00  0.00    +0.021 A 
ATOM     14  C   UNL     1      -0.912  -2.595  -0.054  0.00  0.00    +0.013 A 
ATOM     15  C   UNL     1       0.076  -2.833  -0.967  0.00  0.00    -0.004 A 
ATOM     16  S   UNL     1       1.195  -1.475  -0.665  0.00  0.00    -0.098 S 
ATOM     17  C   UNL     1       0.190  -3.950  -1.973  0.00  0.00    +0.052 C 
ENDBRANCH   1  14
BRANCH  10  18
ATOM     18  C   UNL     1      -3.889  -1.145  -1.318  0.00  0.00    -0.031 A 
ATOM     19  C   UNL     1      -3.215   0.046  -1.515  0.00  0.00    +0.008 A 
ATOM     20  C   UNL     1      -3.099   0.576  -2.787  0.00  0.00    +0.050 A 
ATOM     21  C   UNL     1      -3.659  -0.086  -3.867  0.00  0.00    +0.162 A 
ATOM     22  C   UNL     1      -4.338  -1.285  -3.669  0.00  0.00    +0.162 A 
ATOM     23  C   UNL     1      -4.447  -1.813  -2.392  0.00  0.00    +0.054 A 
BRANCH  22  24
ATOM     24  O   UNL     1      -4.890  -1.939  -4.726  0.00  0.00    -0.491 OA
ATOM     25  C   UNL     1      -5.481  -3.213  -4.464  0.00  0.00    +0.277 C 
ENDBRANCH  22  24
BRANCH  21  26
ATOM     26  O   UNL     1      -3.547   0.434  -5.119  0.00  0.00    -0.484 OA
BRANCH  26  27
ATOM     27  C   UNL     1      -2.837   1.667  -5.247  0.00  0.00    +0.264 C 
BRANCH  27  28
ATOM     28  C   UNL     1      -2.815   2.086  -6.694  0.00  0.00    -0.010 A 
ATOM     29  C   UNL     1      -1.786   1.668  -7.519  0.00  0.00    +0.010 A 
ATOM     30  C   UNL     1      -1.765   2.051  -8.846  0.00  0.00    +0.039 A 
ATOM     31  C   UNL     1      -2.775   2.853  -9.351  0.00  0.00    +0.123 A 
ATOM     32  C   UNL     1      -3.804   3.271  -8.524  0.00  0.00    +0.039 A 
ATOM     33  C   UNL     1      -3.826   2.882  -7.198  0.00  0.00    +0.010 A 
ATOM     34  F   UNL     1      -2.755   3.229 -10.649  0.00  0.00    -0.205 F 
ENDBRANCH  27  28
ENDBRANCH  26  27
ENDBRANCH  21  26
ENDBRANCH  10  18
BRANCH   8  35
ATOM     35  N   UNL     1      -7.448  -2.981   0.878  0.00  0.00    -0.328 N 
ATOM     36  H   UNL     1      -7.944  -3.813   0.936  0.00  0.00    +0.145 HD
ATOM     37  H   UNL     1      -7.889  -2.139   1.069  0.00  0.00    +0.145 HD
ENDBRANCH   8  35
BRANCH   9  38
ATOM     38  C   UNL     1      -6.184  -0.611   0.753  0.00  0.00    +0.101 C 
ATOM     39  N   UNL     1      -6.753   0.343   0.991  0.00  0.00    -0.191 NA
ENDBRANCH   9  38
TORSDOF 8
