REMARK  Name = ZINC37011351
REMARK  3 active torsions:
REMARK  status: ('A' for Active; 'I' for Inactive)
REMARK    1  A    between atoms: C_3  and  N_9
REMARK    2  A    between atoms: C_10  and  C_12
REMARK    3  A    between atoms: C_15  and  N_18
REMARK                            x       y       z     vdW  Elec       q    Type
REMARK                         _______ _______ _______ _____ _____    ______ ____
ROOT
ATOM      1  N   UNL     1       3.584   2.128  -0.021  0.00  0.00    -0.278 N 
ATOM      2  C   UNL     1       3.567   3.473  -0.116  0.00  0.00    +0.265 C 
ATOM      3  O   UNL     1       2.507   4.071  -0.103  0.00  0.00    -0.268 OA
ATOM      4  H   UNL     1       4.429   1.658   0.049  0.00  0.00    +0.155 HD
ENDROOT
BRANCH   1   7
ATOM      5  C   UNL     1       0.065   1.243  -0.621  0.00  0.00    +0.017 A 
ATOM      6  C   UNL     1       1.250   1.953  -0.618  0.00  0.00    +0.027 A 
ATOM      7  C   UNL     1       2.381   1.411  -0.024  0.00  0.00    +0.069 A 
ATOM      8  C   UNL     1       2.318   0.154   0.568  0.00  0.00    +0.146 A 
ATOM      9  C   UNL     1       1.129  -0.551   0.562  0.00  0.00    +0.055 A 
ATOM     10  C   UNL     1       0.004  -0.007  -0.032  0.00  0.00    +0.021 A 
ATOM     11 BR   UNL     1      -1.621  -0.974  -0.037  0.00  0.00    -0.050 Br
ATOM     12  F   UNL     1       3.417  -0.377   1.147  0.00  0.00    -0.204 F 
ENDBRANCH   1   7
BRANCH   2  13
ATOM     13  C   UNL     1       4.826   4.215  -0.235  0.00  0.00    +0.104 A 
ATOM     14  C   UNL     1       4.959   5.584  -0.333  0.00  0.00    +0.034 A 
ATOM     15  C   UNL     1       6.327   5.859  -0.427  0.00  0.00    +0.053 A 
ATOM     16  C   UNL     1       6.991   4.679  -0.385  0.00  0.00    +0.194 A 
ATOM     17  N   UNL     1       6.091   3.673  -0.263  0.00  0.00    -0.332 N 
ATOM     18  H   UNL     1       6.303   2.728  -0.207  0.00  0.00    +0.168 HD
BRANCH  16  19
ATOM     19  N   UNL     1       8.461   4.516  -0.455  0.00  0.00    +0.073 N 
ATOM     20  O   UNL     1       8.949   3.411  -0.409  0.00  0.00    -0.125 OA
ATOM     21  O   UNL     1       9.172   5.487  -0.559  0.00  0.00    -0.125 OA
ENDBRANCH  16  19
ENDBRANCH   2  13
TORSDOF 3
