REMARK  Name = ZINC07990172
REMARK  4 active torsions:
REMARK  status: ('A' for Active; 'I' for Inactive)
REMARK    1  A    between atoms: C_4  and  N_7
REMARK    2  A    between atoms: C_10  and  S_17
REMARK    3  A    between atoms: S_17  and  C_18
REMARK    4  A    between atoms: C_27  and  O_29
REMARK                            x       y       z     vdW  Elec       q    Type
REMARK                         _______ _______ _______ _____ _____    ______ ____
ROOT
ATOM      1  N   UNL     1       3.623  -0.651  -0.037  0.00  0.00    -0.214 N 
ATOM      2  C   UNL     1       3.885  -1.839   0.584  0.00  0.00    +0.171 A 
ATOM      3  N   UNL     1       3.175  -2.677   1.335  0.00  0.00    -0.202 NA
ATOM      4  C   UNL     1       3.721  -3.785   1.809  0.00  0.00    +0.194 A 
ATOM      5  N   UNL     1       4.986  -4.115   1.566  0.00  0.00    -0.183 NA
ATOM      6  C   UNL     1       5.767  -3.340   0.828  0.00  0.00    +0.285 A 
ATOM      7  O   UNL     1       7.054  -3.684   0.587  0.00  0.00    -0.265 OA
ATOM      8  C   UNL     1       5.231  -2.150   0.302  0.00  0.00    +0.105 A 
ATOM      9  C   UNL     1       5.737  -1.105  -0.502  0.00  0.00    +0.150 A 
ATOM     10  N   UNL     1       4.786  -0.236  -0.698  0.00  0.00    -0.172 NA
ENDROOT
BRANCH   1  14
ATOM     11  C   UNL     1      -0.017   1.379   0.010  0.00  0.00    +0.000 A 
ATOM     12  C   UNL     1       1.170   2.089   0.002  0.00  0.00    +0.002 A 
ATOM     13  C   UNL     1       2.377   1.419  -0.013  0.00  0.00    +0.028 A 
ATOM     14  C   UNL     1       2.400   0.031  -0.021  0.00  0.00    +0.068 A 
ATOM     15  C   UNL     1       1.206  -0.680  -0.013  0.00  0.00    +0.028 A 
ATOM     16  C   UNL     1       0.002  -0.004   0.002  0.00  0.00    +0.002 A 
ENDBRANCH   1  14
BRANCH   4  17
ATOM     17  S   UNL     1       2.738  -4.861   2.798  0.00  0.00    -0.079 S 
BRANCH  17  18
ATOM     18  C   UNL     1       3.863  -6.219   3.221  0.00  0.00    +0.092 C 
ATOM     19  C   UNL     1       4.193  -7.067   1.974  0.00  0.00    +0.053 C 
ATOM     20  C   UNL     1       4.307  -8.489   2.480  0.00  0.00    -0.041 A 
ATOM     21  C   UNL     1       4.881  -9.606   1.897  0.00  0.00    +0.004 A 
ATOM     22  C   UNL     1       4.866 -10.820   2.556  0.00  0.00    +0.000 A 
ATOM     23  C   UNL     1       4.276 -10.921   3.802  0.00  0.00    +0.000 A 
ATOM     24  C   UNL     1       3.703  -9.808   4.386  0.00  0.00    +0.006 A 
ATOM     25  C   UNL     1       3.717  -8.590   3.726  0.00  0.00    -0.015 A 
ATOM     26  C   UNL     1       3.168  -7.240   4.147  0.00  0.00    +0.158 C 
BRANCH  26  27
ATOM     27  O   UNL     1       1.753  -7.200   3.955  0.00  0.00    -0.386 OA
ATOM     28  H   UNL     1       1.262  -7.821   4.511  0.00  0.00    +0.210 HD
ENDBRANCH  26  27
ENDBRANCH  17  18
ENDBRANCH   4  17
TORSDOF 4
