REMARK  Name = ZINC63273834
REMARK  7 active torsions:
REMARK  status: ('A' for Active; 'I' for Inactive)
REMARK    1  A    between atoms: C_5  and  S_14
REMARK    2  A    between atoms: C_10  and  N_11
REMARK    3  A    between atoms: S_14  and  C_15
REMARK    4  A    between atoms: C_15  and  C_16
REMARK    5  A    between atoms: N_18  and  C_19
REMARK    6  A    between atoms: C_21  and  C_29
REMARK    7  A    between atoms: C_23  and  C_25
REMARK                            x       y       z     vdW  Elec       q    Type
REMARK                         _______ _______ _______ _____ _____    ______ ____
ROOT
ATOM      1  C   UNL     1       5.088   0.793  -4.209  0.00  0.00    +0.227 C 
ATOM      2  O   UNL     1       6.300   0.819  -4.230  0.00  0.00    -0.275 OA
ATOM      3  N   UNL     1       4.393   0.787  -5.364  0.00  0.00    -0.285 N 
ATOM      4  H   UNL     1       3.427   0.699  -5.349  0.00  0.00    +0.155 HD
ENDROOT
BRANCH   3   5
ATOM      5  C   UNL     1       5.066   0.909  -6.585  0.00  0.00    +0.034 A 
ATOM      6  C   UNL     1       4.482   1.608  -7.634  0.00  0.00    +0.035 A 
ATOM      7  C   UNL     1       5.148   1.726  -8.838  0.00  0.00    +0.057 A 
ATOM      8  C   UNL     1       6.395   1.150  -8.999  0.00  0.00    +0.024 A 
ATOM      9  C   UNL     1       6.979   0.454  -7.957  0.00  0.00    +0.057 A 
ATOM     10  C   UNL     1       6.320   0.337  -6.748  0.00  0.00    +0.035 A 
BRANCH   9  11
ATOM     11  C   UNL     1       8.337  -0.172  -8.138  0.00  0.00    +0.417 C 
ATOM     12  F   UNL     1       9.327   0.746  -7.769  0.00  0.00    -0.166 F 
ATOM     13  F   UNL     1       8.436  -1.312  -7.333  0.00  0.00    -0.166 F 
ATOM     14  F   UNL     1       8.511  -0.532  -9.479  0.00  0.00    -0.166 F 
ENDBRANCH   9  11
BRANCH   7  15
ATOM     15  C   UNL     1       4.515   2.483  -9.977  0.00  0.00    +0.417 C 
ATOM     16  F   UNL     1       3.266   2.969  -9.577  0.00  0.00    -0.166 F 
ATOM     17  F   UNL     1       5.338   3.555 -10.338  0.00  0.00    -0.166 F 
ATOM     18  F   UNL     1       4.354   1.629 -11.072  0.00  0.00    -0.166 F 
ENDBRANCH   7  15
ENDBRANCH   3   5
BRANCH   1  19
ATOM     19  C   UNL     1       4.358   0.767  -2.890  0.00  0.00    +0.169 C 
BRANCH  19  20
ATOM     20  S   UNL     1       5.561   0.782  -1.533  0.00  0.00    -0.106 S 
BRANCH  20  25
ATOM     21  C   UNL     1      -0.022   1.357   0.011  0.00  0.00    +0.035 A 
ATOM     22  C   UNL     1       1.099   2.107   0.006  0.00  0.00    +0.029 A 
ATOM     23  C   UNL     1       2.412   1.448  -0.011  0.00  0.00    +0.061 A 
ATOM     24  N   UNL     1       3.631   1.905  -0.019  0.00  0.00    -0.355 N 
ATOM     25  C   UNL     1       4.535   0.748  -0.037  0.00  0.00    +0.236 C 
ATOM     26  N   UNL     1       3.679  -0.446  -0.038  0.00  0.00    -0.355 N 
ATOM     27  C   UNL     1       2.442  -0.040  -0.024  0.00  0.00    +0.063 A 
ATOM     28  C   UNL     1       1.157  -0.752  -0.017  0.00  0.00    +0.060 A 
ATOM     29  C   UNL     1       0.007  -0.049  -0.001  0.00  0.00    +0.128 A 
ATOM     30  H   UNL     1       3.980  -1.368  -0.048  0.00  0.00    +0.162 HD
ATOM     31  H   UNL     1       3.894   2.838  -0.015  0.00  0.00    +0.162 HD
BRANCH  29  32
ATOM     32  N   UNL     1      -1.276  -0.786   0.006  0.00  0.00    +0.056 N 
ATOM     33  O   UNL     1      -2.322  -0.179   0.020  0.00  0.00    -0.126 OA
ATOM     34  O   UNL     1      -1.279  -1.995  -0.004  0.00  0.00    -0.126 OA
ENDBRANCH  29  32
ENDBRANCH  20  25
ENDBRANCH  19  20
ENDBRANCH   1  19
TORSDOF 7
