REMARK  Name = ZINC36370908
REMARK  4 active torsions:
REMARK  status: ('A' for Active; 'I' for Inactive)
REMARK    1  A    between atoms: C_1  and  C_2
REMARK    2  A    between atoms: C_17  and  C_35
REMARK    3  A    between atoms: C_22  and  C_23
REMARK    4  A    between atoms: N_30  and  N_31
REMARK                            x       y       z     vdW  Elec       q    Type
REMARK                         _______ _______ _______ _____ _____    ______ ____
ROOT
ATOM      1  C   UNL     1      -0.180   1.520   0.374  0.00  0.00    +0.012 C 
ATOM      2  C   UNL     1      -0.217   0.046   0.800  0.00  0.00    -0.026 C 
ATOM      3  C   UNL     1       0.788  -0.753  -0.019  0.00  0.00    +0.007 C 
ATOM      4  C   UNL     1       2.213  -0.268   0.254  0.00  0.00    +0.001 C 
ATOM      5  C   UNL     1       2.528  -0.408   1.743  0.00  0.00    +0.000 C 
ATOM      6  C   UNL     1       1.539   0.419   2.563  0.00  0.00    +0.004 C 
ATOM      7  C   UNL     1       0.107  -0.045   2.292  0.00  0.00    -0.005 C 
ATOM      8  C   UNL     1      -0.072  -1.463   2.831  0.00  0.00    +0.004 C 
ATOM      9  C   UNL     1      -1.495  -1.967   2.557  0.00  0.00    +0.004 C 
ATOM     10  C   UNL     1      -1.697  -1.938   1.044  0.00  0.00    -0.003 C 
ATOM     11  C   UNL     1      -1.641  -0.485   0.575  0.00  0.00    -0.001 C 
ATOM     12  C   UNL     1      -2.108  -0.326  -0.857  0.00  0.00    +0.005 C 
ATOM     13  C   UNL     1      -3.512  -0.891  -1.109  0.00  0.00    +0.013 C 
ATOM     14  C   UNL     1      -4.015  -1.679   0.070  0.00  0.00    +0.015 C 
ATOM     15  C   UNL     1      -2.912  -2.646   0.556  0.00  0.00    +0.009 C 
ATOM     16  C   UNL     1      -3.730  -3.493   1.542  0.00  0.00    +0.041 C 
ATOM     17  C   UNL     1      -5.012  -3.720   0.736  0.00  0.00    -0.023 C 
ATOM     18  C   UNL     1      -5.873  -4.744   0.899  0.00  0.00    +0.013 C 
ATOM     19  C   UNL     1      -5.138  -2.657  -0.218  0.00  0.00    +0.069 C 
ATOM     20  N   UNL     1      -6.030  -2.536  -1.151  0.00  0.00    -0.183 NA
ATOM     21  C   UNL     1      -4.531  -0.757   1.174  0.00  0.00    +0.018 C 
ENDROOT
BRANCH  20  22
ATOM     22  N   UNL     1      -6.797  -3.645  -1.534  0.00  0.00    -0.191 N 
ATOM     23  C   UNL     1      -7.798  -3.496  -2.424  0.00  0.00    +0.317 C 
ATOM     24  O   UNL     1      -8.463  -4.458  -2.757  0.00  0.00    -0.251 OA
ATOM     25  N   UNL     1      -8.062  -2.281  -2.945  0.00  0.00    -0.312 N 
ATOM     26  H   UNL     1      -6.607  -4.519  -1.159  0.00  0.00    +0.179 HD
ATOM     27  H   UNL     1      -7.531  -1.514  -2.680  0.00  0.00    +0.147 HD
ATOM     28  H   UNL     1      -8.782  -2.174  -3.586  0.00  0.00    +0.147 HD
ENDBRANCH  20  22
BRANCH  18  29
ATOM     29  C   UNL     1      -5.554  -5.830   1.841  0.00  0.00    -0.025 A 
ATOM     30  C   UNL     1      -4.777  -5.572   2.974  0.00  0.00    +0.008 A 
ATOM     31  C   UNL     1      -4.483  -6.595   3.851  0.00  0.00    +0.001 A 
ATOM     32  C   UNL     1      -4.955  -7.874   3.611  0.00  0.00    +0.000 A 
ATOM     33  C   UNL     1      -5.725  -8.137   2.491  0.00  0.00    +0.001 A 
ATOM     34  C   UNL     1      -6.033  -7.123   1.609  0.00  0.00    +0.008 A 
ENDBRANCH  18  29
TORSDOF 2
