REMARK  Name = ZINC39686085
REMARK  11 active torsions:
REMARK  status: ('A' for Active; 'I' for Inactive)
REMARK    1  A    between atoms: C_1  and  C_2
REMARK    2  A    between atoms: C_2  and  C_3
REMARK    3  A    between atoms: C_3  and  C_4
REMARK    4  A    between atoms: C_4  and  C_5
REMARK    5  A    between atoms: C_5  and  C_7
REMARK    6  A    between atoms: C_5  and  C_8
REMARK    7  A    between atoms: C_12  and  C_21
REMARK    8  A    between atoms: N_23  and  C_24
REMARK    9  A    between atoms: C_30  and  C_32
REMARK   10  A    between atoms: C_32  and  C_33
REMARK   11  A    between atoms: C_32  and  C_34
REMARK                            x       y       z     vdW  Elec       q    Type
REMARK                         _______ _______ _______ _____ _____    ______ ____
ROOT
ATOM      1  C   UNL     1       3.745  -5.489  -0.838  0.00  0.00    +0.218 C 
ATOM      2  O   UNL     1       3.702  -6.222   0.128  0.00  0.00    -0.275 OA
ATOM      3  N   UNL     1       4.167  -5.964  -2.026  0.00  0.00    -0.300 N 
ATOM      4  C   UNL     1       4.293  -5.228  -3.306  0.00  0.00    +0.121 C 
ATOM      5  C   UNL     1       5.599  -5.762  -3.936  0.00  0.00    +0.100 C 
ATOM      6  C   UNL     1       5.800  -7.150  -3.305  0.00  0.00    -0.004 C 
ATOM      7  C   UNL     1       4.615  -7.341  -2.347  0.00  0.00    +0.115 C 
ATOM      8  C   UNL     1       5.786  -8.228  -4.385  0.00  0.00    -0.010 C 
ATOM      9  C   UNL     1       6.046  -9.592  -3.741  0.00  0.00    -0.082 C 
ATOM     10  N   UNL     1       7.344  -9.574  -3.056  0.00  0.00    +0.379 N 
ATOM     11  C   UNL     1       7.318  -8.599  -1.959  0.00  0.00    -0.082 C 
ATOM     12  C   UNL     1       7.112  -7.192  -2.528  0.00  0.00    -0.010 C 
ATOM     13  H   UNL     1       7.540 -10.491  -2.685  0.00  0.00    -0.086 HD
ATOM     14  H   UNL     1       8.066  -9.319  -3.714  0.00  0.00    -0.086 HD
ENDROOT
BRANCH   5  15
ATOM     15  C   UNL     1       5.451  -5.878  -5.431  0.00  0.00    +0.218 C 
ATOM     16  O   UNL     1       4.359  -6.086  -5.918  0.00  0.00    -0.275 OA
ATOM     17  N   UNL     1       6.531  -5.752  -6.227  0.00  0.00    -0.312 N 
ATOM     18  H   UNL     1       7.404  -5.586  -5.838  0.00  0.00    +0.149 HD
BRANCH  17  19
ATOM     19  C   UNL     1       6.386  -5.865  -7.681  0.00  0.00    +0.076 C 
ATOM     20  C   UNL     1       6.441  -7.340  -8.085  0.00  0.00    +0.041 C 
ATOM     21  C   UNL     1       6.255  -7.458  -9.601  0.00  0.00    +0.109 C 
ATOM     22  N   UNL     1       7.255  -6.612 -10.267  0.00  0.00    -0.301 N 
ATOM     23  C   UNL     1       7.349  -5.196  -9.886  0.00  0.00    +0.109 C 
ATOM     24  C   UNL     1       7.523  -5.104  -8.367  0.00  0.00    +0.041 C 
ATOM     25  C   UNL     1       8.072  -7.125 -11.209  0.00  0.00    +0.218 C 
ATOM     26  O   UNL     1       8.942  -6.436 -11.698  0.00  0.00    -0.275 OA
BRANCH  25  27
ATOM     27  C   UNL     1       7.903  -8.555 -11.654  0.00  0.00    +0.069 C 
ATOM     28  C   UNL     1       6.761  -8.642 -12.669  0.00  0.00    +0.017 C 
ATOM     29  C   UNL     1       9.200  -9.043 -12.302  0.00  0.00    +0.017 C 
ENDBRANCH  25  27
ENDBRANCH  17  19
ENDBRANCH   5  15
BRANCH   1  30
ATOM     30  C   UNL     1       3.326  -4.047  -0.709  0.00  0.00    +0.072 C 
ATOM     31  C   UNL     1       2.156  -3.769  -1.655  0.00  0.00    +0.017 C 
BRANCH  30  32
ATOM     32  C   UNL     1       2.894  -3.769   0.733  0.00  0.00    +0.012 C 
BRANCH  32  33
ATOM     33  C   UNL     1       2.588  -2.278   0.894  0.00  0.00    +0.000 C 
BRANCH  33  35
ATOM     34  C   UNL     1       1.850  -0.509   2.497  0.00  0.00    +0.004 C 
ATOM     35  C   UNL     1       2.156  -2.000   2.335  0.00  0.00    -0.003 C 
ENDBRANCH  33  35
ENDBRANCH  32  33
ENDBRANCH  30  32
ENDBRANCH   1  30
TORSDOF 7
