REMARK  Name = ZINC16312145
REMARK  6 active torsions:
REMARK  status: ('A' for Active; 'I' for Inactive)
REMARK    1  A    between atoms: C_1  and  C_2
REMARK    2  A    between atoms: C_5  and  N_9
REMARK    3  A    between atoms: C_7  and  C_8
REMARK    4  A    between atoms: C_13  and  N_14
REMARK    5  A    between atoms: N_14  and  C_15
REMARK    6  A    between atoms: C_16  and  C_24
REMARK                            x       y       z     vdW  Elec       q    Type
REMARK                         _______ _______ _______ _____ _____    ______ ____
ROOT
ATOM      1  N   UNL     1      -0.010  -4.172  -0.017  0.00  0.00    -0.190 N 
ATOM      2  C   UNL     1      -0.098  -4.827  -1.193  0.00  0.00    +0.265 C 
ATOM      3  O   UNL     1      -0.231  -4.218  -2.238  0.00  0.00    -0.269 OA
ATOM      4  C   UNL     1      -0.026  -6.298  -1.178  0.00  0.00    +0.113 C 
ATOM      5  C   UNL     1      -0.108  -7.037  -2.345  0.00  0.00    +0.091 C 
ATOM      6  C   UNL     1       0.136  -6.949   0.134  0.00  0.00    +0.258 C 
ATOM      7  O   UNL     1       0.203  -8.161   0.227  0.00  0.00    -0.270 OA
ATOM      8  N   UNL     1       0.209  -6.165   1.230  0.00  0.00    -0.235 N 
ATOM      9  C   UNL     1       0.142  -4.830   1.141  0.00  0.00    +0.320 C 
ATOM     10  O   UNL     1       0.220  -4.180   2.166  0.00  0.00    -0.251 OA
ATOM     11  H   UNL     1       0.316  -6.578   2.101  0.00  0.00    +0.159 HD
ENDROOT
BRANCH   1  16
ATOM     12  C   UNL     1      -0.273   1.497   0.025  0.00  0.00    +0.044 C 
ATOM     13  C   UNL     1      -0.203  -0.009   0.015  0.00  0.00    -0.047 A 
ATOM     14  C   UNL     1       0.987  -0.646   0.312  0.00  0.00    +0.005 A 
ATOM     15  C   UNL     1       1.054  -2.026   0.303  0.00  0.00    +0.024 A 
ATOM     16  C   UNL     1      -0.075  -2.772  -0.006  0.00  0.00    +0.046 A 
ATOM     17  C   UNL     1      -1.269  -2.129  -0.304  0.00  0.00    +0.027 A 
ATOM     18  C   UNL     1      -1.331  -0.749  -0.288  0.00  0.00    -0.046 A 
ATOM     19  C   UNL     1      -2.628  -0.050  -0.606  0.00  0.00    +0.044 C 
ENDBRANCH   1  16
BRANCH   5  20
ATOM     20  N   UNL     1      -0.119  -6.410  -3.541  0.00  0.00    -0.313 N 
ATOM     21  H   UNL     1       0.011  -5.450  -3.586  0.00  0.00    +0.152 HD
BRANCH  20  22
ATOM     22  C   UNL     1      -0.315  -7.139  -4.703  0.00  0.00    +0.087 A 
ATOM     23  C   UNL     1      -0.351  -6.671  -6.006  0.00  0.00    +0.084 A 
ATOM     24  C   UNL     1      -0.574  -7.647  -7.057  0.00  0.00    -0.018 A 
ATOM     25  C   UNL     1      -0.722  -8.915  -6.612  0.00  0.00    -0.004 A 
ATOM     26  S   UNL     1      -0.557  -8.794  -4.855  0.00  0.00    -0.077 S 
ATOM     27  C   UNL     1      -0.965 -10.137  -7.442  0.00  0.00    +0.043 C 
ATOM     28  C   UNL     1      -1.398  -9.688  -8.846  0.00  0.00    +0.005 C 
ATOM     29  C   UNL     1      -0.434  -8.606  -9.340  0.00  0.00    +0.005 C 
ATOM     30  C   UNL     1      -0.643  -7.317  -8.541  0.00  0.00    +0.037 C 
BRANCH  23  31
ATOM     31  C   UNL     1      -0.176  -5.281  -6.304  0.00  0.00    +0.102 C 
ATOM     32  N   UNL     1      -0.036  -4.179  -6.541  0.00  0.00    -0.191 NA
ENDBRANCH  23  31
ENDBRANCH  20  22
ENDBRANCH   5  20
TORSDOF 4
