REMARK  Name = ZINC38678219
REMARK  8 active torsions:
REMARK  status: ('A' for Active; 'I' for Inactive)
REMARK    1  A    between atoms: C_1  and  N_2
REMARK    2  A    between atoms: C_6  and  C_7
REMARK    3  A    between atoms: C_7  and  C_9
REMARK    4  A    between atoms: C_7  and  N_27
REMARK    5  A    between atoms: C_9  and  N_10
REMARK    6  A    between atoms: N_13  and  C_14
REMARK    7  A    between atoms: C_14  and  C_15
REMARK    8  A    between atoms: C_14  and  C_21
REMARK                            x       y       z     vdW  Elec       q    Type
REMARK                         _______ _______ _______ _____ _____    ______ ____
ROOT
ATOM      1  N   UNL     1      -1.005   0.695   4.355  0.00  0.00    -0.301 N 
ATOM      2  C   UNL     1      -2.095   1.198   4.969  0.00  0.00    +0.300 C 
ATOM      3  O   UNL     1      -3.130   1.341   4.348  0.00  0.00    -0.253 OA
ATOM      4  N   UNL     1      -2.036   1.542   6.271  0.00  0.00    -0.289 N 
ATOM      5  H   UNL     1      -0.179   0.581   4.851  0.00  0.00    +0.150 HD
ATOM      6  H   UNL     1      -1.210   1.427   6.766  0.00  0.00    +0.151 HD
ENDROOT
BRANCH   1   7
ATOM      7  C   UNL     1      -1.068   0.322   2.940  0.00  0.00    +0.096 C 
BRANCH   7   8
ATOM      8  C   UNL     1       0.250  -0.335   2.527  0.00  0.00    -0.003 C 
BRANCH   8   9
ATOM      9  N   UNL     1       0.546  -1.452   3.434  0.00  0.00    +0.386 N 
ATOM     10  C   UNL     1       1.812  -2.083   3.011  0.00  0.00    -0.078 C 
ATOM     11  C   UNL     1       2.419  -2.774   4.206  0.00  0.00    -0.019 C 
ATOM     12  C   UNL     1       2.054  -4.270   4.236  0.00  0.00    -0.002 C 
ATOM     13  C   UNL     1       0.585  -4.510   3.834  0.00  0.00    -0.002 C 
ATOM     14  C   UNL     1      -0.348  -3.488   4.433  0.00  0.00    -0.019 C 
ATOM     15  C   UNL     1      -0.538  -2.331   3.430  0.00  0.00    -0.078 C 
ATOM     16  H   UNL     1       0.664  -1.087   4.367  0.00  0.00    -0.081 HD
ENDBRANCH   8   9
BRANCH   8  22
ATOM     17  C   UNL     1      -0.259   1.360  -0.019  0.00  0.00    +0.148 C 
ATOM     18  N   UNL     1      -0.091  -0.095   0.004  0.00  0.00    -0.355 N 
ATOM     19  C   UNL     1      -0.127  -0.916  -1.084  0.00  0.00    +0.085 A 
ATOM     20  C   UNL     1       0.067  -2.182  -0.663  0.00  0.00    +0.019 A 
ATOM     21  C   UNL     1       0.228  -2.142   0.736  0.00  0.00    +0.021 A 
ATOM     22  C   UNL     1       0.133  -0.851   1.116  0.00  0.00    +0.006 A 
ENDBRANCH   8  22
ENDBRANCH   7   8
ENDBRANCH   1   7
BRANCH   4  23
ATOM     23  C   UNL     1      -3.221   2.088   6.938  0.00  0.00    +0.135 C 
BRANCH  23  24
ATOM     24  C   UNL     1      -4.090   0.957   7.425  0.00  0.00    -0.023 A 
ATOM     25  C   UNL     1      -3.512  -0.167   7.985  0.00  0.00    +0.006 A 
ATOM     26  C   UNL     1      -4.309  -1.204   8.431  0.00  0.00    +0.000 A 
ATOM     27  C   UNL     1      -5.684  -1.118   8.317  0.00  0.00    +0.000 A 
ATOM     28  C   UNL     1      -6.262   0.006   7.758  0.00  0.00    +0.000 A 
ATOM     29  C   UNL     1      -5.465   1.046   7.315  0.00  0.00    +0.006 A 
ENDBRANCH  23  24
BRANCH  23  30
ATOM     30  C   UNL     1      -2.792   2.932   8.111  0.00  0.00    -0.023 A 
ATOM     31  C   UNL     1      -1.742   2.522   8.911  0.00  0.00    +0.006 A 
ATOM     32  C   UNL     1      -1.349   3.297   9.986  0.00  0.00    +0.000 A 
ATOM     33  C   UNL     1      -2.006   4.481  10.261  0.00  0.00    +0.000 A 
ATOM     34  C   UNL     1      -3.056   4.892   9.461  0.00  0.00    +0.000 A 
ATOM     35  C   UNL     1      -3.446   4.120   8.383  0.00  0.00    +0.006 A 
ENDBRANCH  23  30
ENDBRANCH   4  23
TORSDOF 7
