REMARK  Name = ZINC36648079
REMARK  8 active torsions:
REMARK  status: ('A' for Active; 'I' for Inactive)
REMARK    1  A    between atoms: C_1  and  N_2
REMARK    2  A    between atoms: N_2  and  C_3
REMARK    3  A    between atoms: N_2  and  C_4
REMARK    4  A    between atoms: C_4  and  C_5
REMARK    5  A    between atoms: C_5  and  N_6
REMARK    6  A    between atoms: C_18  and  C_20
REMARK    7  A    between atoms: N_26  and  S_27
REMARK    8  A    between atoms: S_27  and  C_30
REMARK                            x       y       z     vdW  Elec       q    Type
REMARK                         _______ _______ _______ _____ _____    ______ ____
ROOT
ATOM      1  N   UNL     1      -2.578  -2.206  -0.107  0.00  0.00    -0.251 N 
ATOM      2  C   UNL     1      -3.258  -2.159  -1.314  0.00  0.00    +0.168 A 
ATOM      3  N   UNL     1      -2.858  -1.675  -2.466  0.00  0.00    -0.221 NA
ATOM      4  C   UNL     1      -3.635  -1.696  -3.572  0.00  0.00    +0.116 A 
ATOM      5  C   UNL     1      -3.327  -1.210  -4.865  0.00  0.00    +0.152 A 
ATOM      6  C   UNL     1      -4.238  -1.309  -5.887  0.00  0.00    +0.079 A 
ATOM      7  C   UNL     1      -5.487  -1.885  -5.691  0.00  0.00    +0.127 A 
ATOM      8  C   UNL     1      -5.821  -2.369  -4.438  0.00  0.00    +0.055 A 
ATOM      9  C   UNL     1      -4.914  -2.274  -3.410  0.00  0.00    +0.046 A 
ATOM     10  S   UNL     1      -4.901  -2.749  -1.698  0.00  0.00    -0.052 S 
ATOM     11  F   UNL     1      -6.368  -1.970  -6.712  0.00  0.00    -0.205 F 
ATOM     12  F   UNL     1      -2.123  -0.642  -5.097  0.00  0.00    -0.203 F 
ATOM     13  C   UNL     1      -3.163  -2.756   0.975  0.00  0.00    +0.240 C 
ATOM     14  O   UNL     1      -4.249  -3.286   0.874  0.00  0.00    -0.273 OA
ENDROOT
BRANCH  13  15
ATOM     15  C   UNL     1      -2.467  -2.712   2.312  0.00  0.00    +0.166 C 
ATOM     16  C   UNL     1      -2.129  -4.136   2.762  0.00  0.00    +0.030 C 
ATOM     17  C   UNL     1      -1.550  -4.096   4.178  0.00  0.00    +0.003 C 
ATOM     18  C   UNL     1      -2.591  -3.519   5.140  0.00  0.00    +0.017 C 
ATOM     19  C   UNL     1      -2.935  -2.088   4.717  0.00  0.00    +0.110 C 
ATOM     20  N   UNL     1      -3.354  -2.096   3.308  0.00  0.00    -0.164 NA
BRANCH  20  21
ATOM     21  S   UNL     1      -4.799  -1.427   2.853  0.00  0.00    +0.068 S 
ATOM     22  O   UNL     1      -5.122  -0.451   3.834  0.00  0.00    -0.152 OA
ATOM     23  O   UNL     1      -4.684  -1.111   1.473  0.00  0.00    -0.152 OA
BRANCH  21  24
ATOM     24  C   UNL     1      -6.020  -2.691   2.980  0.00  0.00    +0.143 A 
ATOM     25  C   UNL     1      -6.801  -3.021   4.038  0.00  0.00    +0.036 A 
ATOM     26  C   UNL     1      -7.702  -4.061   3.908  0.00  0.00    +0.010 A 
ATOM     27  C   UNL     1      -7.778  -4.721   2.726  0.00  0.00    +0.047 A 
ATOM     28  S   UNL     1      -6.556  -3.865   1.746  0.00  0.00    -0.077 S 
ENDBRANCH  21  24
ENDBRANCH  20  21
ENDBRANCH  13  15
BRANCH   1  29
ATOM     29  C   UNL     1      -1.222  -1.659  -0.009  0.00  0.00    +0.097 C 
BRANCH  29  30
ATOM     30  C   UNL     1      -1.298  -0.164   0.309  0.00  0.00    -0.060 C 
BRANCH  30  32
ATOM     31  C   UNL     1      -0.011   1.841   0.594  0.00  0.00    -0.097 C 
ATOM     32  N   UNL     1       0.061   0.385   0.408  0.00  0.00    +0.377 N 
ATOM     33  C   UNL     1       0.752  -0.221   1.553  0.00  0.00    -0.097 C 
ATOM     34  H   UNL     1       0.569   0.179  -0.439  0.00  0.00    -0.083 HD
ENDBRANCH  30  32
ENDBRANCH  29  30
ENDBRANCH   1  29
TORSDOF 6
