REMARK  Name = ZINC39686425
REMARK  10 active torsions:
REMARK  status: ('A' for Active; 'I' for Inactive)
REMARK    1  A    between atoms: C_1  and  C_2
REMARK    2  A    between atoms: C_2  and  C_4
REMARK    3  A    between atoms: C_2  and  N_13
REMARK    4  A    between atoms: C_4  and  C_5
REMARK    5  A    between atoms: C_10  and  O_11
REMARK    6  A    between atoms: O_11  and  C_12
REMARK    7  A    between atoms: C_14  and  C_16
REMARK    8  A    between atoms: C_27  and  C_29
REMARK    9  A    between atoms: C_29  and  C_30
REMARK   10  A    between atoms: C_30  and  C_31
REMARK                            x       y       z     vdW  Elec       q    Type
REMARK                         _______ _______ _______ _____ _____    ______ ____
ROOT
ATOM      1  C   UNL     1       2.551  -1.008   2.646  0.00  0.00    +0.100 C 
ATOM      2  C   UNL     1       2.261  -2.511   2.861  0.00  0.00    +0.121 C 
ATOM      3  N   UNL     1       3.452  -3.204   2.315  0.00  0.00    -0.300 N 
ATOM      4  C   UNL     1       4.594  -2.354   2.729  0.00  0.00    +0.115 C 
ATOM      5  C   UNL     1       4.083  -0.909   2.563  0.00  0.00    -0.004 C 
ATOM      6  C   UNL     1       4.617  -0.028   3.688  0.00  0.00    -0.010 C 
ATOM      7  C   UNL     1       6.137   0.103   3.551  0.00  0.00    -0.082 C 
ATOM      8  N   UNL     1       6.463   0.689   2.245  0.00  0.00    +0.379 N 
ATOM      9  C   UNL     1       6.029  -0.210   1.170  0.00  0.00    -0.082 C 
ATOM     10  C   UNL     1       4.505  -0.354   1.206  0.00  0.00    -0.010 C 
ATOM     11  C   UNL     1       3.488  -4.348   1.603  0.00  0.00    +0.216 C 
ATOM     12  O   UNL     1       4.554  -4.841   1.302  0.00  0.00    -0.276 OA
ATOM     13  H   UNL     1       5.994   1.577   2.150  0.00  0.00    -0.086 HD
ATOM     14  H   UNL     1       7.460   0.831   2.182  0.00  0.00    -0.086 HD
ENDROOT
BRANCH   1  16
ATOM     15  N   UNL     1       1.579   0.763   1.219  0.00  0.00    -0.312 N 
ATOM     16  C   UNL     1       1.924  -0.532   1.360  0.00  0.00    +0.218 C 
ATOM     17  O   UNL     1       1.732  -1.314   0.454  0.00  0.00    -0.275 OA
ATOM     18  H   UNL     1       1.668   1.374   1.967  0.00  0.00    +0.149 HD
BRANCH  15  20
ATOM     19  C   UNL     1       2.232   1.751  -0.921  0.00  0.00    +0.028 C 
ATOM     20  C   UNL     1       1.067   1.248  -0.065  0.00  0.00    +0.074 C 
BRANCH  20  21
ATOM     21  C   UNL     1       0.082   2.393   0.178  0.00  0.00    +0.060 C 
BRANCH  21  22
ATOM     22  C   UNL     1      -1.133   1.866   0.897  0.00  0.00    -0.004 A 
ATOM     23  C   UNL     1      -2.232   1.439   0.177  0.00  0.00    +0.007 A 
ATOM     24  C   UNL     1      -3.347   0.956   0.836  0.00  0.00    +0.000 A 
ATOM     25  C   UNL     1      -3.365   0.898   2.218  0.00  0.00    +0.004 A 
ATOM     26  C   UNL     1      -2.268   1.323   2.942  0.00  0.00    +0.046 A 
ATOM     27  C   UNL     1      -1.146   1.803   2.283  0.00  0.00    +0.123 A 
BRANCH  27  28
ATOM     28  O   UNL     1      -0.064   2.217   2.993  0.00  0.00    -0.495 OA
ATOM     29  C   UNL     1      -0.148   2.124   4.417  0.00  0.00    +0.277 C 
ENDBRANCH  27  28
ENDBRANCH  21  22
ENDBRANCH  20  21
ENDBRANCH  15  20
ENDBRANCH   1  16
BRANCH  11  30
ATOM     30  C   UNL     1       2.203  -5.013   1.182  0.00  0.00    +0.100 C 
BRANCH  30  31
ATOM     31  C   UNL     1       2.519  -6.351   0.509  0.00  0.00    +0.044 C 
BRANCH  31  32
ATOM     32  C   UNL     1       1.244  -6.968  -0.005  0.00  0.00    -0.047 A 
ATOM     33  C   UNL     1       0.457  -7.732   0.837  0.00  0.00    +0.003 A 
ATOM     34  C   UNL     1      -0.712  -8.298   0.366  0.00  0.00    +0.000 A 
ATOM     35  C   UNL     1      -1.096  -8.100  -0.948  0.00  0.00    +0.000 A 
ATOM     36  C   UNL     1      -0.309  -7.336  -1.790  0.00  0.00    +0.000 A 
ATOM     37  C   UNL     1       0.858  -6.766  -1.317  0.00  0.00    +0.003 A 
ENDBRANCH  31  32
ENDBRANCH  30  31
ENDBRANCH  11  30
TORSDOF 8
