REMARK  Name = ZINC39987192
REMARK  6 active torsions:
REMARK  status: ('A' for Active; 'I' for Inactive)
REMARK    1  A    between atoms: C_1  and  C_2
REMARK    2  A    between atoms: C_2  and  O_3
REMARK    3  A    between atoms: O_3  and  C_4
REMARK    4  A    between atoms: C_10  and  C_15
REMARK    5  A    between atoms: N_16  and  N_17
REMARK    6  A    between atoms: C_26  and  C_28
REMARK                            x       y       z     vdW  Elec       q    Type
REMARK                         _______ _______ _______ _____ _____    ______ ____
ROOT
ATOM      1  N   UNL     1      -0.710  -8.530   4.867  0.00  0.00    -0.205 N 
ATOM      2  C   UNL     1      -1.014  -9.834   5.216  0.00  0.00    +0.236 A 
ATOM      3  N   UNL     1      -1.209 -10.717   4.254  0.00  0.00    -0.213 NA
ATOM      4  C   UNL     1      -1.505 -11.989   4.550  0.00  0.00    +0.077 A 
ATOM      5  C   UNL     1      -1.717 -12.952   3.553  0.00  0.00    +0.030 A 
ATOM      6  C   UNL     1      -2.015 -14.234   3.908  0.00  0.00    +0.022 A 
ATOM      7  C   UNL     1      -2.113 -14.604   5.248  0.00  0.00    +0.042 A 
ATOM      8  C   UNL     1      -1.913 -13.691   6.243  0.00  0.00    +0.032 A 
ATOM      9  C   UNL     1      -1.604 -12.367   5.913  0.00  0.00    +0.028 A 
ATOM     10  C   UNL     1      -1.384 -11.377   6.903  0.00  0.00    +0.084 A 
ATOM     11  N   UNL     1      -1.091 -10.146   6.506  0.00  0.00    -0.213 NA
ATOM     12 CL   UNL     1      -2.495 -16.247   5.657  0.00  0.00    -0.084 Cl
ATOM     13  H   UNL     1      -0.558  -7.865   5.557  0.00  0.00    +0.177 HD
ENDROOT
BRANCH  10  14
ATOM     14  C   UNL     1      -1.474 -11.710   8.342  0.00  0.00    +0.001 A 
ATOM     15  C   UNL     1      -0.878 -12.872   8.831  0.00  0.00    +0.010 A 
ATOM     16  C   UNL     1      -0.965 -13.176  10.174  0.00  0.00    +0.001 A 
ATOM     17  C   UNL     1      -1.642 -12.331  11.036  0.00  0.00    +0.000 A 
ATOM     18  C   UNL     1      -2.235 -11.177  10.557  0.00  0.00    +0.001 A 
ATOM     19  C   UNL     1      -2.150 -10.858   9.217  0.00  0.00    +0.010 A 
ENDBRANCH  10  14
BRANCH   1  21
ATOM     20  C   UNL     1      -0.339  -6.962   3.193  0.00  0.00    +0.120 C 
ATOM     21  N   UNL     1      -0.620  -8.168   3.516  0.00  0.00    -0.191 NA
BRANCH  20  27
ATOM     22  C   UNL     1      -0.243  -1.862   0.082  0.00  0.00    +0.119 C 
ATOM     23  C   UNL     1       0.699  -2.804   0.027  0.00  0.00    +0.045 C 
ATOM     24  C   UNL     1       0.342  -4.268   0.006  0.00  0.00    +0.130 C 
ATOM     25  C   UNL     1      -0.993  -4.467   0.668  0.00  0.00    -0.026 C 
ATOM     26  C   UNL     1      -1.252  -5.505   1.448  0.00  0.00    -0.003 C 
ATOM     27  C   UNL     1      -0.243  -6.574   1.740  0.00  0.00    +0.140 C 
ATOM     28  C   UNL     1       1.146  -6.089   1.451  0.00  0.00    +0.226 C 
ATOM     29  O   UNL     1       2.085  -6.674   1.948  0.00  0.00    -0.275 OA
ATOM     30  N   UNL     1       1.380  -5.034   0.680  0.00  0.00    -0.304 N 
ATOM     31  C   UNL     1      -2.047  -3.466   0.423  0.00  0.00    +0.009 C 
ATOM     32  C   UNL     1      -1.668  -2.202   0.138  0.00  0.00    +0.046 C 
ATOM     33  H   UNL     1       2.304  -4.767   0.552  0.00  0.00    +0.150 HD
BRANCH  22  34
ATOM     34  O   UNL     1       0.127  -0.554   0.091  0.00  0.00    -0.492 OA
BRANCH  34  36
ATOM     35  C   UNL     1       1.748   1.238   0.054  0.00  0.00    +0.048 C 
ATOM     36  C   UNL     1       1.528  -0.276   0.034  0.00  0.00    +0.225 C 
ENDBRANCH  34  36
ENDBRANCH  22  34
ENDBRANCH  20  27
ENDBRANCH   1  21
TORSDOF 5
