REMARK  Name = ZINC05981747
REMARK  5 active torsions:
REMARK  status: ('A' for Active; 'I' for Inactive)
REMARK    1  A    between atoms: C_1  and  C_2
REMARK    2  A    between atoms: C_6  and  C_8
REMARK    3  A    between atoms: N_14  and  N_15
REMARK    4  A    between atoms: C_16  and  C_17
REMARK    5  A    between atoms: C_22  and  N_23
REMARK                            x       y       z     vdW  Elec       q    Type
REMARK                         _______ _______ _______ _____ _____    ______ ____
ROOT
ATOM      1  C   UNL     1      -2.340   1.080   0.003  0.00  0.00    +0.184 A 
ATOM      2  N   UNL     1      -2.458  -0.217   0.295  0.00  0.00    -0.152 NA
ATOM      3  N   UNL     1      -3.699  -0.553   0.246  0.00  0.00    -0.253 N 
ATOM      4  H   UNL     1      -4.050  -1.441   0.418  0.00  0.00    +0.191 HD
ATOM      5  C   UNL     1      -4.433   0.528  -0.082  0.00  0.00    +0.197 A 
ATOM      6  S   UNL     1      -6.134   0.582  -0.269  0.00  0.00    -0.010 S 
ATOM      7  N   UNL     1      -3.578   1.563  -0.231  0.00  0.00    -0.188 N 
ENDROOT
BRANCH   1  13
ATOM      8  C   UNL     1       2.643   1.193  -0.195  0.00  0.00    +0.044 C 
ATOM      9  C   UNL     1       1.317   1.907  -0.144  0.00  0.00    -0.050 A 
ATOM     10  C   UNL     1       1.277   3.292  -0.152  0.00  0.00    +0.003 A 
ATOM     11  C   UNL     1       0.064   3.959  -0.105  0.00  0.00    +0.001 A 
ATOM     12  C   UNL     1      -1.115   3.248  -0.051  0.00  0.00    +0.011 A 
ATOM     13  C   UNL     1      -1.085   1.848  -0.048  0.00  0.00    +0.021 A 
ATOM     14  C   UNL     1       0.147   1.181  -0.090  0.00  0.00    +0.015 A 
ENDBRANCH   1  13
BRANCH   7  15
ATOM     15  N   UNL     1      -3.912   2.882  -0.566  0.00  0.00    -0.170 NA
ATOM     16  C   UNL     1      -3.958   3.247  -1.825  0.00  0.00    +0.143 C 
BRANCH  16  17
ATOM     17  C   UNL     1      -4.308   4.627  -2.176  0.00  0.00    +0.025 A 
ATOM     18  C   UNL     1      -4.713   5.528  -1.179  0.00  0.00    +0.012 A 
ATOM     19  C   UNL     1      -5.034   6.824  -1.517  0.00  0.00    +0.001 A 
ATOM     20  C   UNL     1      -4.969   7.236  -2.839  0.00  0.00    +0.002 A 
ATOM     21  C   UNL     1      -4.575   6.352  -3.830  0.00  0.00    +0.033 A 
ATOM     22  C   UNL     1      -4.244   5.054  -3.510  0.00  0.00    +0.135 A 
BRANCH  22  23
ATOM     23  N   UNL     1      -3.823   4.112  -4.572  0.00  0.00    +0.057 N 
ATOM     24  O   UNL     1      -3.639   4.545  -5.802  0.00  0.00    -0.126 OA
ATOM     25  O   UNL     1      -3.633   2.840  -4.287  0.00  0.00    -0.126 OA
ENDBRANCH  22  23
ENDBRANCH  16  17
ENDBRANCH   7  15
TORSDOF 4
