REMARK  Name = ZINC09183267
REMARK  9 active torsions:
REMARK  status: ('A' for Active; 'I' for Inactive)
REMARK    1  A    between atoms: C_1  and  C_2
REMARK    2  A    between atoms: C_5  and  C_37
REMARK    3  A    between atoms: N_8  and  S_10
REMARK    4  A    between atoms: S_10  and  C_13
REMARK    5  A    between atoms: C_16  and  C_19
REMARK    6  A    between atoms: C_19  and  O_21
REMARK    7  A    between atoms: O_21  and  C_22
REMARK    8  A    between atoms: C_22  and  C_24
REMARK    9  A    between atoms: C_22  and  C_25
REMARK                            x       y       z     vdW  Elec       q    Type
REMARK                         _______ _______ _______ _____ _____    ______ ____
ROOT
ATOM      1  C   UNL     1      -1.253   1.526   4.835  0.00  0.00    +0.106 A 
ATOM      2  C   UNL     1      -0.452   1.981   5.867  0.00  0.00    +0.029 A 
ATOM      3  C   UNL     1      -0.939   2.909   6.765  0.00  0.00    +0.017 A 
ATOM      4  C   UNL     1      -2.247   3.379   6.637  0.00  0.00    +0.059 A 
ATOM      5  C   UNL     1      -3.052   2.912   5.596  0.00  0.00    +0.017 A 
ATOM      6  C   UNL     1      -2.551   1.989   4.702  0.00  0.00    +0.029 A 
ENDROOT
BRANCH   1   7
ATOM      7  S   UNL     1      -0.621   0.347   3.688  0.00  0.00    +0.061 S 
ATOM      8  O   UNL     1      -1.744  -0.332   3.144  0.00  0.00    -0.153 OA
ATOM      9  O   UNL     1       0.435  -0.336   4.349  0.00  0.00    -0.153 OA
BRANCH   7  15
ATOM     10  C   UNL     1       3.619   1.586   1.189  0.00  0.00    +0.009 C 
ATOM     11  C   UNL     1       2.175   1.082   1.218  0.00  0.00    +0.002 C 
ATOM     12  C   UNL     1       1.423   1.616  -0.003  0.00  0.00    +0.009 C 
ATOM     13  C   UNL     1      -0.013   1.086   0.008  0.00  0.00    +0.002 C 
ATOM     14  C   UNL     1      -0.726   1.581   1.270  0.00  0.00    +0.112 C 
ATOM     15  N   UNL     1       0.069   1.195   2.444  0.00  0.00    -0.176 NA
ATOM     16  C   UNL     1       1.486   1.577   2.494  0.00  0.00    +0.112 C 
ATOM     17  C   UNL     1      -0.754   1.593  -1.230  0.00  0.00    +0.009 C 
ENDBRANCH   7  15
ENDBRANCH   1   7
BRANCH   4  18
ATOM     18  C   UNL     1      -2.778   4.367   7.599  0.00  0.00    +0.340 C 
ATOM     19  O   UNL     1      -3.917   4.775   7.485  0.00  0.00    -0.245 OA
BRANCH  18  20
ATOM     20  O   UNL     1      -1.999   4.816   8.602  0.00  0.00    -0.450 OA
BRANCH  20  21
ATOM     21  C   UNL     1      -2.586   5.786   9.509  0.00  0.00    +0.239 C 
ATOM     22  C   UNL     1      -3.260   5.054  10.671  0.00  0.00    +0.060 C 
BRANCH  21  23
ATOM     23  C   UNL     1      -1.506   6.691  10.044  0.00  0.00    +0.151 A 
ATOM     24  N   UNL     1      -1.003   7.649   9.223  0.00  0.00    -0.307 N 
ATOM     25  H   UNL     1      -1.342   7.733   8.318  0.00  0.00    +0.170 HD
ATOM     26  C   UNL     1      -0.033   8.488   9.655  0.00  0.00    +0.259 A 
ATOM     27  O   UNL     1       0.427   9.351   8.930  0.00  0.00    -0.267 OA
ATOM     28  C   UNL     1       0.444   8.316  11.036  0.00  0.00    +0.065 A 
ATOM     29  C   UNL     1       1.438   9.128  11.579  0.00  0.00    +0.015 A 
ATOM     30  C   UNL     1       1.847   8.923  12.878  0.00  0.00    +0.001 A 
ATOM     31  C   UNL     1       1.277   7.918  13.648  0.00  0.00    +0.002 A 
ATOM     32  C   UNL     1       0.293   7.105  13.131  0.00  0.00    +0.028 A 
ATOM     33  C   UNL     1      -0.138   7.293  11.816  0.00  0.00    +0.078 A 
ATOM     34  N   UNL     1      -1.109   6.519  11.268  0.00  0.00    -0.230 NA
ENDBRANCH  21  23
ENDBRANCH  20  21
ENDBRANCH  18  20
ENDBRANCH   4  18
TORSDOF 6
