REMARK  Name = ZINC38975735
REMARK  7 active torsions:
REMARK  status: ('A' for Active; 'I' for Inactive)
REMARK    1  A    between atoms: C_1  and  C_2
REMARK    2  A    between atoms: C_2  and  O_3
REMARK    3  A    between atoms: O_3  and  C_4
REMARK    4  A    between atoms: C_7  and  N_10
REMARK    5  A    between atoms: N_10  and  C_11
REMARK    6  A    between atoms: N_14  and  S_15
REMARK    7  A    between atoms: S_15  and  C_18
REMARK                            x       y       z     vdW  Elec       q    Type
REMARK                         _______ _______ _______ _____ _____    ______ ____
ROOT
ATOM      1  C   UNL     1       1.919  -6.512   2.860  0.00  0.00    +0.237 C 
ATOM      2  C   UNL     1       2.934  -7.466   2.272  0.00  0.00    +0.192 C 
ATOM      3  N   UNL     1       3.793  -7.052   1.387  0.00  0.00    -0.110 NA
ATOM      4  N   UNL     1       2.937  -8.746   2.677  0.00  0.00    -0.226 NA
ATOM      5  C   UNL     1       2.078  -9.188   3.572  0.00  0.00    +0.089 A 
ATOM      6  C   UNL     1       2.110 -10.547   3.977  0.00  0.00    +0.030 A 
ATOM      7  C   UNL     1       1.231 -11.007   4.894  0.00  0.00    +0.002 A 
ATOM      8  C   UNL     1       0.256 -10.189   5.488  0.00  0.00    +0.002 A 
ATOM      9  C   UNL     1       0.138  -8.880   5.174  0.00  0.00    +0.027 A 
ATOM     10  C   UNL     1       1.058  -8.301   4.184  0.00  0.00    +0.063 A 
ATOM     11  N   UNL     1       0.975  -7.043   3.856  0.00  0.00    -0.359 N 
ATOM     12  H   UNL     1       0.306  -6.469   4.260  0.00  0.00    +0.162 HD
ENDROOT
BRANCH   3  13
ATOM     13  S   UNL     1       4.900  -8.107   0.752  0.00  0.00    +0.100 S 
ATOM     14  O   UNL     1       5.763  -8.481   1.817  0.00  0.00    -0.146 OA
ATOM     15  O   UNL     1       4.166  -9.060  -0.004  0.00  0.00    -0.146 OA
BRANCH  13  16
ATOM     16  C   UNL     1       5.882  -7.202  -0.397  0.00  0.00    +0.113 A 
ATOM     17  C   UNL     1       5.496  -7.120  -1.722  0.00  0.00    +0.032 A 
ATOM     18  C   UNL     1       6.265  -6.410  -2.624  0.00  0.00    +0.040 A 
ATOM     19  C   UNL     1       7.423  -5.780  -2.201  0.00  0.00    +0.124 A 
ATOM     20  C   UNL     1       7.809  -5.862  -0.874  0.00  0.00    +0.040 A 
ATOM     21  C   UNL     1       7.035  -6.568   0.028  0.00  0.00    +0.032 A 
ATOM     22  F   UNL     1       8.176  -5.085  -3.082  0.00  0.00    -0.205 F 
ENDBRANCH  13  16
ENDBRANCH   3  13
BRANCH   1  23
ATOM     23  N   UNL     1       1.135  -5.956   1.754  0.00  0.00    -0.318 N 
ATOM     24  H   UNL     1       0.724  -6.548   1.105  0.00  0.00    +0.148 HD
BRANCH  23  28
ATOM     25  C   UNL     1       0.676  -1.829   1.393  0.00  0.00    +0.121 A 
ATOM     26  C   UNL     1       1.272  -2.364   2.526  0.00  0.00    +0.047 A 
ATOM     27  C   UNL     1       1.424  -3.731   2.646  0.00  0.00    +0.026 A 
ATOM     28  C   UNL     1       0.981  -4.570   1.633  0.00  0.00    +0.029 A 
ATOM     29  C   UNL     1       0.385  -4.034   0.499  0.00  0.00    +0.026 A 
ATOM     30  C   UNL     1       0.228  -2.667   0.383  0.00  0.00    +0.047 A 
BRANCH  25  31
ATOM     31  O   UNL     1       0.526  -0.482   1.276  0.00  0.00    -0.492 OA
BRANCH  31  33
ATOM     32  C   UNL     1       0.756   1.798   2.044  0.00  0.00    +0.048 C 
ATOM     33  C   UNL     1       1.011   0.321   2.354  0.00  0.00    +0.225 C 
ENDBRANCH  31  33
ENDBRANCH  25  31
ENDBRANCH  23  28
ENDBRANCH   1  23
TORSDOF 6
