REMARK  Name = ZINC12278921
REMARK  13 active torsions:
REMARK  status: ('A' for Active; 'I' for Inactive)
REMARK    1  A    between atoms: C_1  and  C_2
REMARK    2  A    between atoms: C_2  and  C_3
REMARK    3  A    between atoms: N_5  and  C_6
REMARK    4  A    between atoms: C_15  and  O_17
REMARK    5  A    between atoms: O_17  and  C_18
REMARK    6  A    between atoms: C_18  and  C_19
REMARK    7  A    between atoms: C_19  and  O_20
REMARK    8  A    between atoms: O_20  and  C_21
REMARK    9  A    between atoms: C_26  and  C_27
REMARK   10  A    between atoms: C_26  and  N_73
REMARK   11  A    between atoms: C_28  and  C_29
REMARK   12  A    between atoms: C_32  and  O_35
REMARK   13  A    between atoms: O_35  and  C_36
REMARK                            x       y       z     vdW  Elec       q    Type
REMARK                         _______ _______ _______ _____ _____    ______ ____
ROOT
ATOM      1  C   UNL     1       0.500  -6.431   2.009  0.00  0.00    +0.133 C 
ATOM      2  C   UNL     1       0.927  -6.326   3.458  0.00  0.00    -0.021 A 
ATOM      3  C   UNL     1       0.896  -7.267   4.473  0.00  0.00    +0.006 A 
ATOM      4  C   UNL     1       1.345  -6.942   5.738  0.00  0.00    +0.000 A 
ATOM      5  C   UNL     1       1.827  -5.671   5.992  0.00  0.00    +0.000 A 
ATOM      6  C   UNL     1       1.859  -4.731   4.982  0.00  0.00    +0.004 A 
ATOM      7  C   UNL     1       1.411  -5.055   3.712  0.00  0.00    -0.034 A 
ATOM      8  C   UNL     1       1.341  -4.226   2.452  0.00  0.00    +0.021 C 
ATOM      9  C   UNL     1       1.171  -5.234   1.301  0.00  0.00    +0.153 C 
ATOM     10  C   UNL     1       2.631  -3.433   2.266  0.00  0.00    -0.005 C 
ATOM     11  C   UNL     1       2.522  -2.578   1.000  0.00  0.00    -0.077 C 
ATOM     12  C   UNL     1       0.113  -2.433   1.228  0.00  0.00    -0.077 C 
ATOM     13  C   UNL     1       0.142  -3.283   2.501  0.00  0.00    -0.005 C 
ATOM     14  N   UNL     1       1.371  -1.661   1.139  0.00  0.00    +0.382 N 
ATOM     15  H   UNL     1       1.485  -1.112   1.999  0.00  0.00    -0.081 HD
ENDROOT
BRANCH   1  18
ATOM     16  C   UNL     1      -1.715  -7.446   1.976  0.00  0.00    +0.213 C 
ATOM     17  O   UNL     1      -1.189  -8.528   2.133  0.00  0.00    -0.276 OA
ATOM     18  N   UNL     1      -0.957  -6.334   1.901  0.00  0.00    -0.306 N 
ATOM     19  H   UNL     1      -1.378  -5.469   1.775  0.00  0.00    +0.149 HD
BRANCH  16  21
ATOM     20  C   UNL     1      -3.829  -8.742   1.981  0.00  0.00    +0.013 C 
ATOM     21  C   UNL     1      -3.214  -7.346   1.864  0.00  0.00    +0.092 C 
ENDBRANCH  16  21
ENDBRANCH   1  18
BRANCH   9  22
ATOM     22  O   UNL     1       2.441  -5.605   0.759  0.00  0.00    -0.371 OA
BRANCH  22  23
ATOM     23  C   UNL     1       2.404  -5.943  -0.629  0.00  0.00    +0.188 C 
BRANCH  23  24
ATOM     24  C   UNL     1       3.809  -6.322  -1.099  0.00  0.00    +0.187 C 
BRANCH  24  25
ATOM     25  O   UNL     1       4.231  -7.512  -0.431  0.00  0.00    -0.381 OA
ATOM     26  C   UNL     1       5.538  -7.955  -0.801  0.00  0.00    +0.194 C 
ENDBRANCH  24  25
ENDBRANCH  23  24
ENDBRANCH  22  23
ENDBRANCH   9  22
BRANCH  14  27
ATOM     27  C   UNL     1       1.317  -0.740  -0.015  0.00  0.00    -0.051 C 
BRANCH  27  28
ATOM     28  C   UNL     1       0.002  -0.004   0.002  0.00  0.00    -0.045 C 
ATOM     29  C   UNL     1      -0.016   1.322   0.009  0.00  0.00    +0.002 C 
BRANCH  29  30
ATOM     30  C   UNL     1      -1.306   2.043   0.019  0.00  0.00    -0.025 A 
ATOM     31  C   UNL     1      -2.506   1.331   0.015  0.00  0.00    +0.011 A 
ATOM     32  C   UNL     1      -3.707   2.007   0.030  0.00  0.00    +0.046 A 
ATOM     33  C   UNL     1      -3.724   3.396   0.038  0.00  0.00    +0.120 A 
ATOM     34  C   UNL     1      -2.532   4.108   0.036  0.00  0.00    +0.046 A 
ATOM     35  C   UNL     1      -1.327   3.439   0.027  0.00  0.00    +0.011 A 
BRANCH  33  36
ATOM     36  O   UNL     1      -4.909   4.059   0.047  0.00  0.00    -0.495 OA
ATOM     37  C   UNL     1      -6.097   3.264   0.048  0.00  0.00    +0.277 C 
ENDBRANCH  33  36
ENDBRANCH  29  30
ENDBRANCH  27  28
ENDBRANCH  14  27
TORSDOF 10
