REMARK  Name = ZINC03770884
REMARK  4 active torsions:
REMARK  status: ('A' for Active; 'I' for Inactive)
REMARK    1  A    between atoms: C_1  and  C_2
REMARK    2  A    between atoms: C_1  and  S_4
REMARK    3  A    between atoms: S_4  and  C_5
REMARK    4  A    between atoms: C_6  and  C_10
REMARK                            x       y       z     vdW  Elec       q    Type
REMARK                         _______ _______ _______ _____ _____    ______ ____
ROOT
ATOM      1  C   UNL     1       2.455   3.750  -0.001  0.00  0.00    +0.100 A 
ATOM      2  C   UNL     1       1.239   3.056   0.007  0.00  0.00    +0.196 A 
ATOM      3  N   UNL     1       0.142   3.800   0.015  0.00  0.00    -0.133 NA
ATOM      4  N   UNL     1       0.217   5.087   0.026  0.00  0.00    -0.109 NA
ATOM      5  S   UNL     1       1.900   5.394   0.012  0.00  0.00    +0.044 S 
ENDROOT
BRANCH   2   6
ATOM      6  C   UNL     1       1.182   1.591  -0.001  0.00  0.00    +0.408 C 
ATOM      7  O   UNL     1       2.211   0.943  -0.014  0.00  0.00    -0.239 OA
ATOM      8  O   UNL     1      -0.011   0.963   0.007  0.00  0.00    -0.239 OA
ENDBRANCH   2   6
BRANCH   1   9
ATOM      9  S   UNL     1       4.103   3.124  -0.019  0.00  0.00    -0.103 S 
BRANCH   9  10
ATOM     10  C   UNL     1       5.029   4.679  -0.020  0.00  0.00    +0.200 C 
BRANCH  10  11
ATOM     11  C   UNL     1       6.507   4.383  -0.035  0.00  0.00    +0.366 C 
ATOM     12  O   UNL     1       6.894   3.238  -0.044  0.00  0.00    -0.245 OA
ATOM     13  O   UNL     1       7.393   5.391  -0.039  0.00  0.00    -0.245 OA
ENDBRANCH  10  11
ENDBRANCH   9  10
ENDBRANCH   1   9
TORSDOF 4
