REMARK  Name = ZINC27432698
REMARK  9 active torsions:
REMARK  status: ('A' for Active; 'I' for Inactive)
REMARK    1  A    between atoms: C_3  and  C_19
REMARK    2  A    between atoms: C_6  and  C_7
REMARK    3  A    between atoms: N_8  and  N_9
REMARK    4  A    between atoms: C_10  and  C_12
REMARK    5  A    between atoms: C_15  and  N_18
REMARK    6  A    between atoms: C_23  and  C_28
REMARK    7  A    between atoms: N_29  and  N_30
REMARK    8  A    between atoms: C_31  and  C_33
REMARK    9  A    between atoms: C_36  and  N_39
REMARK                            x       y       z     vdW  Elec       q    Type
REMARK                         _______ _______ _______ _____ _____    ______ ____
ROOT
ATOM      1  C   UNL     1       3.674 -10.575  -0.085  0.00  0.00    +0.090 A 
ATOM      2  C   UNL     1       2.582 -11.391  -0.078  0.00  0.00    +0.121 A 
ATOM      3  N   UNL     1       3.044 -12.678  -0.090  0.00  0.00    -0.305 N 
ATOM      4  C   UNL     1       2.402 -13.880  -0.089  0.00  0.00    +0.102 A 
ATOM      5  C   UNL     1       3.114 -15.045  -0.104  0.00  0.00    +0.011 A 
ATOM      6  C   UNL     1       4.531 -15.008  -0.118  0.00  0.00    +0.014 A 
ATOM      7  C   UNL     1       5.170 -13.811  -0.118  0.00  0.00    +0.047 A 
ATOM      8  C   UNL     1       4.414 -12.618  -0.104  0.00  0.00    +0.138 A 
ATOM      9  N   UNL     1       4.775 -11.344  -0.106  0.00  0.00    -0.228 NA
ENDROOT
BRANCH   1  12
ATOM     10  C   UNL     1       2.407  -7.039  -0.051  0.00  0.00    +0.010 A 
ATOM     11  C   UNL     1       2.430  -8.415  -0.062  0.00  0.00    +0.011 A 
ATOM     12  C   UNL     1       3.650  -9.092  -0.078  0.00  0.00    +0.002 A 
ATOM     13  C   UNL     1       4.848  -8.376  -0.087  0.00  0.00    +0.011 A 
ATOM     14  C   UNL     1       4.827  -7.000  -0.080  0.00  0.00    +0.010 A 
ATOM     15  C   UNL     1       3.606  -6.319  -0.065  0.00  0.00    -0.005 A 
BRANCH  15  16
ATOM     16  C   UNL     1       3.582  -4.846  -0.057  0.00  0.00    +0.138 C 
ATOM     17  N   UNL     1       2.447  -4.215  -0.043  0.00  0.00    -0.187 NA
BRANCH  17  18
ATOM     18  N   UNL     1       2.425  -2.814  -0.036  0.00  0.00    -0.203 N 
ATOM     19  C   UNL     1       1.247  -2.160  -0.021  0.00  0.00    +0.263 C 
ATOM     20  O   UNL     1       0.203  -2.785  -0.014  0.00  0.00    -0.268 OA
ATOM     21  H   UNL     1       3.368  -2.249  -0.042  0.00  0.00    +0.178 HD
BRANCH  19  22
ATOM     22  C   UNL     1       1.223  -0.685  -0.013  0.00  0.00    +0.038 A 
ATOM     23  C   UNL     1       0.002  -0.004   0.002  0.00  0.00    +0.015 A 
ATOM     24  C   UNL     1      -0.017   1.372   0.010  0.00  0.00    +0.023 A 
ATOM     25  C   UNL     1       1.179   2.086   0.002  0.00  0.00    +0.025 A 
ATOM     26  C   UNL     1       2.396   1.411  -0.013  0.00  0.00    +0.023 A 
ATOM     27  C   UNL     1       2.422   0.035  -0.021  0.00  0.00    +0.015 A 
BRANCH  25  28
ATOM     28  N   UNL     1       1.156   3.476   0.009  0.00  0.00    -0.358 N 
ATOM     29  H   UNL     1       2.100   4.041   0.003  0.00  0.00    +0.142 HD
ATOM     30  H   UNL     1       0.195   4.011   0.021  0.00  0.00    +0.142 HD
ENDBRANCH  25  28
ENDBRANCH  19  22
ENDBRANCH  17  18
ENDBRANCH  15  16
ENDBRANCH   1  12
BRANCH   5  31
ATOM     31  C   UNL     1       2.410 -16.340  -0.104  0.00  0.00    +0.139 C 
ATOM     32  N   UNL     1       3.087 -17.447  -0.117  0.00  0.00    -0.187 NA
BRANCH  32  33
ATOM     33  N   UNL     1       2.418 -18.678  -0.117  0.00  0.00    -0.203 N 
ATOM     34  C   UNL     1       3.122 -19.828  -0.130  0.00  0.00    +0.263 C 
ATOM     35  O   UNL     1       4.338 -19.796  -0.142  0.00  0.00    -0.268 OA
ATOM     36  H   UNL     1       1.319 -18.706  -0.105  0.00  0.00    +0.178 HD
BRANCH  34  37
ATOM     37  C   UNL     1       2.417 -21.123  -0.130  0.00  0.00    +0.038 A 
ATOM     38  C   UNL     1       1.020 -21.161  -0.110  0.00  0.00    +0.015 A 
ATOM     39  C   UNL     1       0.366 -22.371  -0.116  0.00  0.00    +0.023 A 
ATOM     40  C   UNL     1       1.094 -23.558  -0.130  0.00  0.00    +0.025 A 
ATOM     41  C   UNL     1       2.486 -23.524  -0.144  0.00  0.00    +0.023 A 
ATOM     42  C   UNL     1       3.146 -22.317  -0.144  0.00  0.00    +0.015 A 
BRANCH  40  43
ATOM     43  N   UNL     1       0.430 -24.780  -0.130  0.00  0.00    -0.358 N 
ATOM     44  H   UNL     1       1.004 -25.718  -0.140  0.00  0.00    +0.142 HD
ATOM     45  H   UNL     1      -0.670 -24.808  -0.119  0.00  0.00    +0.142 HD
ENDBRANCH  40  43
ENDBRANCH  34  37
ENDBRANCH  32  33
ENDBRANCH   5  31
TORSDOF 9
