REMARK  Name = ZINC00719933
REMARK  12 active torsions:
REMARK  status: ('A' for Active; 'I' for Inactive)
REMARK    1  A    between atoms: C_1  and  C_2
REMARK    2  A    between atoms: C_2  and  O_3
REMARK    3  A    between atoms: O_3  and  C_4
REMARK    4  A    between atoms: C_6  and  C_11
REMARK    5  A    between atoms: C_9  and  O_10
REMARK    6  A    between atoms: C_16  and  C_21
REMARK    7  A    between atoms: C_23  and  O_31
REMARK    8  A    between atoms: C_24  and  O_29
REMARK    9  A    between atoms: C_25  and  O_27
REMARK   10  A    between atoms: O_27  and  C_28
REMARK   11  A    between atoms: O_29  and  C_30
REMARK   12  A    between atoms: O_31  and  C_32
REMARK                            x       y       z     vdW  Elec       q    Type
REMARK                         _______ _______ _______ _____ _____    ______ ____
ROOT
ATOM      1  C   UNL     1       1.634   9.307  -2.893  0.00  0.00    +0.136 C 
ATOM      2  C   UNL     1       0.905   8.357  -1.972  0.00  0.00    +0.036 C 
ATOM      3  C   UNL     1      -0.349   7.909  -2.135  0.00  0.00    +0.017 C 
ATOM      4  C   UNL     1      -0.970   6.975  -1.107  0.00  0.00    +0.059 C 
ATOM      5  C   UNL     1       0.108   6.074  -0.506  0.00  0.00    +0.032 C 
ATOM      6  C   UNL     1       1.152   6.977   0.163  0.00  0.00    +0.088 C 
ATOM      7  C   UNL     1       1.674   7.942  -0.858  0.00  0.00    +0.163 C 
ATOM      8  O   UNL     1       2.798   8.384  -0.726  0.00  0.00    -0.292 OA
ATOM      9  N   UNL     1      -1.163   8.219  -3.177  0.00  0.00    -0.316 N 
ATOM     10  C   UNL     1      -1.368   9.505  -3.666  0.00  0.00    +0.052 A 
ATOM     11  C   UNL     1      -2.609  10.116  -3.643  0.00  0.00    +0.025 A 
ATOM     12  C   UNL     1      -2.760  11.367  -4.219  0.00  0.00    +0.002 A 
ATOM     13  C   UNL     1      -1.679  11.996  -4.810  0.00  0.00    +0.002 A 
ATOM     14  C   UNL     1      -0.433  11.394  -4.813  0.00  0.00    +0.025 A 
ATOM     15  C   UNL     1      -0.274  10.150  -4.221  0.00  0.00    +0.049 A 
ATOM     16  N   UNL     1       0.972   9.532  -4.161  0.00  0.00    -0.331 N 
ATOM     17  H   UNL     1      -1.635   7.491  -3.611  0.00  0.00    +0.152 HD
ATOM     18  H   UNL     1       1.403   9.246  -4.982  0.00  0.00    +0.147 HD
ENDROOT
BRANCH   1  21
ATOM     19  C   UNL     1       3.188  12.332  -1.247  0.00  0.00    +0.162 A 
ATOM     20  C   UNL     1       3.047  11.114  -1.892  0.00  0.00    +0.055 A 
ATOM     21  C   UNL     1       1.786  10.633  -2.192  0.00  0.00    -0.019 A 
ATOM     22  C   UNL     1       0.664  11.367  -1.854  0.00  0.00    +0.009 A 
ATOM     23  C   UNL     1       0.798  12.580  -1.205  0.00  0.00    +0.049 A 
ATOM     24  C   UNL     1       2.059  13.068  -0.902  0.00  0.00    +0.158 A 
BRANCH  24  25
ATOM     25  O   UNL     1       2.193  14.265  -0.270  0.00  0.00    -0.503 OA
ATOM     26  H   UNL     1       2.261  15.021  -0.868  0.00  0.00    +0.292 HD
ENDBRANCH  24  25
BRANCH  19  27
ATOM     27  O   UNL     1       4.428  12.807  -0.953  0.00  0.00    -0.489 OA
BRANCH  27  29
ATOM     28  C   UNL     1       6.842  12.690  -0.925  0.00  0.00    +0.048 C 
ATOM     29  C   UNL     1       5.542  11.998  -1.337  0.00  0.00    +0.226 C 
ENDBRANCH  27  29
ENDBRANCH  19  27
ENDBRANCH   1  21
BRANCH   5  30
ATOM     30  C   UNL     1      -0.506   5.156   0.519  0.00  0.00    -0.036 A 
ATOM     31  C   UNL     1      -1.161   5.686   1.614  0.00  0.00    +0.053 A 
ATOM     32  C   UNL     1      -1.727   4.845   2.560  0.00  0.00    +0.165 A 
ATOM     33  C   UNL     1      -1.640   3.467   2.402  0.00  0.00    +0.204 A 
ATOM     34  C   UNL     1      -0.976   2.938   1.302  0.00  0.00    +0.165 A 
ATOM     35  C   UNL     1      -0.412   3.786   0.361  0.00  0.00    +0.053 A 
BRANCH  34  36
ATOM     36  O   UNL     1      -0.884   1.590   1.146  0.00  0.00    -0.491 OA
ATOM     37  C   UNL     1      -0.192   1.117  -0.012  0.00  0.00    +0.277 C 
ENDBRANCH  34  36
BRANCH  33  38
ATOM     38  O   UNL     1      -2.199   2.638   3.326  0.00  0.00    -0.488 OA
ATOM     39  C   UNL     1      -1.375   2.241   4.424  0.00  0.00    +0.277 C 
ENDBRANCH  33  38
BRANCH  32  40
ATOM     40  O   UNL     1      -2.371   5.368   3.638  0.00  0.00    -0.491 OA
ATOM     41  C   UNL     1      -2.426   6.792   3.732  0.00  0.00    +0.277 C 
ENDBRANCH  32  40
ENDBRANCH   5  30
TORSDOF 8
