REMARK  Name = ZINC09504036
REMARK  11 active torsions:
REMARK  status: ('A' for Active; 'I' for Inactive)
REMARK    1  A    between atoms: C_1  and  C_2
REMARK    2  A    between atoms: C_2  and  C_3
REMARK    3  A    between atoms: C_2  and  C_4
REMARK    4  A    between atoms: C_7  and  C_10
REMARK    5  A    between atoms: C_10  and  C_12
REMARK    6  A    between atoms: C_10  and  N_50
REMARK    7  A    between atoms: C_13  and  C_15
REMARK    8  A    between atoms: C_13  and  C_16
REMARK    9  A    between atoms: C_13  and  N_50
REMARK   10  A    between atoms: N_18  and  C_19
REMARK   11  A    between atoms: C_21  and  N_26
REMARK                            x       y       z     vdW  Elec       q    Type
REMARK                         _______ _______ _______ _____ _____    ______ ____
ROOT
ATOM      1  C   UNL     1      -2.240   4.262   6.746  0.00  0.00    +0.014 C 
ATOM      2  C   UNL     1      -1.245   3.398   7.524  0.00  0.00    -0.004 C 
ENDROOT
BRANCH   1   3
ATOM      3  C   UNL     1      -2.069   5.706   7.141  0.00  0.00    +0.203 C 
ATOM      4  O   UNL     1      -1.770   6.532   6.305  0.00  0.00    -0.277 OA
ATOM      5  N   UNL     1      -2.247   6.079   8.424  0.00  0.00    -0.286 N 
ATOM      6  H   UNL     1      -2.563   5.436   9.077  0.00  0.00    +0.155 HD
BRANCH   5   7
ATOM      7  C   UNL     1      -1.975   7.396   8.813  0.00  0.00    +0.054 A 
ATOM      8  C   UNL     1      -1.075   8.165   8.088  0.00  0.00    +0.057 A 
ATOM      9  C   UNL     1      -0.809   9.464   8.475  0.00  0.00    +0.128 A 
ATOM     10  C   UNL     1      -1.438   9.999   9.584  0.00  0.00    +0.034 A 
ATOM     11  C   UNL     1      -2.335   9.237  10.309  0.00  0.00    +0.024 A 
ATOM     12  C   UNL     1      -2.610   7.938   9.924  0.00  0.00    +0.062 A 
ATOM     13 CL   UNL     1      -3.742   6.984  10.831  0.00  0.00    -0.082 Cl
BRANCH   9  14
ATOM     14  N   UNL     1       0.150  10.284   7.701  0.00  0.00    +0.056 N 
ATOM     15  O   UNL     1       0.704   9.813   6.724  0.00  0.00    -0.126 OA
ATOM     16  O   UNL     1       0.385  11.429   8.042  0.00  0.00    -0.126 OA
ENDBRANCH   9  14
ENDBRANCH   5   7
ENDBRANCH   1   3
BRANCH   1  17
ATOM     17  N   UNL     1      -1.987   4.122   5.299  0.00  0.00    +0.391 N 
ATOM     18  H   UNL     1      -2.324   4.962   4.814  0.00  0.00    -0.084 HD
ATOM     19  H   UNL     1      -0.979   4.016   5.141  0.00  0.00    -0.084 HD
BRANCH  17  20
ATOM     20  C   UNL     1      -2.691   2.939   4.768  0.00  0.00    -0.043 C 
ATOM     21  C   UNL     1      -4.131   3.317   4.417  0.00  0.00    -0.009 C 
BRANCH  20  25
ATOM     22  C   UNL     1      -0.680   1.571   1.256  0.00  0.00    -0.045 A 
ATOM     23  C   UNL     1      -0.829   2.927   1.484  0.00  0.00    +0.004 A 
ATOM     24  C   UNL     1      -1.483   3.369   2.618  0.00  0.00    +0.002 A 
ATOM     25  C   UNL     1      -1.981   2.457   3.530  0.00  0.00    -0.062 A 
ATOM     26  C   UNL     1      -1.829   1.101   3.304  0.00  0.00    +0.002 A 
ATOM     27  C   UNL     1      -1.177   0.659   2.168  0.00  0.00    +0.004 A 
BRANCH  22  29
ATOM     28  C   UNL     1       1.461   1.630   0.006  0.00  0.00    +0.012 C 
ATOM     29  C   UNL     1       0.029   1.089   0.018  0.00  0.00    +0.013 C 
ATOM     30  C   UNL     1      -0.714   1.587  -1.223  0.00  0.00    +0.012 C 
ENDBRANCH  22  29
ENDBRANCH  20  25
ENDBRANCH  17  20
ENDBRANCH   1  17
TORSDOF 7
