REMARK  Name = ZINC15969569
REMARK  5 active torsions:
REMARK  status: ('A' for Active; 'I' for Inactive)
REMARK    1  A    between atoms: C_4  and  C_7
REMARK    2  A    between atoms: C_7  and  C_8
REMARK    3  A    between atoms: C_8  and  N_9
REMARK    4  A    between atoms: C_14  and  C_31
REMARK    5  A    between atoms: C_31  and  C_32
REMARK                            x       y       z     vdW  Elec       q    Type
REMARK                         _______ _______ _______ _____ _____    ______ ____
ROOT
ATOM      1  N   UNL     1       6.004  -1.104   0.755  0.00  0.00    -0.241 N 
ATOM      2  C   UNL     1       6.106  -2.329   1.285  0.00  0.00    +0.227 C 
ATOM      3  O   UNL     1       5.239  -2.893   1.916  0.00  0.00    -0.275 OA
ATOM      4  C   UNL     1       7.471  -2.898   0.974  0.00  0.00    +0.107 C 
ATOM      5  C   UNL     1       7.319  -4.088   0.004  0.00  0.00    +0.072 C 
ATOM      6  N   UNL     1       7.322  -3.478  -1.353  0.00  0.00    -0.295 NA
ATOM      7  C   UNL     1       8.323  -2.400  -1.260  0.00  0.00    +0.136 C 
ATOM      8  C   UNL     1       8.150  -1.772   0.146  0.00  0.00    +0.122 C 
ATOM      9  C   UNL     1       7.091  -0.694   0.092  0.00  0.00    +0.228 C 
ATOM     10  O   UNL     1       7.209   0.377  -0.465  0.00  0.00    -0.275 OA
ATOM     11  C   UNL     1       8.140  -1.382  -2.349  0.00  0.00    +0.003 A 
ATOM     12  C   UNL     1       7.099  -0.555  -2.710  0.00  0.00    +0.008 A 
ATOM     13  C   UNL     1       7.235   0.296  -3.793  0.00  0.00    +0.000 A 
ATOM     14  C   UNL     1       8.416   0.314  -4.511  0.00  0.00    +0.002 A 
ATOM     15  C   UNL     1       9.462  -0.511  -4.153  0.00  0.00    +0.023 A 
ATOM     16  C   UNL     1       9.334  -1.371  -3.064  0.00  0.00    +0.039 A 
ATOM     17  N   UNL     1      10.235  -2.285  -2.514  0.00  0.00    -0.283 N 
ATOM     18  C   UNL     1       9.718  -2.930  -1.450  0.00  0.00    +0.243 C 
ATOM     19  O   UNL     1      10.270  -3.774  -0.775  0.00  0.00    -0.273 OA
ATOM     20  H   UNL     1       7.584  -4.156  -2.053  0.00  0.00    +0.124 HD
ATOM     21  H   UNL     1      11.129  -2.439  -2.857  0.00  0.00    +0.155 HD
ENDROOT
BRANCH   1  22
ATOM     22  C   UNL     1       4.798  -0.282   0.886  0.00  0.00    +0.121 C 
BRANCH  22  23
ATOM     23  C   UNL     1       3.854  -0.572  -0.282  0.00  0.00    +0.054 C 
BRANCH  23  27
ATOM     24  C   UNL     1       0.338   1.823   0.097  0.00  0.00    +0.000 A 
ATOM     25  C   UNL     1       1.429   2.304  -0.601  0.00  0.00    +0.000 A 
ATOM     26  C   UNL     1       2.567   1.529  -0.724  0.00  0.00    +0.004 A 
ATOM     27  C   UNL     1       2.614   0.273  -0.148  0.00  0.00    -0.046 A 
ATOM     28  C   UNL     1       1.522  -0.207   0.551  0.00  0.00    +0.004 A 
ATOM     29  C   UNL     1       0.384   0.567   0.672  0.00  0.00    +0.000 A 
ENDBRANCH  23  27
ENDBRANCH  22  23
ENDBRANCH   1  22
BRANCH   5  30
ATOM     30  C   UNL     1       8.495  -5.055   0.158  0.00  0.00    +0.056 C 
BRANCH  30  31
ATOM     31  C   UNL     1       8.136  -6.128   1.153  0.00  0.00    -0.021 A 
ATOM     32  C   UNL     1       8.419  -6.128   2.465  0.00  0.00    +0.087 A 
ATOM     33  N   UNL     1       7.936  -7.268   3.047  0.00  0.00    -0.360 N 
ATOM     34  H   UNL     1       8.019  -7.492   3.987  0.00  0.00    +0.165 HD
ATOM     35  C   UNL     1       7.314  -8.050   2.100  0.00  0.00    +0.047 A 
ATOM     36  C   UNL     1       7.406  -7.367   0.873  0.00  0.00    +0.003 A 
ATOM     37  C   UNL     1       6.851  -7.927  -0.279  0.00  0.00    +0.010 A 
ATOM     38  C   UNL     1       6.216  -9.135  -0.208  0.00  0.00    +0.001 A 
ATOM     39  C   UNL     1       6.118  -9.810   1.000  0.00  0.00    +0.002 A 
ATOM     40  C   UNL     1       6.668  -9.280   2.148  0.00  0.00    +0.026 A 
ENDBRANCH  30  31
ENDBRANCH   5  30
TORSDOF 5
