REMARK  Name = ZINC16073474
REMARK  8 active torsions:
REMARK  status: ('A' for Active; 'I' for Inactive)
REMARK    1  A    between atoms: C_1  and  C_2
REMARK    2  A    between atoms: C_2  and  C_3
REMARK    3  A    between atoms: C_2  and  C_4
REMARK    4  A    between atoms: C_2  and  C_5
REMARK    5  A    between atoms: C_8  and  C_11
REMARK    6  A    between atoms: N_13  and  N_14
REMARK    7  A    between atoms: C_15  and  C_17
REMARK    8  A    between atoms: C_17  and  C_18
REMARK                            x       y       z     vdW  Elec       q    Type
REMARK                         _______ _______ _______ _____ _____    ______ ____
ROOT
ATOM      1  N   UNL     1      -2.801   3.280   1.694  0.00  0.00    -0.234 N 
ATOM      2  C   UNL     1      -1.714   2.526   1.440  0.00  0.00    +0.233 C 
ATOM      3  O   UNL     1      -1.117   1.995   2.352  0.00  0.00    -0.274 OA
ATOM      4  H   UNL     1      -3.279   3.705   0.965  0.00  0.00    +0.173 HD
ENDROOT
BRANCH   1   7
ATOM      5  C   UNL     1      -4.328   4.207   3.268  0.00  0.00    +0.260 C 
ATOM      6  O   UNL     1      -4.927   4.739   2.354  0.00  0.00    -0.269 OA
ATOM      7  N   UNL     1      -3.241   3.453   3.014  0.00  0.00    -0.230 N 
ATOM      8  H   UNL     1      -2.763   3.028   3.743  0.00  0.00    +0.173 HD
BRANCH   5  12
ATOM      9  C   UNL     1      -5.663   4.728   7.267  0.00  0.00    -0.042 A 
ATOM     10  C   UNL     1      -6.346   5.335   6.229  0.00  0.00    +0.005 A 
ATOM     11  C   UNL     1      -5.918   5.170   4.928  0.00  0.00    +0.013 A 
ATOM     12  C   UNL     1      -4.793   4.389   4.660  0.00  0.00    +0.038 A 
ATOM     13  C   UNL     1      -4.111   3.775   5.712  0.00  0.00    +0.013 A 
ATOM     14  C   UNL     1      -4.546   3.952   7.009  0.00  0.00    +0.005 A 
BRANCH   9  16
ATOM     15  C   UNL     1      -7.565   4.381   8.820  0.00  0.00    +0.015 C 
ATOM     16  C   UNL     1      -6.136   4.912   8.686  0.00  0.00    -0.013 C 
ATOM     17  C   UNL     1      -5.215   4.144   9.635  0.00  0.00    +0.015 C 
ATOM     18  C   UNL     1      -6.110   6.400   9.043  0.00  0.00    +0.015 C 
ENDBRANCH   9  16
ENDBRANCH   5  12
ENDBRANCH   1   7
BRANCH   2  19
ATOM     19  C   UNL     1      -1.241   2.341   0.021  0.00  0.00    +0.134 C 
BRANCH  19  20
ATOM     20  C   UNL     1      -0.018   1.461   0.010  0.00  0.00    -0.014 A 
ATOM     21  C   UNL     1       1.260   1.871   0.000  0.00  0.00    +0.087 A 
ATOM     22  N   UNL     1       2.097   0.788  -0.014  0.00  0.00    -0.360 N 
ATOM     23  H   UNL     1       3.066   0.833  -0.023  0.00  0.00    +0.165 HD
ATOM     24  C   UNL     1       1.359  -0.374  -0.013  0.00  0.00    +0.047 A 
ATOM     25  C   UNL     1       0.002  -0.004   0.002  0.00  0.00    +0.003 A 
ATOM     26  C   UNL     1      -0.988  -0.988   0.007  0.00  0.00    +0.010 A 
ATOM     27  C   UNL     1      -0.633  -2.308  -0.003  0.00  0.00    +0.001 A 
ATOM     28  C   UNL     1       0.704  -2.678  -0.018  0.00  0.00    +0.002 A 
ATOM     29  C   UNL     1       1.698  -1.723  -0.023  0.00  0.00    +0.026 A 
ENDBRANCH  19  20
ENDBRANCH   2  19
TORSDOF 5
