REMARK  Name = ZINC20428898
REMARK  3 active torsions:
REMARK  status: ('A' for Active; 'I' for Inactive)
REMARK    1  A    between atoms: C_4  and  C_8
REMARK    2  A    between atoms: C_14  and  C_32
REMARK    3  A    between atoms: C_15  and  C_24
REMARK                            x       y       z     vdW  Elec       q    Type
REMARK                         _______ _______ _______ _____ _____    ______ ____
ROOT
ATOM      1  C   UNL     1       4.731   2.233  -0.030  0.00  0.00    +0.045 C 
ATOM      2  C   UNL     1       3.473   2.443   0.435  0.00  0.00    +0.138 A 
ATOM      3  C   UNL     1       2.934   3.681   1.012  0.00  0.00    +0.363 A 
ATOM      4  O   UNL     1       3.531   4.729   1.169  0.00  0.00    -0.243 OA
ATOM      5  O   UNL     1       1.652   3.430   1.333  0.00  0.00    -0.403 OA
ATOM      6  C   UNL     1       1.333   2.154   1.012  0.00  0.00    +0.227 A 
ATOM      7  C   UNL     1       0.137   1.507   1.175  0.00  0.00    +0.103 C 
ATOM      8  C   UNL     1       0.032   0.063   0.732  0.00  0.00    +0.123 C 
ATOM      9  C   UNL     1       1.273  -0.559   0.136  0.00  0.00    +0.119 A 
ATOM     10  C   UNL     1       2.385   0.193   0.034  0.00  0.00    +0.235 A 
ATOM     11  O   UNL     1       3.337  -0.590  -0.525  0.00  0.00    -0.408 OA
ATOM     12  C   UNL     1       2.793  -1.798  -0.753  0.00  0.00    +0.287 A 
ATOM     13  N   UNL     1       1.545  -1.781  -0.354  0.00  0.00    -0.197 NA
ATOM     14  N   UNL     1       3.445  -2.881  -1.317  0.00  0.00    -0.313 N 
ATOM     15  N   UNL     1       2.412   1.521   0.465  0.00  0.00    -0.241 N 
ATOM     16  H   UNL     1       2.909  -3.831  -1.462  0.00  0.00    +0.147 HD
ATOM     17  H   UNL     1       4.499  -2.793  -1.620  0.00  0.00    +0.147 HD
ENDROOT
BRANCH   1  21
ATOM     18  C   UNL     1       7.440   5.480  -0.358  0.00  0.00    +0.004 A 
ATOM     19  C   UNL     1       6.152   5.608  -0.847  0.00  0.00    +0.039 A 
ATOM     20  C   UNL     1       5.263   4.557  -0.745  0.00  0.00    +0.132 A 
ATOM     21  C   UNL     1       5.669   3.357  -0.144  0.00  0.00    +0.031 A 
ATOM     22  C   UNL     1       6.973   3.239   0.353  0.00  0.00    +0.051 A 
ATOM     23  C   UNL     1       7.850   4.299   0.237  0.00  0.00    +0.021 A 
ATOM     24 CL   UNL     1       7.488   1.762   1.106  0.00  0.00    -0.083 Cl
ATOM     25  F   UNL     1       4.006   4.684  -1.224  0.00  0.00    -0.205 F 
ENDBRANCH   1  21
BRANCH   8  26
ATOM     26  C   UNL     1      -0.375  -0.761   1.925  0.00  0.00    +0.020 A 
ATOM     27  C   UNL     1      -1.552  -1.489   1.896  0.00  0.00    +0.129 A 
ATOM     28  C   UNL     1      -1.925  -2.246   2.994  0.00  0.00    +0.039 A 
ATOM     29  C   UNL     1      -1.121  -2.276   4.118  0.00  0.00    +0.004 A 
ATOM     30  C   UNL     1       0.055  -1.550   4.147  0.00  0.00    +0.020 A 
ATOM     31  C   UNL     1       0.431  -0.797   3.049  0.00  0.00    +0.048 A 
ATOM     32 CL   UNL     1       1.912   0.109   3.084  0.00  0.00    -0.083 Cl
ATOM     33  F   UNL     1      -2.338  -1.459   0.797  0.00  0.00    -0.205 F 
ENDBRANCH   8  26
BRANCH   7  34
ATOM     34  C   UNL     1      -0.989   2.182   1.746  0.00  0.00    +0.101 C 
ATOM     35  N   UNL     1      -1.883   2.717   2.199  0.00  0.00    -0.191 NA
ENDBRANCH   7  34
TORSDOF 3
