REMARK  Name = ZINC21054589
REMARK  6 active torsions:
REMARK  status: ('A' for Active; 'I' for Inactive)
REMARK    1  A    between atoms: C_1  and  C_2
REMARK    2  A    between atoms: C_2  and  C_3
REMARK    3  A    between atoms: C_6  and  N_20
REMARK    4  A    between atoms: C_8  and  C_9
REMARK    5  A    between atoms: C_9  and  C_11
REMARK    6  A    between atoms: C_9  and  N_19
REMARK                            x       y       z     vdW  Elec       q    Type
REMARK                         _______ _______ _______ _____ _____    ______ ____
ROOT
ATOM      1  C   UNL     1       1.458   2.958   2.556  0.00  0.00    -0.010 C 
ENDROOT
BRANCH   1   2
ATOM      2  C   UNL     1       2.855   3.225   3.056  0.00  0.00    -0.022 A 
ATOM      3  C   UNL     1       3.055   4.085   4.120  0.00  0.00    +0.006 A 
ATOM      4  C   UNL     1       4.335   4.326   4.583  0.00  0.00    +0.020 A 
ATOM      5  C   UNL     1       5.418   3.715   3.975  0.00  0.00    +0.044 A 
ATOM      6  C   UNL     1       5.219   2.859   2.907  0.00  0.00    +0.058 A 
ATOM      7  C   UNL     1       3.937   2.614   2.447  0.00  0.00    +0.127 A 
ATOM      8  F   UNL     1       3.742   1.778   1.403  0.00  0.00    -0.205 F 
ATOM      9 CL   UNL     1       7.025   4.024   4.553  0.00  0.00    -0.083 Cl
ENDBRANCH   1   2
BRANCH   1  15
ATOM     10  C   UNL     1      -0.169   1.059   2.655  0.00  0.00    -0.046 A 
ATOM     11  C   UNL     1      -0.662  -0.087   3.250  0.00  0.00    +0.006 A 
ATOM     12  C   UNL     1      -0.055  -0.593   4.385  0.00  0.00    +0.033 A 
ATOM     13  C   UNL     1       1.038   0.053   4.930  0.00  0.00    +0.126 A 
ATOM     14  C   UNL     1       1.528   1.202   4.338  0.00  0.00    +0.035 A 
ATOM     15  C   UNL     1       0.924   1.705   3.201  0.00  0.00    -0.052 A 
BRANCH  13  16
ATOM     16  N   UNL     1       1.685  -0.485   6.148  0.00  0.00    +0.056 N 
ATOM     17  O   UNL     1       2.648   0.084   6.629  0.00  0.00    -0.126 OA
ATOM     18  O   UNL     1       1.253  -1.498   6.669  0.00  0.00    -0.126 OA
ENDBRANCH  13  16
BRANCH  10  20
ATOM     19  C   UNL     1      -0.106   1.072   0.176  0.00  0.00    +0.009 C 
ATOM     20  C   UNL     1      -0.827   1.607   1.415  0.00  0.00    +0.032 C 
ENDBRANCH  10  20
ENDBRANCH   1  15
BRANCH   1  21
ATOM     21  N   UNL     1       0.590   4.093   2.898  0.00  0.00    +0.385 N 
ATOM     22  H   UNL     1       0.980   5.008   2.427  0.00  0.00    -0.089 HD
ATOM     23  H   UNL     1       0.570   4.223   3.990  0.00  0.00    -0.089 HD
ATOM     24  H   UNL     1      -0.429   3.898   2.533  0.00  0.00    -0.089 HD
ENDBRANCH   1  21
TORSDOF 5
