REMARK  Name = ZINC18518567
REMARK  9 active torsions:
REMARK  status: ('A' for Active; 'I' for Inactive)
REMARK    1  A    between atoms: C_1  and  C_2
REMARK    2  A    between atoms: C_2  and  C_4
REMARK    3  A    between atoms: C_2  and  S_16
REMARK    4  A    between atoms: N_6  and  C_7
REMARK    5  A    between atoms: C_10  and  O_14
REMARK    6  A    between atoms: O_14  and  C_15
REMARK    7  A    between atoms: S_16  and  C_17
REMARK    8  A    between atoms: C_20  and  C_25
REMARK    9  A    between atoms: N_21  and  C_22
REMARK                            x       y       z     vdW  Elec       q    Type
REMARK                         _______ _______ _______ _____ _____    ______ ____
ROOT
ATOM      1  C   UNL     1       1.189   2.722   0.468  0.00  0.00    +0.193 A 
ATOM      2  N   UNL     1       0.461   3.738   0.068  0.00  0.00    -0.122 NA
ATOM      3  N   UNL     1      -0.788   3.471   0.208  0.00  0.00    -0.128 NA
ATOM      4  C   UNL     1      -0.935   2.263   0.703  0.00  0.00    +0.167 A 
ATOM      5  N   UNL     1       0.326   1.747   0.891  0.00  0.00    -0.299 N 
ENDROOT
BRANCH   4   6
ATOM      6  C   UNL     1      -2.214   1.588   1.004  0.00  0.00    +0.044 A 
ATOM      7  C   UNL     1      -2.377   0.298   1.394  0.00  0.00    +0.095 A 
ATOM      8  N   UNL     1      -3.704   0.037   1.579  0.00  0.00    -0.360 N 
ATOM      9  H   UNL     1      -4.069  -0.818   1.858  0.00  0.00    +0.165 HD
ATOM     10  C   UNL     1      -4.453   1.163   1.310  0.00  0.00    +0.047 A 
ATOM     11  C   UNL     1      -3.559   2.184   0.945  0.00  0.00    +0.010 A 
ATOM     12  C   UNL     1      -4.043   3.447   0.609  0.00  0.00    +0.011 A 
ATOM     13  C   UNL     1      -5.398   3.691   0.647  0.00  0.00    +0.001 A 
ATOM     14  C   UNL     1      -6.281   2.685   1.014  0.00  0.00    +0.002 A 
ATOM     15  C   UNL     1      -5.817   1.430   1.343  0.00  0.00    +0.026 A 
ENDBRANCH   4   6
BRANCH   5  16
ATOM     16  C   UNL     1       0.673   0.428   1.425  0.00  0.00    +0.091 C 
ATOM     17  C   UNL     1       2.155   0.130   1.664  0.00  0.00    +0.027 C 
ATOM     18  C   UNL     1       1.417  -0.536   0.499  0.00  0.00    +0.027 C 
ENDBRANCH   5  16
BRANCH   1  19
ATOM     19  S   UNL     1       2.948   2.629   0.464  0.00  0.00    -0.073 S 
BRANCH  19  21
ATOM     20  C   UNL     1       2.894   5.344   0.761  0.00  0.00    +0.029 C 
ATOM     21  C   UNL     1       3.347   4.258  -0.217  0.00  0.00    +0.137 C 
BRANCH  21  22
ATOM     22  C   UNL     1       4.835   4.363  -0.430  0.00  0.00    +0.230 C 
ATOM     23  O   UNL     1       5.586   3.617   0.161  0.00  0.00    -0.274 OA
ATOM     24  N   UNL     1       5.330   5.286  -1.278  0.00  0.00    -0.285 N 
ATOM     25  H   UNL     1       4.737   5.931  -1.695  0.00  0.00    +0.155 HD
BRANCH  24  26
ATOM     26  C   UNL     1       6.703   5.315  -1.558  0.00  0.00    +0.035 A 
ATOM     27  C   UNL     1       7.343   6.528  -1.772  0.00  0.00    +0.027 A 
ATOM     28  C   UNL     1       8.697   6.556  -2.044  0.00  0.00    +0.049 A 
ATOM     29  C   UNL     1       9.416   5.372  -2.113  0.00  0.00    +0.138 A 
ATOM     30  C   UNL     1       8.776   4.158  -1.905  0.00  0.00    +0.084 A 
ATOM     31  C   UNL     1       7.422   4.129  -1.628  0.00  0.00    +0.047 A 
ATOM     32 CL   UNL     1       9.676   2.676  -1.992  0.00  0.00    -0.080 Cl
BRANCH  29  33
ATOM     33  O   UNL     1      10.748   5.401  -2.385  0.00  0.00    -0.494 OA
ATOM     34  C   UNL     1      11.341   6.685  -2.588  0.00  0.00    +0.277 C 
ENDBRANCH  29  33
ENDBRANCH  24  26
ENDBRANCH  21  22
ENDBRANCH  19  21
ENDBRANCH   1  19
TORSDOF 7
