REMARK  Name = ZINC59602609
REMARK  9 active torsions:
REMARK  status: ('A' for Active; 'I' for Inactive)
REMARK    1  A    between atoms: C_1  and  C_2
REMARK    2  A    between atoms: C_2  and  C_3
REMARK    3  A    between atoms: C_2  and  C_4
REMARK    4  A    between atoms: C_2  and  N_5
REMARK    5  A    between atoms: C_6  and  S_19
REMARK    6  A    between atoms: N_7  and  N_8
REMARK    7  A    between atoms: C_9  and  C_10
REMARK    8  A    between atoms: C_15  and  O_16
REMARK    9  A    between atoms: S_19  and  C_20
REMARK                            x       y       z     vdW  Elec       q    Type
REMARK                         _______ _______ _______ _____ _____    ______ ____
ROOT
ATOM      1  N   UNL     1       4.020  -1.127  -2.088  0.00  0.00    -0.180 NA
ATOM      2  C   UNL     1       4.569  -1.235  -3.267  0.00  0.00    +0.144 C 
ENDROOT
BRANCH   2   3
ATOM      3  C   UNL     1       3.830  -1.871  -4.367  0.00  0.00    +0.039 A 
ATOM      4  C   UNL     1       2.432  -1.881  -4.362  0.00  0.00    +0.033 A 
ATOM      5  C   UNL     1       1.745  -2.480  -5.398  0.00  0.00    +0.043 A 
ATOM      6  C   UNL     1       2.434  -3.072  -6.444  0.00  0.00    +0.043 A 
ATOM      7  C   UNL     1       3.818  -3.069  -6.460  0.00  0.00    +0.084 A 
ATOM      8  C   UNL     1       4.524  -2.467  -5.431  0.00  0.00    +0.144 A 
ATOM      9 CL   UNL     1       4.671  -3.815  -7.775  0.00  0.00    -0.080 Cl
ATOM     10 CL   UNL     1       0.009  -2.492  -5.391  0.00  0.00    -0.083 Cl
BRANCH   8  11
ATOM     11  O   UNL     1       5.882  -2.459  -5.449  0.00  0.00    -0.505 OA
ATOM     12  H   UNL     1       6.285  -3.260  -5.084  0.00  0.00    +0.292 HD
ENDBRANCH   8  11
ENDBRANCH   2   3
BRANCH   1  15
ATOM     13  N   UNL     1       1.116  -2.184  -0.417  0.00  0.00    -0.319 N 
ATOM     14  C   UNL     1       2.296  -1.536  -0.686  0.00  0.00    +0.148 C 
ATOM     15  N   UNL     1       2.911  -1.736  -1.835  0.00  0.00    -0.259 N 
ATOM     16  H   UNL     1       0.662  -2.676  -1.119  0.00  0.00    +0.148 HD
ATOM     17  H   UNL     1       2.530  -2.341  -2.490  0.00  0.00    +0.191 HD
BRANCH  13  19
ATOM     18  C   UNL     1       0.134  -0.693   1.255  0.00  0.00    +0.031 C 
ATOM     19  C   UNL     1       0.542  -2.131   0.930  0.00  0.00    +0.025 C 
ATOM     20  C   UNL     1       1.581  -2.609   1.946  0.00  0.00    +0.031 C 
ATOM     21  C   UNL     1      -0.689  -3.038   0.996  0.00  0.00    +0.031 C 
ENDBRANCH  13  19
BRANCH  14  22
ATOM     22  S   UNL     1       2.989  -0.436   0.504  0.00  0.00    -0.094 S 
ATOM     23  C   UNL     1       4.509   0.163  -0.284  0.00  0.00    +0.093 C 
ENDBRANCH  14  22
ENDBRANCH   1  15
TORSDOF 5
