REMARK  Name = ZINC12888127
REMARK  9 active torsions:
REMARK  status: ('A' for Active; 'I' for Inactive)
REMARK    1  A    between atoms: C_1  and  C_2
REMARK    2  A    between atoms: C_2  and  C_3
REMARK    3  A    between atoms: C_3  and  C_5
REMARK    4  A    between atoms: C_3  and  C_6
REMARK    5  A    between atoms: C_6  and  C_8
REMARK    6  A    between atoms: C_6  and  N_17
REMARK    7  A    between atoms: N_10  and  C_11
REMARK    8  A    between atoms: C_11  and  C_12
REMARK    9  A    between atoms: C_18  and  C_20
REMARK                            x       y       z     vdW  Elec       q    Type
REMARK                         _______ _______ _______ _____ _____    ______ ____
ROOT
ATOM      1  C   UNL     1       2.857   2.943   0.407  0.00  0.00    +0.167 C 
ATOM      2  C   UNL     1       3.505   4.044  -0.445  0.00  0.00    +0.069 C 
ATOM      3  C   UNL     1       3.078   5.403   0.046  0.00  0.00    -0.015 A 
ATOM      4  C   UNL     1       3.684   6.684  -0.275  0.00  0.00    +0.003 A 
ATOM      5  C   UNL     1       4.777   7.037  -1.072  0.00  0.00    +0.010 A 
ATOM      6  C   UNL     1       5.078   8.374  -1.154  0.00  0.00    +0.001 A 
ATOM      7  C   UNL     1       4.343   9.336  -0.482  0.00  0.00    +0.002 A 
ATOM      8  C   UNL     1       3.257   9.015   0.314  0.00  0.00    +0.026 A 
ATOM      9  C   UNL     1       2.928   7.664   0.415  0.00  0.00    +0.047 A 
ATOM     10  N   UNL     1       1.942   7.011   1.097  0.00  0.00    -0.356 N 
ATOM     11  H   UNL     1       1.271   7.437   1.653  0.00  0.00    +0.166 HD
ATOM     12  C   UNL     1       2.044   5.664   0.877  0.00  0.00    +0.046 A 
ATOM     13  C   UNL     1       1.162   4.584   1.456  0.00  0.00    +0.155 C 
ATOM     14  N   UNL     1       1.478   3.354   0.692  0.00  0.00    -0.273 N 
ATOM     15  C   UNL     1       0.328   2.778   0.319  0.00  0.00    +0.248 C 
ATOM     16  O   UNL     1       0.221   1.655  -0.134  0.00  0.00    -0.270 OA
ATOM     17  C   UNL     1      -0.782   3.712   0.533  0.00  0.00    +0.042 A 
ATOM     18  C   UNL     1      -0.287   4.839   1.222  0.00  0.00    -0.009 A 
ATOM     19  C   UNL     1      -1.103   5.900   1.548  0.00  0.00    +0.006 A 
ATOM     20  C   UNL     1      -2.443   5.803   1.184  0.00  0.00    +0.000 A 
ATOM     21  C   UNL     1      -2.940   4.696   0.525  0.00  0.00    +0.001 A 
ATOM     22  C   UNL     1      -2.131   3.622   0.184  0.00  0.00    +0.013 A 
ENDROOT
BRANCH   1  24
ATOM     23  N   UNL     1       4.913   2.405   1.672  0.00  0.00    -0.302 N 
ATOM     24  C   UNL     1       3.618   2.780   1.697  0.00  0.00    +0.235 C 
ATOM     25  O   UNL     1       3.067   2.986   2.757  0.00  0.00    -0.274 OA
ATOM     26  H   UNL     1       5.335   2.175   0.830  0.00  0.00    +0.150 HD
BRANCH  23  27
ATOM     27  C   UNL     1       5.682   2.346   2.917  0.00  0.00    +0.162 C 
BRANCH  27  28
ATOM     28  C   UNL     1       7.060   2.909   2.684  0.00  0.00    +0.234 C 
ATOM     29  O   UNL     1       7.412   3.205   1.561  0.00  0.00    -0.274 OA
ATOM     30  N   UNL     1       7.902   3.085   3.722  0.00  0.00    -0.307 N 
ATOM     31  H   UNL     1       7.649   2.781   4.608  0.00  0.00    +0.149 HD
BRANCH  30  32
ATOM     32  C   UNL     1       9.198   3.735   3.513  0.00  0.00    +0.178 C 
BRANCH  32  33
ATOM     33  C   UNL     1       9.941   3.807   4.822  0.00  0.00    +0.122 A 
ATOM     34  C   UNL     1      10.782   2.874   5.301  0.00  0.00    +0.046 A 
ATOM     35  C   UNL     1      11.250   3.346   6.549  0.00  0.00    +0.041 A 
ATOM     36  C   UNL     1      10.667   4.540   6.757  0.00  0.00    +0.195 A 
ATOM     37  O   UNL     1       9.879   4.817   5.705  0.00  0.00    -0.466 OA
ENDBRANCH  32  33
ENDBRANCH  30  32
ENDBRANCH  27  28
BRANCH  27  38
ATOM     38  C   UNL     1       5.797   0.892   3.378  0.00  0.00    +0.015 C 
ATOM     39  C   UNL     1       4.411   0.367   3.760  0.00  0.00    +0.010 C 
BRANCH  38  41
ATOM     40  C   UNL     1       7.846   0.386   2.042  0.00  0.00    +0.004 C 
ATOM     41  C   UNL     1       6.369   0.041   2.242  0.00  0.00    +0.002 C 
ENDBRANCH  38  41
ENDBRANCH  27  38
ENDBRANCH  23  27
ENDBRANCH   1  24
TORSDOF 7
