REMARK  Name = ZINC67550416
REMARK  8 active torsions:
REMARK  status: ('A' for Active; 'I' for Inactive)
REMARK    1  A    between atoms: C_1  and  C_2
REMARK    2  A    between atoms: C_2  and  C_3
REMARK    3  A    between atoms: C_2  and  N_4
REMARK    4  A    between atoms: C_7  and  C_10
REMARK    5  A    between atoms: C_10  and  N_11
REMARK    6  A    between atoms: C_17  and  C_20
REMARK    7  A    between atoms: C_20  and  C_22
REMARK    8  A    between atoms: C_20  and  O_29
REMARK                            x       y       z     vdW  Elec       q    Type
REMARK                         _______ _______ _______ _____ _____    ______ ____
ROOT
ATOM      1  N   UNL     1       1.715  -3.644   4.479  0.00  0.00    -0.299 N 
ATOM      2  C   UNL     1       2.700  -4.348   5.072  0.00  0.00    +0.302 C 
ATOM      3  O   UNL     1       3.679  -4.679   4.433  0.00  0.00    -0.253 OA
ATOM      4  N   UNL     1       2.598  -4.685   6.372  0.00  0.00    -0.286 N 
ATOM      5  C   UNL     1       1.371  -4.394   7.127  0.00  0.00    +0.109 C 
ATOM      6  C   UNL     1       1.742  -3.607   8.388  0.00  0.00    +0.025 C 
ATOM      7  C   UNL     1       2.797  -4.385   9.178  0.00  0.00    +0.025 C 
ATOM      8  C   UNL     1       4.056  -4.552   8.324  0.00  0.00    +0.025 C 
ATOM      9  C   UNL     1       3.709  -5.355   7.061  0.00  0.00    +0.109 C 
ATOM     10  H   UNL     1       0.901  -3.443   4.966  0.00  0.00    +0.150 HD
ENDROOT
BRANCH   1  11
ATOM     11  C   UNL     1       1.874  -3.182   3.098  0.00  0.00    +0.107 C 
BRANCH  11  15
ATOM     12  N   UNL     1       0.715  -0.486   1.195  0.00  0.00    +0.381 N 
ATOM     13  C   UNL     1      -0.016  -0.091   2.426  0.00  0.00    -0.078 C 
ATOM     14  C   UNL     1       0.492  -1.105   3.482  0.00  0.00    -0.015 C 
ATOM     15  C   UNL     1       0.622  -2.413   2.669  0.00  0.00    -0.012 C 
ATOM     16  C   UNL     1       0.744  -1.965   1.201  0.00  0.00    -0.074 C 
ATOM     17  H   UNL     1       1.655  -0.120   1.214  0.00  0.00    -0.081 HD
BRANCH  12  19
ATOM     18  C   UNL     1      -0.015   1.531   0.015  0.00  0.00    -0.014 C 
ATOM     19  C   UNL     1       0.005   0.001   0.005  0.00  0.00    -0.075 C 
ATOM     20  C   UNL     1       0.722  -0.491  -1.254  0.00  0.00    -0.014 C 
ENDBRANCH  12  19
ENDBRANCH  11  15
ENDBRANCH   1  11
BRANCH   7  21
ATOM     21  C   UNL     1       3.145  -3.619  10.455  0.00  0.00    +0.148 C 
BRANCH  21  22
ATOM     22  C   UNL     1       4.184  -4.385  11.234  0.00  0.00    -0.019 A 
ATOM     23  C   UNL     1       5.525  -4.227  10.938  0.00  0.00    +0.007 A 
ATOM     24  C   UNL     1       6.478  -4.929  11.651  0.00  0.00    +0.020 A 
ATOM     25  C   UNL     1       6.089  -5.790  12.662  0.00  0.00    +0.041 A 
ATOM     26  C   UNL     1       4.747  -5.948  12.957  0.00  0.00    +0.020 A 
ATOM     27  C   UNL     1       3.795  -5.241  12.247  0.00  0.00    +0.007 A 
ATOM     28 CL   UNL     1       7.286  -6.673  13.558  0.00  0.00    -0.084 Cl
ENDBRANCH  21  22
BRANCH  21  29
ATOM     29  O   UNL     1       3.661  -2.331  10.113  0.00  0.00    -0.387 OA
ATOM     30  H   UNL     1       4.461  -2.359   9.570  0.00  0.00    +0.210 HD
ENDBRANCH  21  29
ENDBRANCH   7  21
TORSDOF 6
