REMARK  Name = ZINC01254321
REMARK  6 active torsions:
REMARK  status: ('A' for Active; 'I' for Inactive)
REMARK    1  A    between atoms: C_5  and  C_7
REMARK    2  A    between atoms: C_7  and  N_8
REMARK    3  A    between atoms: N_16  and  N_17
REMARK    4  A    between atoms: C_18  and  C_20
REMARK    5  A    between atoms: C_20  and  N_21
REMARK    6  A    between atoms: C_22  and  C_24
REMARK                            x       y       z     vdW  Elec       q    Type
REMARK                         _______ _______ _______ _____ _____    ______ ____
ROOT
ATOM      1  N   UNL     1       1.370  -2.677   1.351  0.00  0.00    -0.261 N 
ATOM      2  C   UNL     1       2.589  -2.887   1.987  0.00  0.00    +0.046 A 
ATOM      3  C   UNL     1       3.898  -2.712   1.553  0.00  0.00    +0.024 A 
ATOM      4  C   UNL     1       4.952  -3.000   2.397  0.00  0.00    +0.002 A 
ATOM      5  C   UNL     1       4.720  -3.465   3.681  0.00  0.00    +0.001 A 
ATOM      6  C   UNL     1       3.427  -3.644   4.129  0.00  0.00    +0.012 A 
ATOM      7  C   UNL     1       2.359  -3.357   3.286  0.00  0.00    +0.028 A 
ATOM      8  C   UNL     1       0.889  -3.438   3.448  0.00  0.00    +0.153 C 
ATOM      9  N   UNL     1       0.223  -3.828   4.507  0.00  0.00    -0.174 NA
ATOM     10  C   UNL     1       0.337  -2.976   2.158  0.00  0.00    +0.272 C 
ATOM     11  O   UNL     1      -0.843  -2.886   1.874  0.00  0.00    -0.268 OA
ENDROOT
BRANCH   9  12
ATOM     12  N   UNL     1      -1.178  -3.842   4.488  0.00  0.00    -0.205 N 
ATOM     13  C   UNL     1      -1.863  -4.243   5.577  0.00  0.00    +0.249 C 
ATOM     14  O   UNL     1      -1.267  -4.591   6.574  0.00  0.00    -0.272 OA
ATOM     15  H   UNL     1      -1.655  -3.563   3.691  0.00  0.00    +0.177 HD
BRANCH  13  16
ATOM     16  C   UNL     1      -3.370  -4.258   5.556  0.00  0.00    +0.202 C 
BRANCH  16  17
ATOM     17  N   UNL     1      -3.872  -4.730   6.849  0.00  0.00    -0.304 N 
ATOM     18  C   UNL     1      -5.199  -4.827   7.063  0.00  0.00    +0.258 C 
ATOM     19  O   UNL     1      -5.978  -4.524   6.184  0.00  0.00    -0.272 OA
ATOM     20  H   UNL     1      -3.248  -4.972   7.552  0.00  0.00    +0.149 HD
BRANCH  18  21
ATOM     21  C   UNL     1      -5.715  -5.311   8.393  0.00  0.00    +0.296 C 
ATOM     22  C   UNL     1      -5.312  -6.778   8.601  0.00  0.00    +0.283 C 
ATOM     23  O   UNL     1      -5.829  -7.209   9.865  0.00  0.00    -0.484 OA
ATOM     24  C   UNL     1      -7.124  -6.891  10.137  0.00  0.00    +0.162 A 
ATOM     25  C   UNL     1      -7.793  -7.567  11.146  0.00  0.00    +0.049 A 
ATOM     26  C   UNL     1      -9.107  -7.253  11.437  0.00  0.00    +0.004 A 
ATOM     27  C   UNL     1      -9.758  -6.265  10.721  0.00  0.00    +0.004 A 
ATOM     28  C   UNL     1      -9.098  -5.589   9.713  0.00  0.00    +0.049 A 
ATOM     29  C   UNL     1      -7.779  -5.900   9.416  0.00  0.00    +0.163 A 
ATOM     30  O   UNL     1      -7.144  -5.231   8.415  0.00  0.00    -0.473 OA
ENDBRANCH  18  21
ENDBRANCH  16  17
ENDBRANCH  13  16
ENDBRANCH   9  12
BRANCH   1  31
ATOM     31  C   UNL     1       1.229  -2.186  -0.022  0.00  0.00    +0.150 C 
BRANCH  31  36
ATOM     32  C   UNL     1       2.685  -4.673  -2.461  0.00  0.00    +0.000 A 
ATOM     33  C   UNL     1       1.582  -5.456  -2.748  0.00  0.00    +0.001 A 
ATOM     34  C   UNL     1       0.365  -5.182  -2.154  0.00  0.00    +0.020 A 
ATOM     35  C   UNL     1       0.250  -4.123  -1.271  0.00  0.00    +0.046 A 
ATOM     36  C   UNL     1       1.353  -3.340  -0.983  0.00  0.00    -0.011 A 
ATOM     37  C   UNL     1       2.570  -3.615  -1.579  0.00  0.00    +0.006 A 
ATOM     38 CL   UNL     1      -1.279  -3.777  -0.524  0.00  0.00    -0.083 Cl
ENDBRANCH  31  36
ENDBRANCH   1  31
TORSDOF 6
