REMARK  Name = ZINC24179742
REMARK  11 active torsions:
REMARK  status: ('A' for Active; 'I' for Inactive)
REMARK    1  A    between atoms: C_1  and  C_2
REMARK    2  A    between atoms: C_2  and  O_3
REMARK    3  A    between atoms: O_3  and  C_4
REMARK    4  A    between atoms: C_9  and  C_10
REMARK    5  A    between atoms: C_10  and  N_11
REMARK    6  A    between atoms: C_12  and  C_14
REMARK    7  A    between atoms: C_16  and  S_21
REMARK    8  A    between atoms: C_19  and  C_20
REMARK    9  A    between atoms: S_21  and  N_24
REMARK   10  A    between atoms: N_24  and  C_25
REMARK   11  A    between atoms: C_33  and  C_36
REMARK                            x       y       z     vdW  Elec       q    Type
REMARK                         _______ _______ _______ _____ _____    ______ ____
ROOT
ATOM      1  C   UNL     1       2.728  -4.086   3.429  0.00  0.00    +0.041 A 
ATOM      2  C   UNL     1       2.000  -3.236   4.264  0.00  0.00    +0.042 A 
ATOM      3  C   UNL     1       2.358  -3.103   5.589  0.00  0.00    +0.109 A 
ATOM      4  C   UNL     1       3.437  -3.810   6.092  0.00  0.00    +0.029 A 
ATOM      5  C   UNL     1       4.162  -4.653   5.270  0.00  0.00    +0.006 A 
ATOM      6  C   UNL     1       3.811  -4.799   3.943  0.00  0.00    -0.038 A 
ATOM      7  C   UNL     1       4.599  -5.723   3.051  0.00  0.00    +0.044 C 
ENDROOT
BRANCH   1   9
ATOM      8  N   UNL     1       1.229  -3.644   1.544  0.00  0.00    -0.307 N 
ATOM      9  C   UNL     1       2.349  -4.233   2.008  0.00  0.00    +0.245 C 
ATOM     10  O   UNL     1       3.048  -4.886   1.257  0.00  0.00    -0.270 OA
ATOM     11  H   UNL     1       0.597  -3.054   2.224  0.00  0.00    +0.149 HD
BRANCH   8  12
ATOM     12  C   UNL     1       0.854  -3.791   0.136  0.00  0.00    +0.143 C 
BRANCH  12  18
ATOM     13  C   UNL     1      -0.401  -1.668  -0.308  0.00  0.00    +0.126 A 
ATOM     14  C   UNL     1      -1.584  -0.983  -0.548  0.00  0.00    +0.053 A 
ATOM     15  C   UNL     1      -2.777  -1.669  -0.598  0.00  0.00    +0.001 A 
ATOM     16  C   UNL     1      -2.815  -3.045  -0.415  0.00  0.00    +0.125 A 
ATOM     17  C   UNL     1      -1.626  -3.726  -0.170  0.00  0.00    +0.054 A 
ATOM     18  C   UNL     1      -0.429  -3.042  -0.123  0.00  0.00    +0.015 A 
ATOM     19  O   UNL     1      -4.088  -3.521  -0.518  0.00  0.00    -0.488 OA
ATOM     20  C   UNL     1      -5.015  -2.437  -0.341  0.00  0.00    +0.175 C 
ATOM     21  C   UNL     1      -4.205  -1.211  -0.825  0.00  0.00    +0.083 C 
ATOM     22  C   UNL     1      -5.398  -2.286   1.133  0.00  0.00    +0.052 C 
BRANCH  13  23
ATOM     23  O   UNL     1       0.780  -0.996  -0.260  0.00  0.00    -0.492 OA
BRANCH  23  25
ATOM     24  C   UNL     1       2.145   0.995  -0.375  0.00  0.00    +0.048 C 
ATOM     25  C   UNL     1       0.732   0.417  -0.465  0.00  0.00    +0.225 C 
ENDBRANCH  23  25
ENDBRANCH  13  23
ENDBRANCH  12  18
ENDBRANCH   8  12
ENDBRANCH   1   9
BRANCH   3  26
ATOM     26  S   UNL     1       1.441  -2.031   6.645  0.00  0.00    +0.072 S 
ATOM     27  O   UNL     1       2.311  -1.665   7.707  0.00  0.00    -0.150 OA
ATOM     28  O   UNL     1       0.818  -1.069   5.805  0.00  0.00    -0.150 OA
BRANCH  26  29
ATOM     29  N   UNL     1       0.225  -2.930   7.318  0.00  0.00    -0.213 N 
ATOM     30  H   UNL     1      -0.826  -2.653   7.144  0.00  0.00    +0.174 HD
BRANCH  29  31
ATOM     31  C   UNL     1       0.532  -4.043   8.109  0.00  0.00    +0.083 A 
ATOM     32  C   UNL     1       1.653  -4.025   8.928  0.00  0.00    +0.027 A 
ATOM     33  C   UNL     1       1.952  -5.123   9.711  0.00  0.00    +0.002 A 
ATOM     34  C   UNL     1       1.143  -6.244   9.672  0.00  0.00    +0.003 A 
ATOM     35  C   UNL     1       0.028  -6.268   8.854  0.00  0.00    +0.040 A 
ATOM     36  C   UNL     1      -0.280  -5.171   8.071  0.00  0.00    +0.146 A 
ATOM     37  F   UNL     1      -1.368  -5.195   7.270  0.00  0.00    -0.204 F 
ENDBRANCH  29  31
ENDBRANCH  26  29
ENDBRANCH   3  26
TORSDOF 8
