REMARK  Name = ZINC43262393
REMARK  12 active torsions:
REMARK  status: ('A' for Active; 'I' for Inactive)
REMARK    1  A    between atoms: C_1  and  C_2
REMARK    2  A    between atoms: C_2  and  C_3
REMARK    3  A    between atoms: C_3  and  N_4
REMARK    4  A    between atoms: N_4  and  C_5
REMARK    5  A    between atoms: N_4  and  C_10
REMARK    6  A    between atoms: C_5  and  C_6
REMARK    7  A    between atoms: N_8  and  C_9
REMARK    8  A    between atoms: C_10  and  C_12
REMARK    9  A    between atoms: C_10  and  C_18
REMARK   10  A    between atoms: C_18  and  C_20
REMARK   11  A    between atoms: C_18  and  N_22
REMARK   12  A    between atoms: C_20  and  C_21
REMARK                            x       y       z     vdW  Elec       q    Type
REMARK                         _______ _______ _______ _____ _____    ______ ____
ROOT
ATOM      1  C   UNL     1      -0.798  -2.481   1.293  0.00  0.00    -0.045 C 
ENDROOT
BRANCH   1   2
ATOM      2  C   UNL     1      -1.113  -3.922   0.985  0.00  0.00    -0.024 A 
ATOM      3  C   UNL     1      -1.505  -4.909   1.827  0.00  0.00    +0.010 A 
ATOM      4  C   UNL     1      -1.740  -6.172   1.316  0.00  0.00    +0.023 A 
ATOM      5  C   UNL     1      -1.573  -6.386  -0.013  0.00  0.00    +0.055 A 
ATOM      6  S   UNL     1      -1.074  -4.770  -0.586  0.00  0.00    -0.088 S 
ATOM      7 BR   UNL     1      -1.812  -7.979  -1.003  0.00  0.00    -0.043 Br
ENDBRANCH   1   2
BRANCH   1   8
ATOM      8  N   UNL     1      -1.609  -1.608   0.434  0.00  0.00    +0.389 N 
ATOM      9  H   UNL     1      -1.444  -0.644   0.683  0.00  0.00    -0.080 HD
BRANCH   8  10
ATOM     10  C   UNL     1      -3.032  -1.925   0.618  0.00  0.00    -0.078 C 
BRANCH  10  12
ATOM     11  C   UNL     1      -4.956  -1.794   2.205  0.00  0.00    +0.002 C 
ATOM     12  C   UNL     1      -3.448  -1.589   2.051  0.00  0.00    -0.022 C 
ENDBRANCH  10  12
ENDBRANCH   8  10
BRANCH   8  13
ATOM     13  C   UNL     1      -1.237  -1.821  -0.971  0.00  0.00    +0.019 C 
BRANCH  13  14
ATOM     14  C   UNL     1      -1.956  -0.821  -1.838  0.00  0.00    +0.196 C 
ATOM     15  O   UNL     1      -2.705  -0.010  -1.336  0.00  0.00    -0.278 OA
ATOM     16  N   UNL     1      -1.768  -0.827  -3.173  0.00  0.00    -0.320 N 
ATOM     17  C   UNL     1      -2.467   0.146  -4.016  0.00  0.00    +0.128 C 
ATOM     18  H   UNL     1      -1.169  -1.476  -3.575  0.00  0.00    +0.148 HD
ENDBRANCH  13  14
ENDBRANCH   8  13
ENDBRANCH   1   8
BRANCH   1  19
ATOM     19  C   UNL     1       0.686  -2.217   1.033  0.00  0.00    -0.085 C 
BRANCH  19  20
ATOM     20  N   UNL     1       1.497  -3.064   1.918  0.00  0.00    +0.379 N 
ATOM     21  H   UNL     1       1.291  -4.035   1.736  0.00  0.00    -0.090 HD
ATOM     22  H   UNL     1       2.476  -2.889   1.747  0.00  0.00    -0.090 HD
ATOM     23  H   UNL     1       1.280  -2.849   2.880  0.00  0.00    -0.090 HD
ENDBRANCH  19  20
BRANCH  19  24
ATOM     24  C   UNL     1       0.998  -0.745   1.310  0.00  0.00    -0.021 C 
ATOM     25  C   UNL     1       2.466  -0.464   0.982  0.00  0.00    +0.002 C 
ENDBRANCH  19  24
ENDBRANCH   1  19
TORSDOF 9
