REMARK  Name = ZINC12498533
REMARK  7 active torsions:
REMARK  status: ('A' for Active; 'I' for Inactive)
REMARK    1  A    between atoms: C_4  and  N_10
REMARK    2  A    between atoms: C_6  and  N_7
REMARK    3  A    between atoms: N_10  and  C_11
REMARK    4  A    between atoms: C_11  and  N_13
REMARK    5  A    between atoms: C_14  and  C_16
REMARK    6  A    between atoms: C_16  and  O_17
REMARK    7  A    between atoms: O_17  and  C_18
REMARK                            x       y       z     vdW  Elec       q    Type
REMARK                         _______ _______ _______ _____ _____    ______ ____
ROOT
ATOM      1  C   UNL     1       5.129  -2.716  -0.307  0.00  0.00    +0.141 C 
ATOM      2  S   UNL     1       6.436  -1.665  -0.648  0.00  0.00    -0.018 S 
ENDROOT
BRANCH   1   3
ATOM      3  N   UNL     1       3.869  -2.237  -0.276  0.00  0.00    -0.265 N 
ATOM      4  C   UNL     1       3.639  -0.930  -0.513  0.00  0.00    +0.256 C 
ATOM      5  O   UNL     1       4.566  -0.186  -0.754  0.00  0.00    -0.272 OA
ATOM      6  H   UNL     1       3.128  -2.832  -0.084  0.00  0.00    +0.157 HD
BRANCH   4   7
ATOM      7  C   UNL     1       2.231  -0.394  -0.478  0.00  0.00    +0.325 C 
BRANCH   7   8
ATOM      8  O   UNL     1       2.248   1.007  -0.759  0.00  0.00    -0.482 OA
BRANCH   8   9
ATOM      9  C   UNL     1       1.050   1.649  -0.766  0.00  0.00    +0.135 A 
ATOM     10  C   UNL     1      -0.117   0.945  -0.509  0.00  0.00    +0.048 A 
ATOM     11  C   UNL     1      -1.334   1.598  -0.522  0.00  0.00    +0.019 A 
ATOM     12  C   UNL     1      -1.389   2.956  -0.782  0.00  0.00    +0.019 A 
ATOM     13  C   UNL     1      -0.227   3.660  -1.039  0.00  0.00    +0.034 A 
ATOM     14  C   UNL     1       0.992   3.010  -1.032  0.00  0.00    +0.061 A 
ATOM     15 BR   UNL     1       2.581   3.973  -1.384  0.00  0.00    -0.046 Br
ATOM     16 BR   UNL     1      -3.057   3.848  -0.793  0.00  0.00    -0.050 Br
ENDBRANCH   8   9
ENDBRANCH   7   8
ENDBRANCH   4   7
ENDBRANCH   1   3
BRANCH   1  17
ATOM     17  N   UNL     1       5.358  -4.023  -0.071  0.00  0.00    -0.294 N 
ATOM     18  H   UNL     1       4.626  -4.606   0.184  0.00  0.00    +0.154 HD
BRANCH  17  22
ATOM     19  C   UNL     1       9.217  -5.559  -0.430  0.00  0.00    +0.035 A 
ATOM     20  C   UNL     1       8.154  -6.221  -1.019  0.00  0.00    +0.042 A 
ATOM     21  C   UNL     1       6.873  -5.715  -0.902  0.00  0.00    +0.145 A 
ATOM     22  C   UNL     1       6.654  -4.539  -0.191  0.00  0.00    +0.070 A 
ATOM     23  C   UNL     1       7.724  -3.876   0.393  0.00  0.00    +0.059 A 
ATOM     24  C   UNL     1       9.001  -4.391   0.277  0.00  0.00    +0.128 A 
ATOM     25  F   UNL     1       5.835  -6.361  -1.477  0.00  0.00    -0.204 F 
BRANCH  24  26
ATOM     26  N   UNL     1      10.142  -3.686   0.905  0.00  0.00    +0.056 N 
ATOM     27  O   UNL     1      11.269  -4.136   0.799  0.00  0.00    -0.126 OA
ATOM     28  O   UNL     1       9.953  -2.657   1.528  0.00  0.00    -0.126 OA
ENDBRANCH  24  26
ENDBRANCH  17  22
ENDBRANCH   1  17
TORSDOF 7
