REMARK  Name = ZINC02578348
REMARK  10 active torsions:
REMARK  status: ('A' for Active; 'I' for Inactive)
REMARK    1  A    between atoms: C_1  and  C_2
REMARK    2  A    between atoms: C_2  and  C_4
REMARK    3  A    between atoms: C_4  and  N_5
REMARK    4  A    between atoms: C_6  and  C_24
REMARK    5  A    between atoms: C_9  and  S_10
REMARK    6  A    between atoms: S_10  and  C_11
REMARK    7  A    between atoms: C_11  and  C_12
REMARK    8  A    between atoms: N_14  and  N_15
REMARK    9  A    between atoms: C_16  and  C_17
REMARK   10  A    between atoms: C_21  and  O_23
REMARK                            x       y       z     vdW  Elec       q    Type
REMARK                         _______ _______ _______ _____ _____    ______ ____
ROOT
ATOM      1  N   UNL     1      -1.050   2.344   0.488  0.00  0.00    -0.298 N 
ATOM      2  C   UNL     1      -0.025   1.484   0.168  0.00  0.00    +0.165 A 
ATOM      3  N   UNL     1       0.939   2.209  -0.350  0.00  0.00    -0.128 NA
ATOM      4  N   UNL     1       0.595   3.447  -0.370  0.00  0.00    -0.122 NA
ATOM      5  C   UNL     1      -0.612   3.588   0.133  0.00  0.00    +0.193 A 
ENDROOT
BRANCH   2   6
ATOM      6  C   UNL     1      -0.015   0.019   0.363  0.00  0.00    +0.019 A 
ATOM      7  C   UNL     1       1.174  -0.636   0.689  0.00  0.00    +0.012 A 
ATOM      8  C   UNL     1       1.176  -2.003   0.876  0.00  0.00    +0.016 A 
ATOM      9  C   UNL     1       0.005  -2.726   0.729  0.00  0.00    +0.018 A 
ATOM     10  C   UNL     1      -1.176  -2.083   0.401  0.00  0.00    +0.016 A 
ATOM     11  C   UNL     1      -1.192  -0.716   0.217  0.00  0.00    +0.012 A 
ATOM     12 BR   UNL     1       0.019  -4.601   0.979  0.00  0.00    -0.050 Br
ENDBRANCH   2   6
BRANCH   1  13
ATOM     13  C   UNL     1      -2.342   1.999   1.087  0.00  0.00    +0.155 C 
BRANCH  13  15
ATOM     14  C   UNL     1      -1.718   0.757   3.296  0.00  0.00    +0.040 C 
ATOM     15  C   UNL     1      -2.213   1.992   2.588  0.00  0.00    -0.060 C 
ATOM     16  C   UNL     1      -2.533   3.059   3.278  0.00  0.00    +0.009 C 
ENDBRANCH  13  15
ENDBRANCH   1  13
BRANCH   5  17
ATOM     17  S   UNL     1      -1.500   5.100   0.310  0.00  0.00    -0.077 S 
BRANCH  17  18
ATOM     18  C   UNL     1      -0.288   6.258  -0.372  0.00  0.00    +0.174 C 
BRANCH  18  19
ATOM     19  C   UNL     1      -0.847   7.657  -0.322  0.00  0.00    +0.242 C 
ATOM     20  O   UNL     1      -1.955   7.851   0.131  0.00  0.00    -0.273 OA
ATOM     21  N   UNL     1      -0.115   8.692  -0.780  0.00  0.00    -0.206 N 
ATOM     22  H   UNL     1       0.771   8.536  -1.143  0.00  0.00    +0.177 HD
BRANCH  21  23
ATOM     23  N   UNL     1      -0.634   9.992  -0.734  0.00  0.00    -0.188 NA
ATOM     24  C   UNL     1       0.070  10.988  -1.175  0.00  0.00    +0.138 C 
BRANCH  24  25
ATOM     25  C   UNL     1      -0.477  12.357  -1.126  0.00  0.00    -0.002 A 
ATOM     26  C   UNL     1      -1.753  12.584  -0.605  0.00  0.00    +0.010 A 
ATOM     27  C   UNL     1      -2.261  13.866  -0.560  0.00  0.00    +0.004 A 
ATOM     28  C   UNL     1      -1.510  14.929  -1.029  0.00  0.00    +0.045 A 
ATOM     29  C   UNL     1      -0.241  14.713  -1.549  0.00  0.00    +0.117 A 
ATOM     30  C   UNL     1       0.281  13.432  -1.595  0.00  0.00    +0.054 A 
BRANCH  29  31
ATOM     31  O   UNL     1       0.492  15.762  -2.008  0.00  0.00    -0.507 OA
ATOM     32  H   UNL     1       1.052  16.174  -1.336  0.00  0.00    +0.292 HD
ENDBRANCH  29  31
ENDBRANCH  24  25
ENDBRANCH  21  23
ENDBRANCH  18  19
ENDBRANCH  17  18
ENDBRANCH   5  17
TORSDOF 9
