REMARK  Name = ZINC39663738
REMARK  10 active torsions:
REMARK  status: ('A' for Active; 'I' for Inactive)
REMARK    1  A    between atoms: C_1  and  N_2
REMARK    2  A    between atoms: N_2  and  C_3
REMARK    3  A    between atoms: N_2  and  C_4
REMARK    4  A    between atoms: C_4  and  C_6
REMARK    5  A    between atoms: C_4  and  C_31
REMARK    6  A    between atoms: C_6  and  N_7
REMARK    7  A    between atoms: C_8  and  C_10
REMARK    8  A    between atoms: C_21  and  C_23
REMARK    9  A    between atoms: C_34  and  O_37
REMARK   10  A    between atoms: O_37  and  C_38
REMARK                            x       y       z     vdW  Elec       q    Type
REMARK                         _______ _______ _______ _____ _____    ______ ____
ROOT
ATOM      1  C   UNL     1      -0.503  -3.662   2.907  0.00  0.00    +0.100 C 
ATOM      2  C   UNL     1      -1.579  -3.006   3.801  0.00  0.00    +0.121 C 
ATOM      3  N   UNL     1      -2.556  -4.088   4.067  0.00  0.00    -0.296 N 
ATOM      4  C   UNL     1      -1.721  -5.298   4.261  0.00  0.00    +0.115 C 
ATOM      5  C   UNL     1      -0.598  -5.166   3.214  0.00  0.00    -0.004 C 
ATOM      6  C   UNL     1       0.722  -5.671   3.789  0.00  0.00    -0.010 C 
ATOM      7  C   UNL     1       0.624  -7.180   4.032  0.00  0.00    -0.082 C 
ATOM      8  N   UNL     1       0.324  -7.863   2.767  0.00  0.00    +0.379 N 
ATOM      9  C   UNL     1      -0.990  -7.439   2.269  0.00  0.00    -0.082 C 
ATOM     10  C   UNL     1      -0.960  -5.942   1.951  0.00  0.00    -0.010 C 
ATOM     11  C   UNL     1      -3.899  -3.994   4.121  0.00  0.00    +0.247 C 
ATOM     12  O   UNL     1      -4.446  -2.943   3.848  0.00  0.00    -0.270 OA
ATOM     13  H   UNL     1       1.032  -7.631   2.086  0.00  0.00    -0.086 HD
ATOM     14  H   UNL     1       0.320  -8.860   2.918  0.00  0.00    -0.086 HD
ENDROOT
BRANCH  11  15
ATOM     15  C   UNL     1      -4.708  -5.168   4.513  0.00  0.00    +0.040 A 
ATOM     16  C   UNL     1      -4.129  -6.203   5.249  0.00  0.00    +0.033 A 
ATOM     17  C   UNL     1      -4.889  -7.297   5.612  0.00  0.00    +0.043 A 
ATOM     18  C   UNL     1      -6.223  -7.369   5.246  0.00  0.00    +0.040 A 
ATOM     19  C   UNL     1      -6.802  -6.345   4.516  0.00  0.00    +0.043 A 
ATOM     20  C   UNL     1      -6.054  -5.243   4.152  0.00  0.00    +0.033 A 
ATOM     21 CL   UNL     1      -8.475  -6.445   4.061  0.00  0.00    -0.083 Cl
ATOM     22 CL   UNL     1      -4.172  -8.586   6.527  0.00  0.00    -0.083 Cl
ENDBRANCH  11  15
BRANCH   1  24
ATOM     23  N   UNL     1       0.203  -3.366   0.555  0.00  0.00    -0.316 N 
ATOM     24  C   UNL     1      -0.802  -3.404   1.452  0.00  0.00    +0.218 C 
ATOM     25  O   UNL     1      -1.946  -3.231   1.090  0.00  0.00    -0.275 OA
ATOM     26  H   UNL     1       1.118  -3.505   0.845  0.00  0.00    +0.149 HD
BRANCH  23  27
ATOM     27  C   UNL     1      -0.088  -3.115  -0.859  0.00  0.00    +0.093 C 
BRANCH  27  28
ATOM     28  C   UNL     1       1.222  -3.080  -1.650  0.00  0.00    -0.021 C 
BRANCH  28  29
ATOM     29  C   UNL     1       1.888  -4.430  -1.580  0.00  0.00    -0.059 A 
ATOM     30  C   UNL     1       2.610  -4.785  -0.456  0.00  0.00    +0.005 A 
ATOM     31  C   UNL     1       3.222  -6.022  -0.390  0.00  0.00    +0.046 A 
ATOM     32  C   UNL     1       3.111  -6.908  -1.452  0.00  0.00    +0.120 A 
ATOM     33  C   UNL     1       2.386  -6.548  -2.579  0.00  0.00    +0.046 A 
ATOM     34  C   UNL     1       1.771  -5.312  -2.638  0.00  0.00    +0.005 A 
BRANCH  32  35
ATOM     35  O   UNL     1       3.713  -8.125  -1.389  0.00  0.00    -0.495 OA
ATOM     36  C   UNL     1       3.556  -8.985  -2.520  0.00  0.00    +0.277 C 
ENDBRANCH  32  35
ENDBRANCH  28  29
BRANCH  28  38
ATOM     37  C   UNL     1       3.396  -2.076  -1.791  0.00  0.00    -0.096 C 
ATOM     38  N   UNL     1       2.113  -2.063  -1.075  0.00  0.00    +0.382 N 
ATOM     39  C   UNL     1       1.493  -0.738  -1.206  0.00  0.00    -0.096 C 
ATOM     40  H   UNL     1       2.270  -2.267  -0.100  0.00  0.00    -0.082 HD
ENDBRANCH  28  38
ENDBRANCH  27  28
ENDBRANCH  23  27
ENDBRANCH   1  24
TORSDOF 7
