REMARK  Name = ZINC38747852
REMARK  8 active torsions:
REMARK  status: ('A' for Active; 'I' for Inactive)
REMARK    1  A    between atoms: C_4  and  C_7
REMARK    2  A    between atoms: C_9  and  C_17
REMARK    3  A    between atoms: C_17  and  C_19
REMARK    4  A    between atoms: C_19  and  O_20
REMARK    5  A    between atoms: O_20  and  C_21
REMARK    6  A    between atoms: C_21  and  C_23
REMARK    7  A    between atoms: C_26  and  N_32
REMARK    8  A    between atoms: C_27  and  N_29
REMARK                            x       y       z     vdW  Elec       q    Type
REMARK                         _______ _______ _______ _____ _____    ______ ____
ROOT
ATOM      1  C   UNL     1       3.799  -0.364  -2.666  0.00  0.00    +0.199 C 
ATOM      2  O   UNL     1       3.459   0.802  -2.683  0.00  0.00    -0.289 OA
ENDROOT
BRANCH   1   4
ATOM      3  C   UNL     1       3.040  -0.673  -0.178  0.00  0.00    +0.144 C 
ATOM      4  C   UNL     1       3.627  -1.132  -1.495  0.00  0.00    +0.034 C 
ATOM      5  C   UNL     1       3.959  -2.462  -1.311  0.00  0.00    +0.007 A 
ATOM      6  C   UNL     1       4.537  -3.436  -2.159  0.00  0.00    +0.010 A 
ATOM      7  C   UNL     1       4.754  -4.691  -1.706  0.00  0.00    +0.001 A 
ATOM      8  C   UNL     1       4.425  -5.089  -0.400  0.00  0.00    +0.002 A 
ATOM      9  C   UNL     1       3.870  -4.236   0.488  0.00  0.00    +0.026 A 
ATOM     10  C   UNL     1       3.600  -2.849   0.076  0.00  0.00    +0.044 A 
ATOM     11  N   UNL     1       3.082  -1.837   0.714  0.00  0.00    -0.373 N 
ATOM     12  H   UNL     1       2.772  -1.850   1.633  0.00  0.00    +0.161 HD
BRANCH   3  16
ATOM     13  C   UNL     1      -0.996   0.609  -0.736  0.00  0.00    +0.000 A 
ATOM     14  C   UNL     1       0.018   1.543  -0.636  0.00  0.00    +0.000 A 
ATOM     15  C   UNL     1       1.324   1.128  -0.456  0.00  0.00    +0.006 A 
ATOM     16  C   UNL     1       1.616  -0.221  -0.374  0.00  0.00    -0.021 A 
ATOM     17  C   UNL     1       0.601  -1.155  -0.473  0.00  0.00    +0.006 A 
ATOM     18  C   UNL     1      -0.705  -0.740  -0.655  0.00  0.00    +0.000 A 
ENDBRANCH   3  16
ENDBRANCH   1   4
BRANCH   1  19
ATOM     19  C   UNL     1       4.405  -0.990  -3.896  0.00  0.00    +0.311 C 
BRANCH  19  20
ATOM     20  O   UNL     1       4.474  -0.017  -4.941  0.00  0.00    -0.453 OA
BRANCH  20  21
ATOM     21  C   UNL     1       4.996  -0.419  -6.117  0.00  0.00    +0.340 C 
ATOM     22  O   UNL     1       5.382  -1.563  -6.251  0.00  0.00    -0.245 OA
BRANCH  21  23
ATOM     23  C   UNL     1       5.098   0.530  -7.240  0.00  0.00    +0.061 A 
ATOM     24  C   UNL     1       4.660   1.849  -7.085  0.00  0.00    +0.017 A 
ATOM     25  C   UNL     1       4.756   2.728  -8.126  0.00  0.00    +0.026 A 
ATOM     26  C   UNL     1       5.289   2.316  -9.344  0.00  0.00    +0.055 A 
ATOM     27  C   UNL     1       5.728   1.004  -9.507  0.00  0.00    +0.147 A 
ATOM     28  C   UNL     1       5.639   0.115  -8.461  0.00  0.00    +0.049 A 
BRANCH  27  29
ATOM     29  N   UNL     1       6.294   0.569 -10.804  0.00  0.00    +0.058 N 
ATOM     30  O   UNL     1       6.067  -0.544 -11.219  0.00  0.00    -0.126 OA
ATOM     31  O   UNL     1       6.983   1.325 -11.447  0.00  0.00    -0.126 OA
ENDBRANCH  27  29
BRANCH  26  32
ATOM     32  N   UNL     1       5.384   3.215 -10.400  0.00  0.00    -0.356 N 
ATOM     33  H   UNL     1       5.186   4.154 -10.256  0.00  0.00    +0.142 HD
ATOM     34  H   UNL     1       5.648   2.904 -11.280  0.00  0.00    +0.142 HD
ENDBRANCH  26  32
ENDBRANCH  21  23
ENDBRANCH  20  21
ENDBRANCH  19  20
ENDBRANCH   1  19
TORSDOF 8
