REMARK  Name = ZINC09422441
REMARK  7 active torsions:
REMARK  status: ('A' for Active; 'I' for Inactive)
REMARK    1  A    between atoms: C_1  and  C_2
REMARK    2  A    between atoms: C_2  and  N_3
REMARK    3  A    between atoms: C_5  and  C_12
REMARK    4  A    between atoms: C_19  and  O_31
REMARK    5  A    between atoms: C_20  and  C_23
REMARK    6  A    between atoms: C_23  and  N_59
REMARK    7  A    between atoms: C_27  and  C_30
REMARK                            x       y       z     vdW  Elec       q    Type
REMARK                         _______ _______ _______ _____ _____    ______ ____
ROOT
ATOM      1  C   UNL     1       0.567   6.313   2.227  0.00  0.00    +0.060 C 
ATOM      2  C   UNL     1       1.621   6.138   3.073  0.00  0.00    +0.176 C 
ATOM      3  C   UNL     1       2.177   4.889   3.458  0.00  0.00    +0.231 C 
ATOM      4  O   UNL     1       1.817   3.778   3.108  0.00  0.00    -0.283 OA
ATOM      5  C   UNL     1       3.285   5.225   4.370  0.00  0.00    +0.068 A 
ATOM      6  C   UNL     1       4.212   4.461   5.077  0.00  0.00    +0.019 A 
ATOM      7  C   UNL     1       5.140   5.077   5.868  0.00  0.00    +0.046 A 
ATOM      8  C   UNL     1       5.163   6.466   5.970  0.00  0.00    +0.122 A 
ATOM      9  C   UNL     1       4.248   7.238   5.273  0.00  0.00    +0.020 A 
ATOM     10  C   UNL     1       3.299   6.627   4.465  0.00  0.00    +0.144 A 
ATOM     11  O   UNL     1       2.310   7.125   3.692  0.00  0.00    -0.451 OA
ENDROOT
BRANCH   1  14
ATOM     12  N   UNL     1      -0.148   3.269   0.344  0.00  0.00    -0.346 N 
ATOM     13  C   UNL     1       0.717   4.137   0.924  0.00  0.00    +0.094 A 
ATOM     14  C   UNL     1       0.012   5.170   1.505  0.00  0.00    +0.004 A 
ATOM     15  C   UNL     1      -1.415   4.887   1.256  0.00  0.00    +0.007 A 
ATOM     16  C   UNL     1      -1.450   3.688   0.527  0.00  0.00    +0.050 A 
ATOM     17  C   UNL     1      -2.679   3.161   0.141  0.00  0.00    +0.026 A 
ATOM     18  C   UNL     1      -3.844   3.817   0.475  0.00  0.00    +0.002 A 
ATOM     19  C   UNL     1      -3.807   5.001   1.195  0.00  0.00    +0.001 A 
ATOM     20  C   UNL     1      -2.599   5.539   1.587  0.00  0.00    +0.010 A 
BRANCH  12  22
ATOM     21  C   UNL     1       0.328   2.346  -1.870  0.00  0.00    +0.027 C 
ATOM     22  C   UNL     1       0.245   2.052  -0.371  0.00  0.00    +0.118 C 
ENDBRANCH  12  22
ENDBRANCH   1  14
BRANCH   8  23
ATOM     23  O   UNL     1       6.090   7.068   6.758  0.00  0.00    -0.506 OA
ATOM     24  H   UNL     1       6.915   7.283   6.302  0.00  0.00    +0.292 HD
ENDBRANCH   8  23
BRANCH   9  25
ATOM     25  C   UNL     1       4.284   8.740   5.391  0.00  0.00    -0.036 C 
BRANCH  25  32
ATOM     26  C   UNL     1       3.958   8.700   7.789  0.00  0.00    -0.078 C 
ATOM     27  C   UNL     1       3.120   9.280   8.931  0.00  0.00    -0.018 C 
ATOM     28  C   UNL     1       1.665   8.831   8.770  0.00  0.00    -0.001 C 
ATOM     29  C   UNL     1       1.147   9.285   7.402  0.00  0.00    -0.031 C 
ATOM     30  C   UNL     1       2.042   8.704   6.305  0.00  0.00    -0.075 C 
ATOM     31  C   UNL     1      -0.286   8.787   7.208  0.00  0.00    +0.005 C 
ATOM     32  N   UNL     1       3.423   9.194   6.503  0.00  0.00    +0.383 N 
ATOM     33  H   UNL     1       3.413  10.221   6.519  0.00  0.00    -0.081 HD
ENDBRANCH  25  32
ENDBRANCH   9  25
TORSDOF 5
