REMARK  Name = ZINC39380990
REMARK  10 active torsions:
REMARK  status: ('A' for Active; 'I' for Inactive)
REMARK    1  A    between atoms: C_1  and  C_2
REMARK    2  A    between atoms: C_2  and  C_3
REMARK    3  A    between atoms: C_2  and  C_4
REMARK    4  A    between atoms: C_2  and  C_5
REMARK    5  A    between atoms: C_5  and  N_6
REMARK    6  A    between atoms: C_12  and  C_14
REMARK    7  A    between atoms: C_14  and  C_15
REMARK    8  A    between atoms: N_17  and  C_18
REMARK    9  A    between atoms: C_18  and  C_19
REMARK   10  A    between atoms: C_24  and  C_25
REMARK                            x       y       z     vdW  Elec       q    Type
REMARK                         _______ _______ _______ _____ _____    ______ ____
ROOT
ATOM      1  C   UNL     1       2.181   1.547  -3.337  0.00  0.00    +0.212 C 
ATOM      2  O   UNL     1       2.898   1.935  -2.439  0.00  0.00    -0.276 OA
ATOM      3  N   UNL     1       1.701   2.424  -4.242  0.00  0.00    -0.314 N 
ATOM      4  H   UNL     1       1.128   2.114  -4.960  0.00  0.00    +0.149 HD
ENDROOT
BRANCH   1   5
ATOM      5  C   UNL     1       1.826   0.086  -3.441  0.00  0.00    +0.089 C 
BRANCH   5  12
ATOM      6  N   UNL     1       1.708  -0.131  -1.007  0.00  0.00    +0.389 N 
ATOM      7  C   UNL     1       2.363  -0.708   0.177  0.00  0.00    -0.059 C 
ATOM      8  C   UNL     1       3.765  -0.110   0.305  0.00  0.00    +0.085 C 
ATOM      9  N   UNL     1       4.475  -0.231  -0.966  0.00  0.00    -0.318 N 
ATOM     10  C   UNL     1       3.846  -0.467  -2.123  0.00  0.00    +0.200 C 
ATOM     11  O   UNL     1       4.504  -0.531  -3.140  0.00  0.00    -0.278 OA
ATOM     12  C   UNL     1       2.358  -0.656  -2.214  0.00  0.00    +0.028 C 
ATOM     13  H   UNL     1       5.440  -0.136  -0.972  0.00  0.00    +0.149 HD
ATOM     14  H   UNL     1       1.794   0.874  -0.987  0.00  0.00    -0.081 HD
BRANCH   6  15
ATOM     15  C   UNL     1       0.286  -0.502  -1.013  0.00  0.00    -0.072 C 
BRANCH  15  17
ATOM     16  C   UNL     1      -0.444   1.879  -0.824  0.00  0.00    +0.009 C 
ATOM     17  C   UNL     1      -0.506   0.498  -0.169  0.00  0.00    -0.052 C 
ATOM     18  C   UNL     1       0.097   0.571   1.235  0.00  0.00    +0.009 C 
ATOM     19  C   UNL     1      -1.964   0.043  -0.075  0.00  0.00    +0.009 C 
ENDBRANCH  15  17
ENDBRANCH   6  15
ENDBRANCH   5  12
ENDBRANCH   1   5
BRANCH   3  20
ATOM     20  C   UNL     1       2.046   3.844  -4.141  0.00  0.00    +0.119 C 
BRANCH  20  21
ATOM     21  C   UNL     1       1.377   4.614  -5.281  0.00  0.00    +0.100 C 
ATOM     22  C   UNL     1       1.996   4.239  -6.613  0.00  0.00    +0.119 C 
ATOM     23  N   UNL     1       2.506   5.327  -7.091  0.00  0.00    -0.161 NA
ATOM     24  N   UNL     1       2.316   6.419  -6.250  0.00  0.00    -0.153 NA
ATOM     25  C   UNL     1       1.661   6.098  -5.163  0.00  0.00    +0.080 C 
BRANCH  25  26
ATOM     26  C   UNL     1       1.281   6.989  -4.056  0.00  0.00    -0.001 A 
ATOM     27  C   UNL     1       0.583   6.482  -2.955  0.00  0.00    +0.012 A 
ATOM     28  C   UNL     1       0.230   7.322  -1.921  0.00  0.00    +0.039 A 
ATOM     29  C   UNL     1       0.564   8.667  -1.971  0.00  0.00    +0.123 A 
ATOM     30  C   UNL     1       1.256   9.175  -3.060  0.00  0.00    +0.039 A 
ATOM     31  C   UNL     1       1.620   8.345  -4.098  0.00  0.00    +0.012 A 
ATOM     32  F   UNL     1       0.214   9.485  -0.955  0.00  0.00    -0.205 F 
ENDBRANCH  25  26
ENDBRANCH  20  21
ENDBRANCH   3  20
TORSDOF 7
