REMARK  Name = ZINC59816734
REMARK  10 active torsions:
REMARK  status: ('A' for Active; 'I' for Inactive)
REMARK    1  A    between atoms: C_1  and  C_2
REMARK    2  A    between atoms: C_2  and  C_3
REMARK    3  A    between atoms: C_2  and  C_4
REMARK    4  A    between atoms: C_2  and  N_5
REMARK    5  A    between atoms: C_6  and  C_8
REMARK    6  A    between atoms: C_8  and  C_9
REMARK    7  A    between atoms: C_9  and  S_10
REMARK    8  A    between atoms: S_10  and  C_11
REMARK    9  A    between atoms: N_16  and  N_17
REMARK   10  A    between atoms: C_18  and  C_19
REMARK                            x       y       z     vdW  Elec       q    Type
REMARK                         _______ _______ _______ _____ _____    ______ ____
ROOT
ATOM      1  C   UNL     1       6.562   0.059  -4.065  0.00  0.00    +0.210 A 
ATOM      2  N   UNL     1       7.553  -0.112  -4.946  0.00  0.00    -0.186 NA
ATOM      3  C   UNL     1       8.630   0.521  -4.530  0.00  0.00    +0.232 A 
ATOM      4  N   UNL     1       8.335   1.117  -3.355  0.00  0.00    -0.245 N 
ATOM      5  N   UNL     1       6.993   0.807  -3.078  0.00  0.00    -0.144 NA
ATOM      6  N   UNL     1       9.849   0.568  -5.182  0.00  0.00    -0.205 N 
ATOM      7  H   UNL     1      10.588   1.063  -4.794  0.00  0.00    +0.177 HD
ATOM      8  H   UNL     1       8.931   1.654  -2.810  0.00  0.00    +0.192 HD
ENDROOT
BRANCH   6   9
ATOM      9  N   UNL     1      10.017  -0.099  -6.402  0.00  0.00    -0.188 NA
ATOM     10  C   UNL     1      11.145  -0.056  -7.005  0.00  0.00    +0.139 C 
BRANCH  10  11
ATOM     11  C   UNL     1      11.322  -0.758  -8.288  0.00  0.00    +0.002 A 
ATOM     12  C   UNL     1      12.576  -0.606  -9.046  0.00  0.00    +0.010 A 
ATOM     13  C   UNL     1      12.745  -1.230 -10.195  0.00  0.00    +0.009 A 
ATOM     14  C   UNL     1      11.670  -2.086 -10.725  0.00  0.00    -0.017 A 
ATOM     15  C   UNL     1      11.828  -2.797 -12.005  0.00  0.00    +0.009 A 
ATOM     16  C   UNL     1      10.854  -3.559 -12.463  0.00  0.00    +0.009 A 
ATOM     17  C   UNL     1       9.605  -3.702 -11.695  0.00  0.00    -0.017 A 
ATOM     18  C   UNL     1       8.505  -4.549 -12.187  0.00  0.00    +0.008 A 
ATOM     19  C   UNL     1       7.399  -4.658 -11.479  0.00  0.00    +0.001 A 
ATOM     20  C   UNL     1       7.254  -3.941 -10.200  0.00  0.00    +0.008 A 
ATOM     21  C   UNL     1       8.235  -3.185  -9.758  0.00  0.00    -0.017 A 
ATOM     22  C   UNL     1       9.469  -3.067 -10.556  0.00  0.00    -0.002 A 
ATOM     23  C   UNL     1      10.556  -2.216 -10.045  0.00  0.00    -0.002 A 
ATOM     24  C   UNL     1      10.362  -1.526  -8.757  0.00  0.00    -0.008 A 
ATOM     25  C   UNL     1       9.099  -1.705  -8.026  0.00  0.00    +0.010 A 
ATOM     26  C   UNL     1       8.126  -2.455  -8.486  0.00  0.00    +0.009 A 
ENDBRANCH  10  11
ENDBRANCH   6   9
BRANCH   1  27
ATOM     27  S   UNL     1       4.937  -0.608  -4.210  0.00  0.00    -0.084 S 
BRANCH  27  28
ATOM     28  C   UNL     1       4.085  -0.015  -2.722  0.00  0.00    +0.086 C 
BRANCH  28  29
ATOM     29  C   UNL     1       2.644  -0.528  -2.720  0.00  0.00    +0.107 C 
BRANCH  29  31
ATOM     30  N   UNL     1       0.648  -0.366  -1.269  0.00  0.00    -0.311 N 
ATOM     31  C   UNL     1       1.937  -0.036  -1.484  0.00  0.00    +0.214 C 
ATOM     32  O   UNL     1       2.527   0.657  -0.683  0.00  0.00    -0.276 OA
ATOM     33  H   UNL     1       0.175  -0.921  -1.910  0.00  0.00    +0.149 HD
BRANCH  30  35
ATOM     34  C   UNL     1      -0.043   1.642  -0.057  0.00  0.00    +0.031 C 
ATOM     35  C   UNL     1      -0.040   0.112  -0.067  0.00  0.00    +0.026 C 
ATOM     36  C   UNL     1       0.686  -0.405   1.176  0.00  0.00    +0.031 C 
ATOM     37  C   UNL     1      -1.481  -0.401  -0.066  0.00  0.00    +0.031 C 
ENDBRANCH  30  35
ENDBRANCH  29  31
ENDBRANCH  28  29
ENDBRANCH  27  28
ENDBRANCH   1  27
TORSDOF 7
