REMARK  Name = ZINC43222910
REMARK  13 active torsions:
REMARK  status: ('A' for Active; 'I' for Inactive)
REMARK    1  A    between atoms: C_1  and  C_2
REMARK    2  A    between atoms: C_2  and  C_4
REMARK    3  A    between atoms: C_2  and  N_10
REMARK    4  A    between atoms: C_4  and  C_5
REMARK    5  A    between atoms: C_5  and  C_6
REMARK    6  A    between atoms: C_6  and  C_7
REMARK    7  A    between atoms: C_7  and  C_8
REMARK    8  A    between atoms: C_7  and  C_9
REMARK    9  A    between atoms: C_11  and  C_13
REMARK   10  A    between atoms: C_18  and  C_20
REMARK   11  A    between atoms: N_22  and  C_23
REMARK   12  A    between atoms: C_23  and  C_25
REMARK   13  A    between atoms: C_23  and  C_26
REMARK                            x       y       z     vdW  Elec       q    Type
REMARK                         _______ _______ _______ _____ _____    ______ ____
ROOT
ATOM      1  C   UNL     1       2.774  -1.044  -2.175  0.00  0.00    +0.068 C 
ATOM      2  C   UNL     1       2.493  -0.026  -3.302  0.00  0.00    -0.069 C 
ATOM      3  N   UNL     1       3.685   0.860  -3.311  0.00  0.00    +0.380 N 
ATOM      4  C   UNL     1       4.827  -0.062  -3.080  0.00  0.00    -0.069 C 
ATOM      5  C   UNL     1       4.309  -1.070  -2.029  0.00  0.00    +0.068 C 
ATOM      6  H   UNL     1       3.777   1.319  -4.205  0.00  0.00    -0.086 HD
ATOM      7  H   UNL     1       3.625   1.540  -2.568  0.00  0.00    -0.086 HD
ENDROOT
BRANCH   1   9
ATOM      8  N   UNL     1       0.793  -0.469  -0.810  0.00  0.00    -0.313 N 
ATOM      9  C   UNL     1       2.133  -0.591  -0.889  0.00  0.00    +0.215 C 
ATOM     10  O   UNL     1       2.823  -0.335   0.075  0.00  0.00    -0.276 OA
ATOM     11  H   UNL     1       0.241  -0.674  -1.581  0.00  0.00    +0.149 HD
BRANCH   8  13
ATOM     12  C   UNL     1       0.165   1.500   0.497  0.00  0.00    +0.028 C 
ATOM     13  C   UNL     1       0.170  -0.029   0.441  0.00  0.00    +0.070 C 
BRANCH  13  14
ATOM     14  C   UNL     1      -1.268  -0.547   0.504  0.00  0.00    +0.022 C 
BRANCH  14  15
ATOM     15  C   UNL     1      -1.258  -2.075   0.573  0.00  0.00    +0.002 C 
BRANCH  15  16
ATOM     16  C   UNL     1      -2.696  -2.593   0.636  0.00  0.00    +0.003 C 
BRANCH  16  17
ATOM     17  C   UNL     1      -2.686  -4.121   0.706  0.00  0.00    -0.017 C 
ATOM     18  C   UNL     1      -2.037  -4.568   2.017  0.00  0.00    +0.007 C 
ATOM     19  C   UNL     1      -4.122  -4.644   0.643  0.00  0.00    +0.007 C 
ENDBRANCH  16  17
ENDBRANCH  15  16
ENDBRANCH  14  15
ENDBRANCH  13  14
ENDBRANCH   8  13
ENDBRANCH   1   9
BRANCH   5  20
ATOM     20  C   UNL     1       4.839  -2.450  -2.319  0.00  0.00    +0.215 C 
ATOM     21  O   UNL     1       4.074  -3.343  -2.617  0.00  0.00    -0.276 OA
ATOM     22  N   UNL     1       6.163  -2.693  -2.248  0.00  0.00    -0.309 N 
ATOM     23  H   UNL     1       6.775  -1.979  -2.009  0.00  0.00    +0.149 HD
BRANCH  22  24
ATOM     24  C   UNL     1       6.678  -4.035  -2.530  0.00  0.00    +0.101 C 
ATOM     25  C   UNL     1       6.654  -4.870  -1.248  0.00  0.00    +0.033 C 
BRANCH  24  26
ATOM     26  C   UNL     1       8.094  -3.933  -3.037  0.00  0.00    -0.020 A 
ATOM     27  C   UNL     1       8.876  -2.879  -2.675  0.00  0.00    +0.006 A 
ATOM     28  C   UNL     1      10.187  -2.768  -3.134  0.00  0.00    +0.001 A 
ATOM     29  C   UNL     1      10.724  -3.710  -3.957  0.00  0.00    +0.008 A 
ATOM     30  C   UNL     1       9.947  -4.812  -4.352  0.00  0.00    -0.018 A 
ATOM     31  C   UNL     1       8.615  -4.929  -3.880  0.00  0.00    -0.013 A 
ATOM     32  C   UNL     1       7.840  -6.035  -4.270  0.00  0.00    +0.009 A 
ATOM     33  C   UNL     1       8.379  -6.979  -5.088  0.00  0.00    +0.001 A 
ATOM     34  C   UNL     1       9.690  -6.869  -5.546  0.00  0.00    +0.001 A 
ATOM     35  C   UNL     1      10.466  -5.805  -5.201  0.00  0.00    +0.008 A 
ENDBRANCH  24  26
ENDBRANCH  22  24
ENDBRANCH   5  20
TORSDOF 9
