REMARK  Name = ZINC01869234
REMARK  16 active torsions:
REMARK  status: ('A' for Active; 'I' for Inactive)
REMARK    1  A    between atoms: C_1  and  C_2
REMARK    2  A    between atoms: C_2  and  O_3
REMARK    3  A    between atoms: O_3  and  C_4
REMARK    4  A    between atoms: C_4  and  C_6
REMARK    5  A    between atoms: C_7  and  C_39
REMARK    6  A    between atoms: C_8  and  C_32
REMARK    7  A    between atoms: C_10  and  N_11
REMARK    8  A    between atoms: N_11  and  C_12
REMARK    9  A    between atoms: C_13  and  C_14
REMARK   10  A    between atoms: C_13  and  C_16
REMARK   11  A    between atoms: C_18  and  C_21
REMARK   12  A    between atoms: C_32  and  O_34
REMARK   13  A    between atoms: O_34  and  C_35
REMARK   14  A    between atoms: C_35  and  C_36
REMARK   15  A    between atoms: C_35  and  C_37
REMARK   16  A    between atoms: C_35  and  C_38
REMARK                            x       y       z     vdW  Elec       q    Type
REMARK                         _______ _______ _______ _____ _____    ______ ____
ROOT
ATOM      1  N   UNL     1      -3.040  -2.519   2.502  0.00  0.00    -0.313 N 
ATOM      2  H   UNL     1      -2.163  -2.135   2.652  0.00  0.00    +0.152 HD
ENDROOT
BRANCH   1   7
ATOM      3  C   UNL     1      -2.845  -2.413   0.017  0.00  0.00    +0.091 A 
ATOM      4  C   UNL     1      -3.511  -2.702  -1.166  0.00  0.00    -0.014 A 
ATOM      5  C   UNL     1      -4.759  -3.253  -1.041  0.00  0.00    +0.102 A 
ATOM      6  S   UNL     1      -4.970  -3.351   0.726  0.00  0.00    -0.066 S 
ATOM      7  C   UNL     1      -3.497  -2.710   1.216  0.00  0.00    +0.084 A 
ATOM      8  C   UNL     1      -2.895  -2.426  -2.513  0.00  0.00    +0.046 C 
BRANCH   3   9
ATOM      9  C   UNL     1      -1.502  -1.822   0.008  0.00  0.00    +0.342 C 
ATOM     10  O   UNL     1      -0.522  -2.541  -0.004  0.00  0.00    -0.245 OA
BRANCH   9  11
ATOM     11  O   UNL     1      -1.356  -0.481   0.012  0.00  0.00    -0.461 OA
BRANCH  11  13
ATOM     12  C   UNL     1      -0.053   1.554   0.009  0.00  0.00    +0.048 C 
ATOM     13  C   UNL     1      -0.019   0.025   0.003  0.00  0.00    +0.229 C 
ENDBRANCH  11  13
ENDBRANCH   9  11
ENDBRANCH   3   9
BRANCH   5  14
ATOM     14  C   UNL     1      -5.688  -3.658  -2.095  0.00  0.00    +0.347 C 
ATOM     15  O   UNL     1      -5.380  -3.518  -3.263  0.00  0.00    -0.244 OA
BRANCH  14  16
ATOM     16  O   UNL     1      -6.886  -4.187  -1.771  0.00  0.00    -0.455 OA
BRANCH  16  17
ATOM     17  C   UNL     1      -7.744  -4.560  -2.852  0.00  0.00    +0.106 C 
ATOM     18  C   UNL     1      -7.048  -5.615  -3.714  0.00  0.00    +0.055 C 
ATOM     19  C   UNL     1      -9.047  -5.136  -2.294  0.00  0.00    +0.055 C 
ATOM     20  C   UNL     1      -8.055  -3.329  -3.705  0.00  0.00    +0.055 C 
ENDBRANCH  16  17
ENDBRANCH  14  16
ENDBRANCH   5  14
ENDBRANCH   1   7
BRANCH   1  21
ATOM     21  C   UNL     1      -3.824  -2.873   3.567  0.00  0.00    +0.094 C 
ATOM     22  C   UNL     1      -3.332  -2.786   4.834  0.00  0.00    +0.098 C 
BRANCH  22  23
ATOM     23  C   UNL     1      -1.992  -2.213   5.067  0.00  0.00    +0.120 A 
ATOM     24  N   UNL     1      -0.828  -2.563   4.541  0.00  0.00    -0.238 NA
ATOM     25  C   UNL     1       0.288  -1.933   4.866  0.00  0.00    +0.086 A 
ATOM     26  C   UNL     1       0.239  -0.899   5.764  0.00  0.00    +0.075 A 
ATOM     27  S   UNL     1      -1.511  -0.857   6.128  0.00  0.00    -0.074 S 
BRANCH  25  28
ATOM     28  C   UNL     1       1.580  -2.342   4.266  0.00  0.00    +0.086 A 
ATOM     29  C   UNL     1       1.653  -3.372   3.359  0.00  0.00    +0.028 A 
ATOM     30  C   UNL     1       2.974  -3.704   2.820  0.00  0.00    +0.018 A 
ATOM     31  C   UNL     1       3.106  -4.546   1.710  0.00  0.00    +0.011 A 
ATOM     32  C   UNL     1       4.350  -4.837   1.225  0.00  0.00    +0.001 A 
ATOM     33  C   UNL     1       5.483  -4.306   1.825  0.00  0.00    +0.004 A 
ATOM     34  C   UNL     1       5.375  -3.474   2.921  0.00  0.00    +0.047 A 
ATOM     35  C   UNL     1       4.122  -3.166   3.431  0.00  0.00    +0.139 A 
ATOM     36  O   UNL     1       3.992  -2.357   4.510  0.00  0.00    -0.422 OA
ATOM     37  C   UNL     1       2.837  -1.656   4.612  0.00  0.00    +0.347 A 
ATOM     38  O   UNL     1       2.836  -0.497   4.982  0.00  0.00    -0.244 OA
ENDBRANCH  25  28
ENDBRANCH  22  23
BRANCH  22  39
ATOM     39  C   UNL     1      -4.114  -3.250   5.939  0.00  0.00    +0.103 C 
ATOM     40  N   UNL     1      -4.735  -3.618   6.817  0.00  0.00    -0.191 NA
ENDBRANCH  22  39
ENDBRANCH   1  21
TORSDOF 11
