REMARK  Name = ZINC15856687
REMARK  6 active torsions:
REMARK  status: ('A' for Active; 'I' for Inactive)
REMARK    1  A    between atoms: C_4  and  N_7
REMARK    2  A    between atoms: C_11  and  C_12
REMARK    3  A    between atoms: C_14  and  N_27
REMARK    4  A    between atoms: C_17  and  O_18
REMARK    5  A    between atoms: O_18  and  C_19
REMARK    6  A    between atoms: C_19  and  C_20
REMARK                            x       y       z     vdW  Elec       q    Type
REMARK                         _______ _______ _______ _____ _____    ______ ____
ROOT
ATOM      1  C   UNL     1       0.788   6.054  -0.069  0.00  0.00    +0.020 A 
ATOM      2  C   UNL     1      -0.605   6.213  -0.056  0.00  0.00    +0.044 A 
ATOM      3  C   UNL     1      -1.151   7.474  -0.130  0.00  0.00    +0.127 A 
ATOM      4  C   UNL     1      -0.332   8.589  -0.226  0.00  0.00    +0.036 A 
ATOM      5  C   UNL     1       1.042   8.449  -0.245  0.00  0.00    +0.048 A 
ATOM      6  C   UNL     1       1.615   7.189  -0.168  0.00  0.00    +0.128 A 
ENDROOT
BRANCH   1  11
ATOM      7  N   UNL     1       0.383   1.594  -1.484  0.00  0.00    -0.184 N 
ATOM      8  C   UNL     1       1.184   2.245  -0.620  0.00  0.00    +0.272 C 
ATOM      9  O   UNL     1       2.041   1.751   0.087  0.00  0.00    -0.268 OA
ATOM     10  C   UNL     1       0.823   3.674  -0.695  0.00  0.00    +0.102 C 
ATOM     11  C   UNL     1       1.379   4.718   0.013  0.00  0.00    +0.030 C 
ATOM     12  C   UNL     1      -0.263   3.743  -1.693  0.00  0.00    +0.266 C 
ATOM     13  O   UNL     1      -0.850   4.745  -2.057  0.00  0.00    -0.268 OA
ATOM     14  N   UNL     1      -0.475   2.487  -2.127  0.00  0.00    -0.223 N 
ATOM     15  H   UNL     1      -1.135   2.236  -2.792  0.00  0.00    +0.174 HD
BRANCH   7  19
ATOM     16  C   UNL     1       0.468  -2.515  -2.160  0.00  0.00    +0.000 A 
ATOM     17  C   UNL     1      -0.430  -1.721  -2.849  0.00  0.00    +0.002 A 
ATOM     18  C   UNL     1      -0.462  -0.358  -2.627  0.00  0.00    +0.025 A 
ATOM     19  C   UNL     1       0.411   0.214  -1.711  0.00  0.00    +0.056 A 
ATOM     20  C   UNL     1       1.316  -0.585  -1.024  0.00  0.00    +0.025 A 
ATOM     21  C   UNL     1       1.337  -1.948  -1.247  0.00  0.00    +0.002 A 
ENDBRANCH   7  19
ENDBRANCH   1  11
BRANCH   3  22
ATOM     22  N   UNL     1      -2.622   7.641  -0.111  0.00  0.00    +0.056 N 
ATOM     23  O   UNL     1      -3.109   8.755  -0.181  0.00  0.00    -0.126 OA
ATOM     24  O   UNL     1      -3.345   6.665  -0.027  0.00  0.00    -0.126 OA
ENDBRANCH   3  22
BRANCH   6  25
ATOM     25  O   UNL     1       2.963   7.051  -0.186  0.00  0.00    -0.487 OA
BRANCH  25  26
ATOM     26  C   UNL     1       3.737   8.248  -0.288  0.00  0.00    +0.264 C 
BRANCH  26  27
ATOM     27  C   UNL     1       5.203   7.900  -0.294  0.00  0.00    -0.010 A 
ATOM     28  C   UNL     1       5.901   7.832   0.897  0.00  0.00    +0.010 A 
ATOM     29  C   UNL     1       7.245   7.508   0.893  0.00  0.00    +0.039 A 
ATOM     30  C   UNL     1       7.894   7.262  -0.305  0.00  0.00    +0.123 A 
ATOM     31  C   UNL     1       7.194   7.336  -1.497  0.00  0.00    +0.039 A 
ATOM     32  C   UNL     1       5.850   7.655  -1.491  0.00  0.00    +0.010 A 
ATOM     33  F   UNL     1       9.208   6.950  -0.310  0.00  0.00    -0.205 F 
ENDBRANCH  26  27
ENDBRANCH  25  26
ENDBRANCH   6  25
TORSDOF 6
