REMARK  Name = ZINC09577486
REMARK  7 active torsions:
REMARK  status: ('A' for Active; 'I' for Inactive)
REMARK    1  A    between atoms: C_1  and  N_52
REMARK    2  A    between atoms: C_2  and  C_3
REMARK    3  A    between atoms: C_2  and  N_52
REMARK    4  A    between atoms: C_9  and  C_10
REMARK    5  A    between atoms: C_9  and  N_52
REMARK    6  A    between atoms: C_11  and  O_31
REMARK    7  A    between atoms: C_18  and  C_19
REMARK                            x       y       z     vdW  Elec       q    Type
REMARK                         _______ _______ _______ _____ _____    ______ ____
ROOT
ATOM      1  C   UNL     1       6.604  -1.069  -0.066  0.00  0.00    +0.020 A 
ATOM      2  C   UNL     1       7.716  -1.894  -0.081  0.00  0.00    +0.122 A 
ATOM      3  C   UNL     1       7.571  -3.278  -0.088  0.00  0.00    +0.046 A 
ATOM      4  C   UNL     1       6.325  -3.838  -0.080  0.00  0.00    +0.019 A 
ATOM      5  C   UNL     1       5.195  -3.019  -0.064  0.00  0.00    +0.068 A 
ATOM      6  C   UNL     1       5.329  -1.621  -0.057  0.00  0.00    +0.144 A 
ATOM      7  O   UNL     1       4.106  -1.048  -0.042  0.00  0.00    -0.451 OA
ATOM      8  C   UNL     1       3.117  -1.972  -0.039  0.00  0.00    +0.179 C 
ATOM      9  C   UNL     1       1.779  -1.718  -0.025  0.00  0.00    +0.096 C 
ATOM     10  C   UNL     1       3.748  -3.298  -0.047  0.00  0.00    +0.232 C 
ATOM     11  O   UNL     1       3.197  -4.386  -0.043  0.00  0.00    -0.283 OA
ENDROOT
BRANCH   9  12
ATOM     12  C   UNL     1       1.312  -0.381  -0.013  0.00  0.00    +0.133 A 
ATOM     13  C   UNL     1       0.002  -0.004   0.002  0.00  0.00    +0.058 A 
ATOM     14  C   UNL     1      -0.017   1.413   0.010  0.00  0.00    +0.022 A 
ATOM     15  C   UNL     1      -1.041   2.367   0.030  0.00  0.00    +0.027 A 
ATOM     16  C   UNL     1      -0.729   3.697   0.030  0.00  0.00    +0.019 A 
ATOM     17  C   UNL     1       0.598   4.110   0.019  0.00  0.00    +0.019 A 
ATOM     18  C   UNL     1       1.621   3.186   0.004  0.00  0.00    +0.048 A 
ATOM     19  C   UNL     1       1.328   1.828  -0.001  0.00  0.00    +0.136 A 
ATOM     20  O   UNL     1       2.096   0.719  -0.014  0.00  0.00    -0.455 OA
ATOM     21 BR   UNL     1      -2.112   4.987   0.050  0.00  0.00    -0.050 Br
ENDBRANCH   9  12
BRANCH   2  22
ATOM     22  O   UNL     1       8.959  -1.348  -0.090  0.00  0.00    -0.506 OA
ATOM     23  H   UNL     1       9.328  -1.194   0.790  0.00  0.00    +0.292 HD
ENDBRANCH   2  22
BRANCH   1  24
ATOM     24  C   UNL     1       6.776   0.428  -0.057  0.00  0.00    -0.035 C 
BRANCH  24  26
ATOM     25  C   UNL     1       8.057   0.411   1.997  0.00  0.00    -0.095 C 
ATOM     26  N   UNL     1       6.822   0.895   1.344  0.00  0.00    +0.383 N 
ATOM     27  H   UNL     1       6.010   0.521   1.848  0.00  0.00    -0.081 HD
BRANCH  26  28
ATOM     28  C   UNL     1       6.774   2.372   1.387  0.00  0.00    -0.043 C 
BRANCH  28  29
ATOM     29  C   UNL     1       6.601   2.812   2.817  0.00  0.00    -0.064 A 
ATOM     30  C   UNL     1       5.332   2.967   3.344  0.00  0.00    +0.002 A 
ATOM     31  C   UNL     1       5.173   3.366   4.658  0.00  0.00    +0.000 A 
ATOM     32  C   UNL     1       6.283   3.620   5.442  0.00  0.00    +0.000 A 
ATOM     33  C   UNL     1       7.551   3.470   4.914  0.00  0.00    +0.000 A 
ATOM     34  C   UNL     1       7.710   3.066   3.602  0.00  0.00    +0.002 A 
ENDBRANCH  28  29
ENDBRANCH  26  28
ENDBRANCH  24  26
ENDBRANCH   1  24
TORSDOF 6
