REMARK  Name = ZINC01077209
REMARK  5 active torsions:
REMARK  status: ('A' for Active; 'I' for Inactive)
REMARK    1  A    between atoms: C_1  and  C_2
REMARK    2  A    between atoms: C_5  and  C_8
REMARK    3  A    between atoms: C_13  and  C_23
REMARK    4  A    between atoms: C_26  and  S_29
REMARK    5  A    between atoms: S_29  and  C_30
REMARK                            x       y       z     vdW  Elec       q    Type
REMARK                         _______ _______ _______ _____ _____    ______ ____
ROOT
ATOM      1  C   UNL     1      -4.929   5.616  -1.452  0.00  0.00    +0.032 C 
ATOM      2  C   UNL     1      -4.234   4.323  -1.029  0.00  0.00    +0.059 C 
ATOM      3  C   UNL     1      -2.769   4.597  -0.729  0.00  0.00    +0.017 C 
ATOM      4  C   UNL     1      -2.101   5.543  -1.409  0.00  0.00    +0.036 C 
ATOM      5  C   UNL     1      -0.643   5.899  -1.233  0.00  0.00    +0.136 C 
ATOM      6  N   UNL     1      -0.023   5.316  -0.062  0.00  0.00    -0.331 N 
ATOM      7  C   UNL     1       0.123   3.936   0.063  0.00  0.00    +0.049 A 
ATOM      8  C   UNL     1       1.373   3.338   0.047  0.00  0.00    +0.025 A 
ATOM      9  C   UNL     1       1.468   1.959   0.112  0.00  0.00    +0.002 A 
ATOM     10  C   UNL     1       0.327   1.180   0.178  0.00  0.00    +0.002 A 
ATOM     11  C   UNL     1      -0.923   1.774   0.192  0.00  0.00    +0.025 A 
ATOM     12  C   UNL     1      -1.019   3.155   0.159  0.00  0.00    +0.052 A 
ATOM     13  N   UNL     1      -2.238   3.819   0.249  0.00  0.00    -0.316 N 
ATOM     14  C   UNL     1      -2.763   6.317  -2.391  0.00  0.00    +0.163 C 
ATOM     15  O   UNL     1      -2.130   7.155  -3.001  0.00  0.00    -0.292 OA
ATOM     16  C   UNL     1      -4.218   6.139  -2.706  0.00  0.00    +0.088 C 
ATOM     17  H   UNL     1       0.297   5.896   0.646  0.00  0.00    +0.147 HD
ATOM     18  H   UNL     1      -2.745   3.718   1.069  0.00  0.00    +0.152 HD
ENDROOT
BRANCH   1  23
ATOM     19  C   UNL     1     -10.482   4.552  -2.646  0.00  0.00    +0.044 C 
ATOM     20  C   UNL     1      -9.034   4.830  -2.335  0.00  0.00    -0.050 A 
ATOM     21  C   UNL     1      -8.700   5.751  -1.359  0.00  0.00    +0.003 A 
ATOM     22  C   UNL     1      -7.372   6.005  -1.074  0.00  0.00    +0.004 A 
ATOM     23  C   UNL     1      -6.377   5.338  -1.763  0.00  0.00    -0.043 A 
ATOM     24  C   UNL     1      -6.710   4.421  -2.743  0.00  0.00    +0.004 A 
ATOM     25  C   UNL     1      -8.038   4.164  -3.025  0.00  0.00    +0.003 A 
ENDBRANCH   1  23
BRANCH   5  26
ATOM     26  C   UNL     1       0.109   5.435  -2.454  0.00  0.00    -0.023 A 
ATOM     27  C   UNL     1       0.699   6.362  -3.294  0.00  0.00    +0.007 A 
ATOM     28  C   UNL     1       1.394   5.941  -4.410  0.00  0.00    +0.015 A 
ATOM     29  C   UNL     1       1.490   4.585  -4.696  0.00  0.00    +0.008 A 
ATOM     30  C   UNL     1       0.892   3.656  -3.852  0.00  0.00    +0.015 A 
ATOM     31  C   UNL     1       0.203   4.085  -2.735  0.00  0.00    +0.007 A 
BRANCH  29  32
ATOM     32  S   UNL     1       2.371   4.043  -6.122  0.00  0.00    -0.129 S 
ATOM     33  C   UNL     1       2.957   5.580  -6.886  0.00  0.00    +0.090 C 
ENDBRANCH  29  32
ENDBRANCH   5  26
TORSDOF 3
