REMARK  Name = ZINC43434670
REMARK  6 active torsions:
REMARK  status: ('A' for Active; 'I' for Inactive)
REMARK    1  A    between atoms: C_1  and  C_2
REMARK    2  A    between atoms: C_4  and  N_8
REMARK    3  A    between atoms: N_5  and  C_7
REMARK    4  A    between atoms: N_11  and  C_12
REMARK    5  A    between atoms: C_12  and  C_14
REMARK    6  A    between atoms: C_12  and  C_15
REMARK                            x       y       z     vdW  Elec       q    Type
REMARK                         _______ _______ _______ _____ _____    ______ ____
ROOT
ATOM      1  N   UNL     1       0.039  -3.240  -1.543  0.00  0.00    -0.254 N 
ATOM      2  C   UNL     1       0.031  -3.097  -2.884  0.00  0.00    +0.305 C 
ATOM      3  O   UNL     1       0.014  -1.986  -3.376  0.00  0.00    -0.252 OA
ATOM      4  N   UNL     1       0.041  -4.186  -3.677  0.00  0.00    -0.293 N 
ATOM      5  H   UNL     1       0.052  -4.127  -1.150  0.00  0.00    +0.158 HD
ATOM      6  H   UNL     1       0.055  -5.073  -3.284  0.00  0.00    +0.151 HD
ENDROOT
BRANCH   1  10
ATOM      7  C   UNL     1      -0.018   1.503   0.010  0.00  0.00    +0.067 C 
ATOM      8  C   UNL     1       0.002  -0.004   0.002  0.00  0.00    +0.062 A 
ATOM      9  C   UNL     1       0.008  -0.816  -1.135  0.00  0.00    +0.068 A 
ATOM     10  C   UNL     1       0.027  -2.113  -0.722  0.00  0.00    +0.124 A 
ATOM     11  N   UNL     1       0.034  -2.110   0.631  0.00  0.00    -0.253 N 
ATOM     12  N   UNL     1       0.023  -0.776   1.058  0.00  0.00    -0.175 NA
ATOM     13  C   UNL     1       0.053  -3.292   1.495  0.00  0.00    +0.174 C 
ENDBRANCH   1  10
BRANCH   4  14
ATOM     14  C   UNL     1       0.033  -4.031  -5.134  0.00  0.00    +0.102 C 
ATOM     15  C   UNL     1      -1.409  -3.871  -5.621  0.00  0.00    +0.033 C 
BRANCH  14  16
ATOM     16  C   UNL     1       0.646  -5.250  -5.773  0.00  0.00    -0.027 A 
ATOM     17  C   UNL     1       0.370  -6.509  -5.273  0.00  0.00    +0.006 A 
ATOM     18  C   UNL     1       0.938  -7.620  -5.861  0.00  0.00    +0.004 A 
ATOM     19  C   UNL     1       1.785  -7.485  -6.953  0.00  0.00    -0.044 A 
ATOM     20  C   UNL     1       2.057  -6.232  -7.455  0.00  0.00    -0.044 A 
ATOM     21  C   UNL     1       1.482  -5.114  -6.862  0.00  0.00    +0.009 A 
ATOM     22  C   UNL     1       2.952  -6.011  -8.645  0.00  0.00    +0.035 C 
ATOM     23  C   UNL     1       3.817  -7.244  -8.903  0.00  0.00    +0.005 C 
ATOM     24  C   UNL     1       2.903  -8.475  -8.951  0.00  0.00    +0.005 C 
ATOM     25  C   UNL     1       2.377  -8.739  -7.542  0.00  0.00    +0.035 C 
ENDBRANCH  14  16
ENDBRANCH   4  14
TORSDOF 3
