REMARK  Name = ZINC20238881
REMARK  8 active torsions:
REMARK  status: ('A' for Active; 'I' for Inactive)
REMARK    1  A    between atoms: C_4  and  O_7
REMARK    2  A    between atoms: O_7  and  C_8
REMARK    3  A    between atoms: C_8  and  C_9
REMARK    4  A    between atoms: C_9  and  S_10
REMARK    5  A    between atoms: S_10  and  C_11
REMARK    6  A    between atoms: C_17  and  C_18
REMARK    7  A    between atoms: C_21  and  S_23
REMARK    8  A    between atoms: S_23  and  C_24
REMARK                            x       y       z     vdW  Elec       q    Type
REMARK                         _______ _______ _______ _____ _____    ______ ____
ROOT
ATOM      1  C   UNL     1       6.433  -4.108   0.981  0.00  0.00    +0.156 C 
ATOM      2  N   UNL     1       7.535  -3.404   0.903  0.00  0.00    -0.158 NA
ATOM      3  N   UNL     1       8.761  -3.970   1.179  0.00  0.00    -0.151 N 
ATOM      4  C   UNL     1       9.994  -3.286   1.216  0.00  0.00    +0.153 C 
ATOM      5  N   UNL     1      10.094  -1.994   1.411  0.00  0.00    -0.283 NA
ATOM      6  C   UNL     1      11.168  -4.174   1.014  0.00  0.00    +0.084 C 
ATOM      7  C   UNL     1      12.316  -3.732   0.363  0.00  0.00    +0.063 C 
ATOM      8  C   UNL     1      11.053  -5.550   1.540  0.00  0.00    +0.273 C 
ATOM      9  O   UNL     1      12.047  -6.193   1.841  0.00  0.00    -0.268 OA
ATOM     10  N   UNL     1       9.818  -6.076   1.679  0.00  0.00    -0.152 NA
ATOM     11  C   UNL     1       8.773  -5.316   1.470  0.00  0.00    +0.181 C 
ATOM     12  S   UNL     1       7.045  -5.715   1.469  0.00  0.00    -0.027 S 
ATOM     13  H   UNL     1       9.295  -1.459   1.538  0.00  0.00    +0.188 HD
ENDROOT
BRANCH   7  14
ATOM     14  C   UNL     1      12.342  -2.465  -0.226  0.00  0.00    +0.130 A 
ATOM     15  C   UNL     1      13.457  -1.844  -0.779  0.00  0.00    +0.050 A 
ATOM     16  C   UNL     1      13.035  -0.604  -1.247  0.00  0.00    +0.057 A 
ATOM     17  C   UNL     1      11.687  -0.502  -0.969  0.00  0.00    +0.162 A 
ATOM     18  O   UNL     1      11.286  -1.629  -0.361  0.00  0.00    -0.449 OA
BRANCH  17  19
ATOM     19  S   UNL     1      10.660   0.878  -1.354  0.00  0.00    -0.085 S 
BRANCH  19  20
ATOM     20  C   UNL     1       8.976   0.208  -1.273  0.00  0.00    +0.054 C 
ATOM     21  C   UNL     1       8.704  -0.640  -2.517  0.00  0.00    +0.014 C 
ATOM     22  C   UNL     1       7.284  -1.205  -2.448  0.00  0.00    +0.001 C 
ATOM     23  C   UNL     1       6.279  -0.053  -2.386  0.00  0.00    +0.000 C 
ATOM     24  C   UNL     1       6.551   0.795  -1.142  0.00  0.00    +0.001 C 
ATOM     25  C   UNL     1       7.971   1.360  -1.210  0.00  0.00    +0.014 C 
ENDBRANCH  19  20
ENDBRANCH  17  19
ENDBRANCH   7  14
BRANCH   1  26
ATOM     26  S   UNL     1       4.772  -3.599   0.688  0.00  0.00    -0.094 S 
BRANCH  26  27
ATOM     27  C   UNL     1       4.905  -1.813   0.398  0.00  0.00    +0.117 C 
BRANCH  27  28
ATOM     28  C   UNL     1       3.514  -1.236   0.128  0.00  0.00    +0.240 C 
BRANCH  28  29
ATOM     29  O   UNL     1       3.618   0.171  -0.101  0.00  0.00    -0.491 OA
BRANCH  29  33
ATOM     30  C   UNL     1       0.116   2.207  -0.883  0.00  0.00    +0.000 A 
ATOM     31  C   UNL     1       1.319   2.889  -0.851  0.00  0.00    +0.004 A 
ATOM     32  C   UNL     1       2.493   2.209  -0.590  0.00  0.00    +0.045 A 
ATOM     33  C   UNL     1       2.465   0.842  -0.358  0.00  0.00    +0.121 A 
ATOM     34  C   UNL     1       1.257   0.160  -0.390  0.00  0.00    +0.045 A 
ATOM     35  C   UNL     1       0.086   0.844  -0.652  0.00  0.00    +0.004 A 
ENDBRANCH  29  33
ENDBRANCH  28  29
ENDBRANCH  27  28
ENDBRANCH  26  27
ENDBRANCH   1  26
TORSDOF 8
