REMARK  Name = ZINC13305259
REMARK  7 active torsions:
REMARK  status: ('A' for Active; 'I' for Inactive)
REMARK    1  A    between atoms: C_3  and  C_7
REMARK    2  A    between atoms: C_7  and  C_9
REMARK    3  A    between atoms: C_11  and  C_23
REMARK    4  A    between atoms: C_17  and  C_18
REMARK    5  A    between atoms: C_17  and  O_22
REMARK    6  A    between atoms: C_26  and  O_29
REMARK    7  A    between atoms: O_29  and  C_30
REMARK                            x       y       z     vdW  Elec       q    Type
REMARK                         _______ _______ _______ _____ _____    ______ ____
ROOT
ATOM      1  C   UNL     1      -2.707  -0.267   0.307  0.00  0.00    +0.144 C 
ATOM      2  C   UNL     1      -3.866  -0.578  -0.645  0.00  0.00    +0.120 C 
ATOM      3  N   UNL     1      -4.225  -1.991  -0.518  0.00  0.00    -0.292 N 
ATOM      4  C   UNL     1      -4.044  -2.656   0.633  0.00  0.00    +0.302 C 
ATOM      5  O   UNL     1      -4.370  -3.826   0.689  0.00  0.00    -0.253 OA
ATOM      6  N   UNL     1      -3.518  -2.081   1.725  0.00  0.00    -0.264 N 
ATOM      7  C   UNL     1      -3.117  -0.673   1.726  0.00  0.00    +0.243 C 
ATOM      8  H   UNL     1      -4.603  -2.457  -1.281  0.00  0.00    +0.151 HD
ATOM      9  H   UNL     1      -3.400  -2.609   2.530  0.00  0.00    +0.153 HD
ENDROOT
BRANCH   2  10
ATOM     10  C   UNL     1      -5.054   0.278  -0.289  0.00  0.00    -0.026 A 
ATOM     11  C   UNL     1      -6.079  -0.247   0.476  0.00  0.00    +0.009 A 
ATOM     12  C   UNL     1      -7.166   0.538   0.808  0.00  0.00    +0.046 A 
ATOM     13  C   UNL     1      -7.234   1.851   0.365  0.00  0.00    +0.127 A 
ATOM     14  C   UNL     1      -6.207   2.374  -0.407  0.00  0.00    +0.046 A 
ATOM     15  C   UNL     1      -5.119   1.586  -0.732  0.00  0.00    +0.009 A 
BRANCH  13  16
ATOM     16  O   UNL     1      -8.305   2.623   0.686  0.00  0.00    -0.434 OA
BRANCH  16  17
ATOM     17  C   UNL     1      -9.325   2.019   1.484  0.00  0.00    +0.541 C 
ATOM     18  F   UNL     1      -9.850   0.911   0.810  0.00  0.00    -0.166 F 
ATOM     19  F   UNL     1      -8.779   1.606   2.704  0.00  0.00    -0.166 F 
ENDBRANCH  16  17
ENDBRANCH  13  16
ENDBRANCH   2  10
BRANCH   7  20
ATOM     20  C   UNL     1      -1.934  -0.479   2.676  0.00  0.00    +0.436 C 
ATOM     21  F   UNL     1      -1.449   0.827   2.555  0.00  0.00    -0.166 F 
ATOM     22  F   UNL     1      -2.352  -0.701   3.993  0.00  0.00    -0.166 F 
ATOM     23  F   UNL     1      -0.920  -1.386   2.350  0.00  0.00    -0.166 F 
ENDBRANCH   7  20
BRANCH   1  24
ATOM     24  C   UNL     1      -1.486  -1.047  -0.110  0.00  0.00    +0.174 C 
ATOM     25  O   UNL     1      -1.446  -2.247   0.061  0.00  0.00    -0.291 OA
BRANCH  24  28
ATOM     26  C   UNL     1       1.869  -0.355  -1.631  0.00  0.00    +0.020 A 
ATOM     27  C   UNL     1       0.824  -1.055  -1.055  0.00  0.00    +0.014 A 
ATOM     28  C   UNL     1      -0.344  -0.352  -0.725  0.00  0.00    +0.036 A 
ATOM     29  C   UNL     1      -0.403   1.019  -0.990  0.00  0.00    +0.122 A 
ATOM     30  N   UNL     1       0.620   1.639  -1.540  0.00  0.00    -0.263 NA
ATOM     31  C   UNL     1       1.730   1.002  -1.861  0.00  0.00    +0.111 A 
ENDBRANCH  24  28
ENDBRANCH   1  24
BRANCH   7  32
ATOM     32  O   UNL     1      -4.215   0.135   2.156  0.00  0.00    -0.364 OA
ATOM     33  H   UNL     1      -4.527  -0.068   3.048  0.00  0.00    +0.212 HD
ENDBRANCH   7  32
TORSDOF 7
