REMARK  Name = ZINC66802972
REMARK  4 active torsions:
REMARK  status: ('A' for Active; 'I' for Inactive)
REMARK    1  A    between atoms: C_3  and  N_16
REMARK    2  A    between atoms: C_6  and  C_7
REMARK    3  A    between atoms: C_17  and  C_19
REMARK    4  A    between atoms: C_20  and  C_21
REMARK                            x       y       z     vdW  Elec       q    Type
REMARK                         _______ _______ _______ _____ _____    ______ ____
ROOT
ATOM      1  C   UNL     1       0.064   1.135  -0.379  0.00  0.00    +0.013 A 
ATOM      2  C   UNL     1       1.197   1.918  -0.329  0.00  0.00    +0.024 A 
ATOM      3  C   UNL     1       2.433   1.337  -0.071  0.00  0.00    +0.034 A 
ATOM      4  C   UNL     1       2.531  -0.034   0.137  0.00  0.00    +0.024 A 
ATOM      5  C   UNL     1       1.401  -0.822   0.088  0.00  0.00    +0.013 A 
ATOM      6  C   UNL     1       0.158  -0.242  -0.170  0.00  0.00    +0.019 A 
ENDROOT
BRANCH   6   7
ATOM      7  C   UNL     1      -1.056  -1.084  -0.223  0.00  0.00    +0.164 A 
ATOM      8  N   UNL     1      -1.186  -2.307   0.252  0.00  0.00    -0.129 NA
ATOM      9  N   UNL     1      -2.381  -2.735   0.032  0.00  0.00    -0.134 NA
ATOM     10  C   UNL     1      -3.071  -1.824  -0.586  0.00  0.00    +0.134 A 
ATOM     11  N   UNL     1      -2.256  -0.745  -0.765  0.00  0.00    -0.311 N 
ATOM     12  C   UNL     1      -2.651   0.500  -1.423  0.00  0.00    +0.125 C 
ATOM     13  C   UNL     1      -3.932   0.246  -2.226  0.00  0.00    +0.022 C 
ATOM     14  C   UNL     1      -4.969  -0.444  -1.335  0.00  0.00    +0.009 C 
ATOM     15  C   UNL     1      -4.507  -1.880  -1.042  0.00  0.00    +0.076 C 
ENDBRANCH   6   7
BRANCH   3  16
ATOM     16  N   UNL     1       3.580   2.133  -0.022  0.00  0.00    -0.282 N 
ATOM     17  C   UNL     1       3.506   3.394   0.448  0.00  0.00    +0.241 C 
ATOM     18  O   UNL     1       2.461   3.808   0.916  0.00  0.00    -0.270 OA
ATOM     19  H   UNL     1       4.430   1.778  -0.326  0.00  0.00    +0.155 HD
BRANCH  17  20
ATOM     20  C   UNL     1       4.679   4.264   0.395  0.00  0.00    +0.068 C 
ATOM     21  C   UNL     1       4.605   5.527   0.865  0.00  0.00    +0.013 C 
BRANCH  21  22
ATOM     22  C   UNL     1       5.785   6.402   0.812  0.00  0.00    -0.021 A 
ATOM     23  C   UNL     1       6.985   5.930   0.269  0.00  0.00    +0.012 A 
ATOM     24  C   UNL     1       8.089   6.752   0.220  0.00  0.00    +0.050 A 
ATOM     25  C   UNL     1       8.017   8.050   0.708  0.00  0.00    +0.166 A 
ATOM     26  C   UNL     1       6.823   8.528   1.252  0.00  0.00    +0.167 A 
ATOM     27  C   UNL     1       5.710   7.712   1.299  0.00  0.00    +0.057 A 
ATOM     28  O   UNL     1       7.014   9.819   1.655  0.00  0.00    -0.453 OA
ATOM     29  C   UNL     1       8.442   9.990   1.728  0.00  0.00    +0.466 C 
ATOM     30  O   UNL     1       8.951   9.042   0.772  0.00  0.00    -0.453 OA
ENDBRANCH  21  22
ENDBRANCH  17  20
ENDBRANCH   3  16
TORSDOF 4
