REMARK  Name = ZINC60377462
REMARK  9 active torsions:
REMARK  status: ('A' for Active; 'I' for Inactive)
REMARK    1  A    between atoms: C_1  and  C_2
REMARK    2  A    between atoms: C_2  and  N_3
REMARK    3  A    between atoms: C_16  and  C_17
REMARK    4  A    between atoms: C_17  and  N_18
REMARK    5  A    between atoms: C_21  and  C_24
REMARK    6  A    between atoms: C_24  and  N_25
REMARK    7  A    between atoms: N_25  and  C_26
REMARK    8  A    between atoms: N_25  and  C_27
REMARK    9  A    between atoms: C_27  and  C_28
REMARK                            x       y       z     vdW  Elec       q    Type
REMARK                         _______ _______ _______ _____ _____    ______ ____
ROOT
ATOM      1  N   UNL     1       0.001  -0.743   6.776  0.00  0.00    +0.384 N 
ATOM      2  C   UNL     1      -1.135   0.172   6.939  0.00  0.00    -0.078 C 
ATOM      3  C   UNL     1      -0.678   1.433   7.676  0.00  0.00    -0.017 C 
ATOM      4  C   UNL     1      -0.132   1.043   9.053  0.00  0.00    -0.031 C 
ATOM      5  C   UNL     1       1.004   0.032   8.874  0.00  0.00    -0.017 C 
ATOM      6  C   UNL     1       0.484  -1.177   8.092  0.00  0.00    -0.078 C 
ATOM      7  H   UNL     1       0.745  -0.268   6.286  0.00  0.00    -0.081 HD
ENDROOT
BRANCH   1   8
ATOM      8  C   UNL     1      -0.424  -1.916   6.000  0.00  0.00    -0.001 C 
BRANCH   8  22
ATOM      9  N   UNL     1      -0.182  -0.616   1.271  0.00  0.00    -0.277 N 
ATOM     10  C   UNL     1       1.150  -0.695   1.066  0.00  0.00    +0.263 A 
ATOM     11  O   UNL     1       1.625  -0.438  -0.024  0.00  0.00    -0.267 OA
ATOM     12  C   UNL     1       2.019  -1.099   2.187  0.00  0.00    +0.063 A 
ATOM     13  C   UNL     1       3.400  -1.198   2.034  0.00  0.00    +0.015 A 
ATOM     14  C   UNL     1       4.179  -1.578   3.106  0.00  0.00    +0.001 A 
ATOM     15  C   UNL     1       3.595  -1.861   4.331  0.00  0.00    +0.002 A 
ATOM     16  C   UNL     1       2.227  -1.768   4.495  0.00  0.00    +0.027 A 
ATOM     17  C   UNL     1       1.428  -1.386   3.428  0.00  0.00    +0.063 A 
ATOM     18  N   UNL     1       0.049  -1.281   3.561  0.00  0.00    -0.266 N 
ATOM     19  C   UNL     1      -0.730  -0.900   2.507  0.00  0.00    +0.239 A 
ATOM     20  N   UNL     1      -1.972  -0.886   2.939  0.00  0.00    -0.110 NA
ATOM     21  N   UNL     1      -2.008  -1.226   4.178  0.00  0.00    -0.134 NA
ATOM     22  C   UNL     1      -0.804  -1.486   4.607  0.00  0.00    +0.123 A 
BRANCH   9  24
ATOM     23  C   UNL     1      -1.216   1.306   0.166  0.00  0.00    +0.027 C 
ATOM     24  C   UNL     1      -1.058  -0.216   0.167  0.00  0.00    +0.125 C 
ENDBRANCH   9  24
ENDBRANCH   8  22
ENDBRANCH   1   8
BRANCH   4  25
ATOM     25  C   UNL     1       0.399   2.289   9.764  0.00  0.00    -0.075 C 
BRANCH  25  26
ATOM     26  N   UNL     1      -0.711   3.215  10.026  0.00  0.00    +0.381 N 
ATOM     27  C   UNL     1      -1.639   2.606  10.988  0.00  0.00    -0.096 C 
ATOM     28  H   UNL     1      -1.198   3.408   9.164  0.00  0.00    -0.082 HD
BRANCH  26  29
ATOM     29  C   UNL     1      -0.183   4.468  10.581  0.00  0.00    -0.043 C 
BRANCH  29  30
ATOM     30  C   UNL     1      -1.305   5.461  10.735  0.00  0.00    -0.064 A 
ATOM     31  C   UNL     1      -1.619   6.317   9.696  0.00  0.00    +0.002 A 
ATOM     32  C   UNL     1      -2.648   7.229   9.837  0.00  0.00    +0.000 A 
ATOM     33  C   UNL     1      -3.365   7.284  11.018  0.00  0.00    +0.000 A 
ATOM     34  C   UNL     1      -3.053   6.427  12.057  0.00  0.00    +0.000 A 
ATOM     35  C   UNL     1      -2.026   5.513  11.914  0.00  0.00    +0.002 A 
ENDBRANCH  29  30
ENDBRANCH  26  29
ENDBRANCH  25  26
ENDBRANCH   4  25
TORSDOF 7
