REMARK  Name = ZINC59014809
REMARK  7 active torsions:
REMARK  status: ('A' for Active; 'I' for Inactive)
REMARK    1  A    between atoms: C_6  and  C_7
REMARK    2  A    between atoms: N_8  and  N_9
REMARK    3  A    between atoms: C_12  and  S_15
REMARK    4  A    between atoms: S_15  and  C_16
REMARK    5  A    between atoms: C_16  and  C_17
REMARK    6  A    between atoms: N_19  and  C_20
REMARK    7  A    between atoms: C_23  and  C_26
REMARK                            x       y       z     vdW  Elec       q    Type
REMARK                         _______ _______ _______ _____ _____    ______ ____
ROOT
ATOM      1  N   UNL     1      -2.445  -2.779   0.037  0.00  0.00    -0.205 N 
ATOM      2  C   UNL     1      -2.423  -4.162   0.026  0.00  0.00    +0.232 A 
ATOM      3  N   UNL     1      -1.346  -4.919   0.008  0.00  0.00    -0.186 NA
ATOM      4  C   UNL     1      -1.702  -6.208   0.003  0.00  0.00    +0.211 A 
ATOM      5  N   UNL     1      -3.011  -6.288   0.018  0.00  0.00    -0.144 NA
ATOM      6  N   UNL     1      -3.502  -4.973   0.038  0.00  0.00    -0.245 N 
ATOM      7  H   UNL     1      -3.293  -2.308   0.055  0.00  0.00    +0.177 HD
ATOM      8  H   UNL     1      -4.433  -4.701   0.057  0.00  0.00    +0.192 HD
ENDROOT
BRANCH   1  10
ATOM      9  C   UNL     1      -1.264  -0.762   0.032  0.00  0.00    +0.138 C 
ATOM     10  N   UNL     1      -1.243  -2.059   0.022  0.00  0.00    -0.188 NA
BRANCH   9  16
ATOM     11  C   UNL     1      -0.018   1.393   0.026  0.00  0.00    +0.012 A 
ATOM     12  C   UNL     1       1.168   2.096   0.012  0.00  0.00    +0.039 A 
ATOM     13  C   UNL     1       2.377   1.420  -0.013  0.00  0.00    +0.123 A 
ATOM     14  C   UNL     1       2.403   0.034  -0.025  0.00  0.00    +0.039 A 
ATOM     15  C   UNL     1       1.223  -0.680  -0.010  0.00  0.00    +0.012 A 
ATOM     16  C   UNL     1       0.001  -0.004   0.016  0.00  0.00    -0.005 A 
ATOM     17  F   UNL     1       3.536   2.114  -0.028  0.00  0.00    -0.205 F 
ENDBRANCH   9  16
ENDBRANCH   1  10
BRANCH   4  18
ATOM     18  S   UNL     1      -0.592  -7.576  -0.021  0.00  0.00    -0.075 S 
BRANCH  18  19
ATOM     19  C   UNL     1      -1.683  -9.026  -0.018  0.00  0.00    +0.173 C 
BRANCH  19  20
ATOM     20  C   UNL     1      -0.850 -10.281  -0.038  0.00  0.00    +0.227 C 
ATOM     21  O   UNL     1       0.361 -10.206  -0.052  0.00  0.00    -0.275 OA
ATOM     22  N   UNL     1      -1.449 -11.488  -0.039  0.00  0.00    -0.285 N 
ATOM     23  H   UNL     1      -2.414 -11.550   0.040  0.00  0.00    +0.155 HD
BRANCH  22  24
ATOM     24  C   UNL     1      -0.680 -12.652  -0.155  0.00  0.00    +0.033 A 
ATOM     25  C   UNL     1      -1.171 -13.743  -0.859  0.00  0.00    +0.024 A 
ATOM     26  C   UNL     1      -0.410 -14.890  -0.971  0.00  0.00    +0.014 A 
ATOM     27  C   UNL     1       0.840 -14.952  -0.383  0.00  0.00    +0.055 A 
ATOM     28  C   UNL     1       1.331 -13.867   0.319  0.00  0.00    +0.014 A 
ATOM     29  C   UNL     1       0.578 -12.715   0.430  0.00  0.00    +0.024 A 
BRANCH  27  30
ATOM     30  C   UNL     1       1.668 -16.205  -0.508  0.00  0.00    +0.417 C 
ATOM     31  F   UNL     1       2.468 -16.123  -1.653  0.00  0.00    -0.166 F 
ATOM     32  F   UNL     1       2.482 -16.340   0.622  0.00  0.00    -0.166 F 
ATOM     33  F   UNL     1       0.822 -17.315  -0.608  0.00  0.00    -0.166 F 
ENDBRANCH  27  30
ENDBRANCH  22  24
ENDBRANCH  19  20
ENDBRANCH  18  19
ENDBRANCH   4  18
TORSDOF 7
