REMARK  Name = ZINC63627165
REMARK  6 active torsions:
REMARK  status: ('A' for Active; 'I' for Inactive)
REMARK    1  A    between atoms: C_1  and  C_2
REMARK    2  A    between atoms: N_4  and  C_5
REMARK    3  A    between atoms: C_8  and  S_11
REMARK    4  A    between atoms: S_11  and  N_14
REMARK    5  A    between atoms: N_14  and  C_15
REMARK    6  A    between atoms: C_18  and  C_21
REMARK                            x       y       z     vdW  Elec       q    Type
REMARK                         _______ _______ _______ _____ _____    ______ ____
ROOT
ATOM      1  N   UNL     1      -1.257  -7.330   1.854  0.00  0.00    -0.216 N 
ATOM      2  H   UNL     1      -0.445  -7.774   2.146  0.00  0.00    +0.174 HD
ENDROOT
BRANCH   1   3
ATOM      3  C   UNL     1      -2.326  -7.176   2.740  0.00  0.00    +0.048 A 
ATOM      4  C   UNL     1      -2.986  -5.957   2.829  0.00  0.00    +0.025 A 
ATOM      5  C   UNL     1      -4.043  -5.808   3.706  0.00  0.00    +0.008 A 
ATOM      6  C   UNL     1      -4.443  -6.871   4.495  0.00  0.00    -0.021 A 
ATOM      7  C   UNL     1      -3.788  -8.086   4.409  0.00  0.00    +0.008 A 
ATOM      8  C   UNL     1      -2.735  -8.243   3.530  0.00  0.00    +0.025 A 
BRANCH   6   9
ATOM      9  C   UNL     1      -5.596  -6.705   5.451  0.00  0.00    +0.133 C 
ATOM     10  C   UNL     1      -6.843  -7.341   4.880  0.00  0.00    +0.012 C 
ATOM     11  C   UNL     1      -7.203  -8.309   5.753  0.00  0.00    -0.004 A 
ATOM     12  C   UNL     1      -8.312  -9.271   5.770  0.00  0.00    +0.010 A 
ATOM     13  C   UNL     1      -8.414 -10.138   6.803  0.00  0.00    +0.001 A 
ATOM     14  C   UNL     1      -7.488 -10.140   7.856  0.00  0.00    +0.002 A 
ATOM     15  C   UNL     1      -6.443  -9.288   7.911  0.00  0.00    +0.026 A 
ATOM     16  C   UNL     1      -6.240  -8.333   6.877  0.00  0.00    +0.043 A 
ATOM     17  N   UNL     1      -5.319  -7.413   6.705  0.00  0.00    -0.374 N 
ATOM     18  H   UNL     1      -4.579  -7.233   7.306  0.00  0.00    +0.161 HD
ENDBRANCH   6   9
ENDBRANCH   1   3
BRANCH   1  19
ATOM     19  S   UNL     1      -1.376  -6.756   0.305  0.00  0.00    +0.072 S 
ATOM     20  O   UNL     1      -0.174  -7.123  -0.358  0.00  0.00    -0.150 OA
ATOM     21  O   UNL     1      -1.809  -5.406   0.405  0.00  0.00    -0.150 OA
BRANCH  19  25
ATOM     22  C   UNL     1      -4.721  -9.042  -1.718  0.00  0.00    +0.033 A 
ATOM     23  C   UNL     1      -4.976  -7.809  -1.132  0.00  0.00    +0.025 A 
ATOM     24  C   UNL     1      -3.954  -7.114  -0.516  0.00  0.00    +0.030 A 
ATOM     25  C   UNL     1      -2.678  -7.645  -0.482  0.00  0.00    +0.109 A 
ATOM     26  C   UNL     1      -2.420  -8.872  -1.065  0.00  0.00    +0.030 A 
ATOM     27  C   UNL     1      -3.440  -9.575  -1.677  0.00  0.00    +0.025 A 
BRANCH  22  31
ATOM     28  C   UNL     1      -6.958 -11.848  -2.854  0.00  0.00    +0.109 C 
ATOM     29  C   UNL     1      -5.790 -11.094  -2.272  0.00  0.00    +0.214 C 
ATOM     30  O   UNL     1      -4.883 -11.697  -1.741  0.00  0.00    -0.276 OA
ATOM     31  N   UNL     1      -5.755  -9.748  -2.343  0.00  0.00    -0.286 N 
ATOM     32  H   UNL     1      -6.446  -9.269  -2.827  0.00  0.00    +0.155 HD
ENDBRANCH  22  31
ENDBRANCH  19  25
ENDBRANCH   1  19
TORSDOF 5
