REMARK  Name = ZINC12642588
REMARK  14 active torsions:
REMARK  status: ('A' for Active; 'I' for Inactive)
REMARK    1  A    between atoms: C_1  and  C_2
REMARK    2  A    between atoms: C_2  and  C_3
REMARK    3  A    between atoms: C_3  and  C_4
REMARK    4  A    between atoms: C_3  and  C_5
REMARK    5  A    between atoms: C_3  and  N_6
REMARK    6  A    between atoms: C_7  and  C_11
REMARK    7  A    between atoms: C_11  and  C_13
REMARK    8  A    between atoms: C_11  and  N_64
REMARK    9  A    between atoms: C_18  and  C_19
REMARK   10  A    between atoms: C_18  and  N_64
REMARK   11  A    between atoms: C_22  and  O_25
REMARK   12  A    between atoms: O_25  and  C_26
REMARK   13  A    between atoms: C_27  and  C_28
REMARK   14  A    between atoms: C_27  and  N_64
REMARK                            x       y       z     vdW  Elec       q    Type
REMARK                         _______ _______ _______ _____ _____    ______ ____
ROOT
ATOM      1  N   UNL     1       4.040   2.914  -3.015  0.00  0.00    +0.395 N 
ATOM      2  H   UNL     1       4.276   3.913  -3.042  0.00  0.00    -0.079 HD
ENDROOT
BRANCH   1   3
ATOM      3  C   UNL     1       5.272   2.136  -2.766  0.00  0.00    +0.041 C 
BRANCH   3   5
ATOM      4  N   UNL     1       6.635   2.057  -0.611  0.00  0.00    -0.225 N 
ATOM      5  C   UNL     1       5.991   2.731  -1.582  0.00  0.00    +0.143 A 
ATOM      6  N   UNL     1       6.114   4.005  -1.301  0.00  0.00    -0.115 NA
ATOM      7  N   UNL     1       6.792   4.108  -0.210  0.00  0.00    -0.023 NA
ATOM      8  N   UNL     1       7.111   2.933   0.208  0.00  0.00    -0.043 NA
BRANCH   4   9
ATOM      9  C   UNL     1       6.770   0.602  -0.505  0.00  0.00    +0.061 C 
ATOM     10  C   UNL     1       5.387  -0.028  -0.332  0.00  0.00    +0.036 C 
ATOM     11  C   UNL     1       7.423   0.056  -1.777  0.00  0.00    +0.036 C 
BRANCH   9  13
ATOM     12  C   UNL     1       7.784  -1.262   0.814  0.00  0.00    +0.006 C 
ATOM     13  C   UNL     1       7.643   0.258   0.704  0.00  0.00    +0.026 C 
ENDBRANCH   9  13
ENDBRANCH   4   9
ENDBRANCH   3   5
BRANCH   3  14
ATOM     14  C   UNL     1       6.158   2.214  -3.982  0.00  0.00    -0.016 A 
ATOM     15  C   UNL     1       6.750   1.208  -4.673  0.00  0.00    +0.010 A 
ATOM     16  C   UNL     1       7.529   1.518  -5.771  0.00  0.00    +0.008 A 
ATOM     17  C   UNL     1       7.679   2.817  -6.126  0.00  0.00    +0.045 A 
ATOM     18  S   UNL     1       6.696   3.653  -4.892  0.00  0.00    -0.103 S 
ENDBRANCH   3  14
ENDBRANCH   1   3
BRANCH   1  19
ATOM     19  C   UNL     1       3.450   2.525  -4.312  0.00  0.00    -0.041 C 
BRANCH  19  20
ATOM     20  C   UNL     1       2.434   3.563  -4.714  0.00  0.00    -0.064 A 
ATOM     21  C   UNL     1       1.091   3.348  -4.463  0.00  0.00    +0.005 A 
ATOM     22  C   UNL     1       0.159   4.301  -4.824  0.00  0.00    +0.046 A 
ATOM     23  C   UNL     1       0.569   5.469  -5.450  0.00  0.00    +0.120 A 
ATOM     24  C   UNL     1       1.916   5.680  -5.706  0.00  0.00    +0.046 A 
ATOM     25  C   UNL     1       2.846   4.726  -5.337  0.00  0.00    +0.005 A 
BRANCH  23  26
ATOM     26  O   UNL     1      -0.347   6.405  -5.811  0.00  0.00    -0.495 OA
ATOM     27  C   UNL     1      -1.716   6.121  -5.517  0.00  0.00    +0.277 C 
ENDBRANCH  23  26
ENDBRANCH  19  20
ENDBRANCH   1  19
BRANCH   1  28
ATOM     28  C   UNL     1       3.067   2.681  -1.927  0.00  0.00    -0.040 C 
BRANCH  28  29
ATOM     29  C   UNL     1       3.478   3.496  -0.728  0.00  0.00    -0.046 A 
ATOM     30  C   UNL     1       3.992   2.868   0.392  0.00  0.00    +0.003 A 
ATOM     31  C   UNL     1       4.369   3.616   1.491  0.00  0.00    +0.000 A 
ATOM     32  C   UNL     1       4.233   4.992   1.473  0.00  0.00    +0.001 A 
ATOM     33  C   UNL     1       3.724   5.621   0.352  0.00  0.00    +0.020 A 
ATOM     34  C   UNL     1       3.342   4.873  -0.747  0.00  0.00    +0.042 A 
ATOM     35 CL   UNL     1       2.698   5.662  -2.153  0.00  0.00    -0.083 Cl
ENDBRANCH  28  29
ENDBRANCH   1  28
TORSDOF 10
