REMARK  Name = ZINC04554473
REMARK  10 active torsions:
REMARK  status: ('A' for Active; 'I' for Inactive)
REMARK    1  A    between atoms: C_1  and  C_2
REMARK    2  A    between atoms: C_9  and  N_21
REMARK    3  A    between atoms: C_10  and  C_11
REMARK    4  A    between atoms: N_13  and  C_14
REMARK    5  A    between atoms: C_22  and  C_24
REMARK    6  A    between atoms: C_24  and  N_56
REMARK    7  A    between atoms: C_25  and  C_26
REMARK    8  A    between atoms: C_25  and  N_56
REMARK    9  A    between atoms: C_26  and  C_27
REMARK   10  A    between atoms: C_26  and  C_28
REMARK                            x       y       z     vdW  Elec       q    Type
REMARK                         _______ _______ _______ _____ _____    ______ ____
ROOT
ATOM      1  C   UNL     1      -4.420   4.005  10.982  0.00  0.00    +0.008 C 
ATOM      2  C   UNL     1      -3.579   3.084  10.096  0.00  0.00    -0.009 C 
ATOM      3  C   UNL     1      -2.123   3.099  10.570  0.00  0.00    +0.008 C 
ATOM      4  C   UNL     1      -1.331   2.002   9.855  0.00  0.00    +0.037 C 
ATOM      5  C   UNL     1      -1.541   2.146   8.353  0.00  0.00    -0.023 A 
ATOM      6  C   UNL     1      -2.578   2.857   7.860  0.00  0.00    -0.004 A 
ATOM      7  S   UNL     1      -2.411   2.743   6.101  0.00  0.00    -0.077 S 
ATOM      8  C   UNL     1      -0.984   1.764   6.019  0.00  0.00    +0.084 A 
ATOM      9  C   UNL     1      -0.675   1.543   7.354  0.00  0.00    +0.069 A 
ATOM     10  C   UNL     1      -3.632   3.579   8.643  0.00  0.00    +0.046 C 
ENDROOT
BRANCH   9  11
ATOM     11  C   UNL     1       0.486   0.736   7.742  0.00  0.00    +0.251 C 
ATOM     12  O   UNL     1       1.569   1.267   7.907  0.00  0.00    -0.270 OA
ATOM     13  N   UNL     1       0.354  -0.594   7.917  0.00  0.00    -0.279 N 
ATOM     14  H   UNL     1      -0.520  -1.007   7.849  0.00  0.00    +0.155 HD
BRANCH  13  15
ATOM     15  C   UNL     1       1.480  -1.378   8.195  0.00  0.00    +0.069 A 
ATOM     16  C   UNL     1       2.511  -0.864   8.969  0.00  0.00    +0.026 A 
ATOM     17  C   UNL     1       3.619  -1.642   9.247  0.00  0.00    +0.002 A 
ATOM     18  C   UNL     1       3.706  -2.929   8.747  0.00  0.00    +0.003 A 
ATOM     19  C   UNL     1       2.683  -3.443   7.971  0.00  0.00    +0.040 A 
ATOM     20  C   UNL     1       1.570  -2.672   7.693  0.00  0.00    +0.144 A 
ATOM     21  F   UNL     1       0.571  -3.174   6.935  0.00  0.00    -0.204 F 
ENDBRANCH  13  15
ENDBRANCH   9  11
BRANCH   8  22
ATOM     22  N   UNL     1      -0.317   1.306   4.893  0.00  0.00    -0.281 N 
ATOM     23  C   UNL     1      -0.774   1.620   3.665  0.00  0.00    +0.201 C 
ATOM     24  O   UNL     1      -1.768   2.303   3.545  0.00  0.00    -0.278 OA
ATOM     25  H   UNL     1       0.479   0.759   4.990  0.00  0.00    +0.155 HD
BRANCH  23  26
ATOM     26  C   UNL     1      -0.049   1.122   2.441  0.00  0.00    +0.015 C 
BRANCH  26  27
ATOM     27  N   UNL     1      -0.749   1.604   1.236  0.00  0.00    +0.385 N 
ATOM     28  H   UNL     1      -0.762   2.631   1.239  0.00  0.00    -0.085 HD
ATOM     29  H   UNL     1      -1.712   1.248   1.238  0.00  0.00    -0.085 HD
BRANCH  27  30
ATOM     30  C   UNL     1      -0.059   1.131   0.020  0.00  0.00    -0.079 C 
BRANCH  30  31
ATOM     31  C   UNL     1      -0.807   1.645  -1.212  0.00  0.00    -0.034 C 
ATOM     32  C   UNL     1      -0.030   1.265  -2.475  0.00  0.00    +0.005 C 
ATOM     33  C   UNL     1      -2.201   1.016  -1.262  0.00  0.00    +0.005 C 
ENDBRANCH  30  31
ENDBRANCH  27  30
ENDBRANCH  26  27
ENDBRANCH  23  26
ENDBRANCH   8  22
TORSDOF 7
