REMARK  Name = ZINC39421835
REMARK  8 active torsions:
REMARK  status: ('A' for Active; 'I' for Inactive)
REMARK    1  A    between atoms: C_1  and  C_2
REMARK    2  A    between atoms: C_10  and  C_14
REMARK    3  A    between atoms: C_14  and  C_16
REMARK    4  A    between atoms: C_14  and  S_17
REMARK    5  A    between atoms: S_17  and  C_18
REMARK    6  A    between atoms: N_23  and  C_24
REMARK    7  A    between atoms: C_29  and  O_30
REMARK    8  A    between atoms: O_30  and  C_31
REMARK                            x       y       z     vdW  Elec       q    Type
REMARK                         _______ _______ _______ _____ _____    ______ ____
ROOT
ATOM      1  C   UNL     1      -1.966  -6.443   4.869  0.00  0.00    +0.116 C 
ATOM      2  C   UNL     1      -1.920  -7.892   4.381  0.00  0.00    +0.027 C 
ENDROOT
BRANCH   1  11
ATOM      3  C   UNL     1       0.592   0.983  -0.214  0.00  0.00    +0.007 C 
ATOM      4  C   UNL     1       0.324  -0.522  -0.278  0.00  0.00    -0.012 C 
ATOM      5  C   UNL     1      -1.173  -0.773  -0.112  0.00  0.00    +0.008 C 
ATOM      6  C   UNL     1      -1.483  -2.269  -0.253  0.00  0.00    +0.033 C 
ATOM      7  C   UNL     1      -0.569  -2.999   0.729  0.00  0.00    -0.042 C 
ATOM      8  C   UNL     1      -0.984  -3.849   1.668  0.00  0.00    +0.071 C 
ATOM      9  C   UNL     1       0.005  -4.331   2.669  0.00  0.00    +0.112 C 
ATOM     10  N   UNL     1      -0.325  -5.133   3.653  0.00  0.00    -0.226 NA
ATOM     11  C   UNL     1      -1.598  -5.519   3.737  0.00  0.00    +0.137 C 
ATOM     12  N   UNL     1      -2.553  -5.163   2.918  0.00  0.00    -0.160 NA
ATOM     13  C   UNL     1      -2.388  -4.343   1.864  0.00  0.00    +0.271 C 
ATOM     14  O   UNL     1      -3.306  -4.027   1.126  0.00  0.00    -0.268 OA
ATOM     15  S   UNL     1       1.534  -3.598   2.179  0.00  0.00    -0.097 S 
ATOM     16  C   UNL     1       0.937  -2.734   0.675  0.00  0.00    +0.080 C 
ATOM     17  C   UNL     1       1.122  -1.222   0.826  0.00  0.00    +0.022 C 
ENDBRANCH   1  11
BRANCH   1  18
ATOM     18  S   UNL     1      -3.641  -6.053   5.447  0.00  0.00    -0.086 S 
BRANCH  18  19
ATOM     19  C   UNL     1      -3.864  -7.101   6.846  0.00  0.00    +0.161 A 
ATOM     20  N   UNL     1      -3.029  -7.971   7.380  0.00  0.00    -0.133 NA
ATOM     21  N   UNL     1      -3.409  -8.695   8.487  0.00  0.00    -0.125 NA
ATOM     22  C   UNL     1      -4.607  -8.515   9.008  0.00  0.00    +0.187 A 
ATOM     23  S   UNL     1      -5.278  -7.263   7.925  0.00  0.00    -0.024 S 
ATOM     24  N   UNL     1      -5.190  -9.131  10.110  0.00  0.00    -0.289 N 
ATOM     25  H   UNL     1      -6.119  -8.958  10.327  0.00  0.00    +0.154 HD
BRANCH  24  26
ATOM     26  C   UNL     1      -4.435 -10.000  10.906  0.00  0.00    +0.075 A 
ATOM     27  C   UNL     1      -3.066 -10.110  10.711  0.00  0.00    +0.027 A 
ATOM     28  C   UNL     1      -2.323 -10.969  11.498  0.00  0.00    +0.002 A 
ATOM     29  C   UNL     1      -2.941 -11.720  12.481  0.00  0.00    +0.004 A 
ATOM     30  C   UNL     1      -4.305 -11.616  12.682  0.00  0.00    +0.047 A 
ATOM     31  C   UNL     1      -5.056 -10.753  11.901  0.00  0.00    +0.141 A 
BRANCH  31  32
ATOM     32  O   UNL     1      -6.397 -10.645  12.100  0.00  0.00    -0.493 OA
ATOM     33  C   UNL     1      -6.965 -11.447  13.138  0.00  0.00    +0.277 C 
ENDBRANCH  31  32
ENDBRANCH  24  26
ENDBRANCH  18  19
ENDBRANCH   1  18
TORSDOF 5
