REMARK  Name = ZINC21320051
REMARK  8 active torsions:
REMARK  status: ('A' for Active; 'I' for Inactive)
REMARK    1  A    between atoms: C_3  and  O_31
REMARK    2  A    between atoms: C_4  and  C_8
REMARK    3  A    between atoms: N_9  and  N_10
REMARK    4  A    between atoms: C_14  and  S_17
REMARK    5  A    between atoms: N_15  and  N_16
REMARK    6  A    between atoms: S_17  and  C_18
REMARK    7  A    between atoms: C_18  and  C_19
REMARK    8  A    between atoms: C_19  and  C_21
REMARK                            x       y       z     vdW  Elec       q    Type
REMARK                         _______ _______ _______ _____ _____    ______ ____
ROOT
ATOM      1  N   UNL     1      -4.127  -6.045   2.453  0.00  0.00    -0.204 N 
ATOM      2  C   UNL     1      -3.556  -4.827   2.113  0.00  0.00    +0.254 A 
ATOM      3  N   UNL     1      -4.041  -3.643   2.396  0.00  0.00    -0.109 NA
ATOM      4  N   UNL     1      -3.165  -2.681   1.877  0.00  0.00    -0.119 NA
ATOM      5  C   UNL     1      -2.172  -3.309   1.293  0.00  0.00    +0.210 A 
ATOM      6  N   UNL     1      -2.391  -4.652   1.419  0.00  0.00    -0.211 N 
ATOM      7  H   UNL     1      -3.633  -6.984   2.164  0.00  0.00    +0.177 HD
ENDROOT
BRANCH   6   8
ATOM      8  N   UNL     1      -1.585  -5.645   0.939  0.00  0.00    -0.294 N 
ATOM      9  H   UNL     1      -0.666  -5.391   0.392  0.00  0.00    +0.163 HD
ATOM     10  H   UNL     1      -1.856  -6.699   1.100  0.00  0.00    +0.163 HD
ENDBRANCH   6   8
BRANCH   1  12
ATOM     11  C   UNL     1      -5.869  -7.218   3.482  0.00  0.00    +0.142 C 
ATOM     12  N   UNL     1      -5.334  -6.078   3.164  0.00  0.00    -0.187 NA
BRANCH  11  16
ATOM     13  C   UNL     1      -9.528  -7.319   5.638  0.00  0.00    +0.023 A 
ATOM     14  C   UNL     1      -8.964  -6.102   5.302  0.00  0.00    +0.047 A 
ATOM     15  C   UNL     1      -7.769  -6.058   4.605  0.00  0.00    +0.126 A 
ATOM     16  C   UNL     1      -7.138  -7.253   4.230  0.00  0.00    +0.037 A 
ATOM     17  C   UNL     1      -7.717  -8.477   4.574  0.00  0.00    +0.033 A 
ATOM     18  C   UNL     1      -8.906  -8.502   5.275  0.00  0.00    +0.042 A 
ATOM     19 CL   UNL     1      -9.626 -10.023   5.702  0.00  0.00    -0.084 Cl
BRANCH  15  20
ATOM     20  O   UNL     1      -7.212  -4.863   4.280  0.00  0.00    -0.506 OA
ATOM     21  H   UNL     1      -6.262  -4.831   3.726  0.00  0.00    +0.292 HD
ENDBRANCH  15  20
ENDBRANCH  11  16
ENDBRANCH   1  12
BRANCH   5  22
ATOM     22  S   UNL     1      -0.802  -2.555   0.483  0.00  0.00    -0.077 S 
BRANCH  22  23
ATOM     23  C   UNL     1      -1.112  -0.776   0.661  0.00  0.00    +0.152 C 
BRANCH  23  24
ATOM     24  C   UNL     1       0.002  -0.004   0.002  0.00  0.00    +0.147 C 
ATOM     25  O   UNL     1       0.911  -0.593  -0.533  0.00  0.00    -0.296 OA
BRANCH  24  26
ATOM     26  C   UNL     1      -0.018   1.503   0.010  0.00  0.00    +0.062 C 
ATOM     27  C   UNL     1      -1.071   2.004  -0.980  0.00  0.00    +0.000 C 
ATOM     28  C   UNL     1      -1.092   3.534  -0.972  0.00  0.00    +0.007 C 
ATOM     29  C   UNL     1       0.284   4.065  -1.378  0.00  0.00    -0.010 C 
ATOM     30  C   UNL     1       0.629   3.567  -2.783  0.00  0.00    +0.007 C 
ATOM     31  C   UNL     1       0.649   2.037  -2.792  0.00  0.00    -0.010 C 
ATOM     32  C   UNL     1      -0.727   1.506  -2.386  0.00  0.00    +0.007 C 
ATOM     33  C   UNL     1       1.702   1.536  -1.801  0.00  0.00    +0.007 C 
ATOM     34  C   UNL     1       1.358   2.034  -0.396  0.00  0.00    +0.000 C 
ATOM     35  C   UNL     1       1.337   3.564  -0.387  0.00  0.00    +0.007 C 
ENDBRANCH  24  26
ENDBRANCH  23  24
ENDBRANCH  22  23
ENDBRANCH   5  22
TORSDOF 8
