REMARK  Name = ZINC05800447
REMARK  3 active torsions:
REMARK  status: ('A' for Active; 'I' for Inactive)
REMARK    1  A    between atoms: C_8  and  C_24
REMARK    2  A    between atoms: C_14  and  C_19
REMARK    3  A    between atoms: C_28  and  N_30
REMARK                            x       y       z     vdW  Elec       q    Type
REMARK                         _______ _______ _______ _____ _____    ______ ____
ROOT
ATOM      1  C   UNL     1      -5.531   3.388   2.487  0.00  0.00    +0.002 A 
ATOM      2  C   UNL     1      -4.720   4.488   2.698  0.00  0.00    +0.002 A 
ATOM      3  C   UNL     1      -3.597   4.689   1.913  0.00  0.00    +0.025 A 
ATOM      4  C   UNL     1      -3.293   3.777   0.917  0.00  0.00    +0.052 A 
ATOM      5  C   UNL     1      -4.084   2.654   0.729  0.00  0.00    +0.049 A 
ATOM      6  C   UNL     1      -5.219   2.467   1.502  0.00  0.00    +0.025 A 
ATOM      7  N   UNL     1      -3.671   1.700  -0.199  0.00  0.00    -0.331 N 
ATOM      8  C   UNL     1      -2.452   0.944  -0.003  0.00  0.00    +0.136 C 
ATOM      9  C   UNL     1      -1.191   1.776  -0.030  0.00  0.00    +0.036 C 
ATOM     10  C   UNL     1      -1.131   3.117   0.016  0.00  0.00    +0.017 C 
ATOM     11  N   UNL     1      -2.207   3.942   0.065  0.00  0.00    -0.316 N 
ATOM     12  C   UNL     1       0.213   3.827   0.012  0.00  0.00    +0.063 C 
ATOM     13  C   UNL     1       1.223   3.025  -0.807  0.00  0.00    +0.068 C 
ATOM     14  C   UNL     1       1.356   1.642  -0.159  0.00  0.00    +0.091 C 
ATOM     15  C   UNL     1      -0.003   1.011  -0.097  0.00  0.00    +0.163 C 
ATOM     16  O   UNL     1      -0.086  -0.202  -0.108  0.00  0.00    -0.292 OA
ATOM     17  H   UNL     1      -4.210   1.539  -0.989  0.00  0.00    +0.147 HD
ATOM     18  H   UNL     1      -2.220   4.701  -0.538  0.00  0.00    +0.152 HD
ENDROOT
BRANCH   8  19
ATOM     19  C   UNL     1      -2.534   0.241   1.328  0.00  0.00    -0.021 A 
ATOM     20  C   UNL     1      -2.457  -1.138   1.387  0.00  0.00    +0.006 A 
ATOM     21  C   UNL     1      -2.532  -1.783   2.607  0.00  0.00    +0.003 A 
ATOM     22  C   UNL     1      -2.684  -1.049   3.768  0.00  0.00    +0.033 A 
ATOM     23  C   UNL     1      -2.760   0.330   3.710  0.00  0.00    +0.127 A 
ATOM     24  C   UNL     1      -2.680   0.975   2.489  0.00  0.00    +0.038 A 
BRANCH  23  25
ATOM     25  N   UNL     1      -2.921   1.116   4.953  0.00  0.00    +0.056 N 
ATOM     26  O   UNL     1      -2.988   0.548   6.029  0.00  0.00    -0.126 OA
ATOM     27  O   UNL     1      -2.988   2.331   4.902  0.00  0.00    -0.126 OA
ENDBRANCH  23  25
ENDBRANCH   8  19
BRANCH  13  28
ATOM     28  C   UNL     1       2.558   3.724  -0.799  0.00  0.00    +0.109 A 
ATOM     29  C   UNL     1       3.232   4.145  -1.884  0.00  0.00    +0.045 A 
ATOM     30  C   UNL     1       4.427   4.742  -1.417  0.00  0.00    +0.041 A 
ATOM     31  C   UNL     1       4.410   4.649  -0.076  0.00  0.00    +0.195 A 
ATOM     32  O   UNL     1       3.273   4.037   0.294  0.00  0.00    -0.468 OA
ENDBRANCH  13  28
TORSDOF 3
