REMARK  Name = ZINC35442669
REMARK  10 active torsions:
REMARK  status: ('A' for Active; 'I' for Inactive)
REMARK    1  A    between atoms: C_1  and  C_2
REMARK    2  A    between atoms: C_5  and  C_8
REMARK    3  A    between atoms: C_11  and  C_13
REMARK    4  A    between atoms: C_13  and  C_14
REMARK    5  A    between atoms: C_17  and  C_37
REMARK    6  A    between atoms: C_19  and  C_24
REMARK    7  A    between atoms: C_22  and  C_23
REMARK    8  A    between atoms: C_24  and  N_25
REMARK    9  A    between atoms: C_37  and  C_38
REMARK   10  A    between atoms: C_37  and  C_39
REMARK                            x       y       z     vdW  Elec       q    Type
REMARK                         _______ _______ _______ _____ _____    ______ ____
ROOT
ATOM      1  C   UNL     1       1.220  -8.000   1.801  0.00  0.00    +0.024 C 
ATOM      2  C   UNL     1       1.401  -9.345   2.507  0.00  0.00    +0.012 C 
ATOM      3  C   UNL     1       0.999  -9.180   3.978  0.00  0.00    -0.003 C 
ATOM      4  C   UNL     1       2.016  -8.259   4.657  0.00  0.00    -0.002 C 
ATOM      5  C   UNL     1       2.219  -7.019   3.837  0.00  0.00    -0.026 C 
ATOM      6  C   UNL     1       1.876  -6.909   2.596  0.00  0.00    -0.073 C 
ATOM      7  C   UNL     1       2.155  -5.600   1.905  0.00  0.00    +0.039 C 
ENDROOT
BRANCH   3   8
ATOM      8  C   UNL     1       0.994 -10.546   4.667  0.00  0.00    -0.014 C 
ATOM      9  C   UNL     1      -0.104 -11.420   4.059  0.00  0.00    +0.007 C 
ATOM     10  C   UNL     1       2.353 -11.221   4.469  0.00  0.00    +0.007 C 
ENDBRANCH   3   8
BRANCH   1  11
ATOM     11  C   UNL     1      -0.274  -7.697   1.662  0.00  0.00    +0.105 C 
BRANCH  11  15
ATOM     12  C   UNL     1      -0.690  -4.376   0.276  0.00  0.00    +0.248 A 
ATOM     13  N   UNL     1      -0.725  -5.137  -0.793  0.00  0.00    -0.107 NA
ATOM     14  N   UNL     1      -0.586  -6.367  -0.441  0.00  0.00    -0.112 NA
ATOM     15  C   UNL     1      -0.458  -6.439   0.854  0.00  0.00    +0.218 A 
ATOM     16  O   UNL     1      -0.515  -5.186   1.338  0.00  0.00    -0.420 OA
BRANCH  12  21
ATOM     17  C   UNL     1      -1.171   1.358   0.397  0.00  0.00    +0.044 C 
ATOM     18  C   UNL     1      -1.045  -0.144   0.365  0.00  0.00    -0.050 A 
ATOM     19  C   UNL     1      -1.107  -0.815  -0.843  0.00  0.00    +0.004 A 
ATOM     20  C   UNL     1      -0.992  -2.189  -0.879  0.00  0.00    +0.013 A 
ATOM     21  C   UNL     1      -0.813  -2.903   0.307  0.00  0.00    +0.038 A 
ATOM     22  C   UNL     1      -0.752  -2.220   1.522  0.00  0.00    +0.013 A 
ATOM     23  C   UNL     1      -0.862  -0.845   1.544  0.00  0.00    +0.004 A 
ENDBRANCH  12  21
ENDBRANCH  11  15
ENDBRANCH   1  11
BRANCH   4  24
ATOM     24  C   UNL     1       1.499  -7.868   6.043  0.00  0.00    -0.071 C 
BRANCH  24  25
ATOM     25  N   UNL     1       2.515  -7.064   6.736  0.00  0.00    +0.382 N 
ATOM     26  C   UNL     1       3.709  -7.886   6.972  0.00  0.00    -0.060 C 
ATOM     27  C   UNL     1       4.811  -7.018   7.590  0.00  0.00    +0.088 C 
ATOM     28  N   UNL     1       4.272  -6.369   8.795  0.00  0.00    -0.318 N 
ATOM     29  C   UNL     1       2.989  -5.658   8.685  0.00  0.00    +0.088 C 
ATOM     30  C   UNL     1       1.974  -6.590   8.015  0.00  0.00    -0.060 C 
ATOM     31  C   UNL     1       4.956  -6.426  10.004  0.00  0.00    +0.139 A 
ATOM     32  C   UNL     1       6.261  -6.912  10.046  0.00  0.00    +0.154 A 
ATOM     33  N   UNL     1       6.906  -6.965  11.195  0.00  0.00    -0.258 NA
ATOM     34  C   UNL     1       6.316  -6.556  12.306  0.00  0.00    +0.130 A 
ATOM     35  C   UNL     1       5.022  -6.073  12.268  0.00  0.00    +0.132 A 
ATOM     36  N   UNL     1       4.370  -6.012  11.120  0.00  0.00    -0.237 NA
ATOM     37  H   UNL     1       2.763  -6.272   6.162  0.00  0.00    -0.082 HD
ENDBRANCH  24  25
ENDBRANCH   4  24
TORSDOF 6
