REMARK  Name = ZINC49070217
REMARK  9 active torsions:
REMARK  status: ('A' for Active; 'I' for Inactive)
REMARK    1  A    between atoms: C_1  and  C_2
REMARK    2  A    between atoms: C_8  and  C_40
REMARK    3  A    between atoms: C_9  and  C_10
REMARK    4  A    between atoms: N_17  and  C_22
REMARK    5  A    between atoms: C_22  and  C_23
REMARK    6  A    between atoms: C_23  and  C_24
REMARK    7  A    between atoms: C_24  and  C_26
REMARK    8  A    between atoms: C_24  and  N_32
REMARK    9  A    between atoms: C_33  and  C_35
REMARK                            x       y       z     vdW  Elec       q    Type
REMARK                         _______ _______ _______ _____ _____    ______ ____
ROOT
ATOM      1  C   UNL     1      -0.021   0.167   2.398  0.00  0.00    +0.249 C 
ATOM      2  O   UNL     1       0.122  -0.371   3.479  0.00  0.00    -0.270 OA
ATOM      3  N   UNL     1      -0.201   1.501   2.328  0.00  0.00    -0.297 N 
ATOM      4  C   UNL     1      -0.499   2.324   1.131  0.00  0.00    +0.110 C 
ATOM      5  C   UNL     1      -1.567   3.330   1.614  0.00  0.00    -0.007 C 
ATOM      6  C   UNL     1      -2.961   2.685   1.461  0.00  0.00    -0.074 C 
ATOM      7  N   UNL     1      -3.664   3.000   2.730  0.00  0.00    +0.380 N 
ATOM      8  C   UNL     1      -2.622   2.837   3.775  0.00  0.00    -0.074 C 
ATOM      9  C   UNL     1      -1.332   3.442   3.147  0.00  0.00    -0.007 C 
ATOM     10  C   UNL     1      -0.152   2.493   3.430  0.00  0.00    +0.110 C 
ATOM     11  H   UNL     1      -4.006   3.950   2.718  0.00  0.00    -0.082 HD
ENDROOT
BRANCH   1  20
ATOM     12  C   UNL     1      -2.397  -1.342   1.607  0.00  0.00    +0.045 C 
ATOM     13  C   UNL     1      -1.143  -1.375   0.771  0.00  0.00    -0.032 A 
ATOM     14  C   UNL     1      -1.096  -2.106  -0.374  0.00  0.00    +0.074 A 
ATOM     15  C   UNL     1       0.085  -2.122  -1.139  0.00  0.00    +0.249 A 
ATOM     16  O   UNL     1       0.132  -2.776  -2.167  0.00  0.00    -0.268 OA
ATOM     17  N   UNL     1       1.163  -1.420  -0.744  0.00  0.00    -0.326 N 
ATOM     18  H   UNL     1       1.970  -1.441  -1.282  0.00  0.00    +0.169 HD
ATOM     19  C   UNL     1       1.140  -0.689   0.386  0.00  0.00    +0.028 A 
ATOM     20  C   UNL     1       0.002  -0.640   1.164  0.00  0.00    +0.059 A 
ATOM     21  C   UNL     1       2.364   0.086   0.801  0.00  0.00    +0.064 C 
ENDBRANCH   1  20
BRANCH   7  22
ATOM     22  C   UNL     1      -4.768   2.057   2.953  0.00  0.00    -0.077 C 
BRANCH  22  23
ATOM     23  C   UNL     1      -5.553   2.476   4.198  0.00  0.00    +0.008 C 
BRANCH  23  24
ATOM     24  C   UNL     1      -6.703   1.493   4.430  0.00  0.00    +0.101 C 
BRANCH  24  25
ATOM     25  C   UNL     1      -7.401   1.833   5.722  0.00  0.00    -0.027 A 
ATOM     26  C   UNL     1      -8.324   2.861   5.759  0.00  0.00    +0.005 A 
ATOM     27  C   UNL     1      -8.964   3.172   6.944  0.00  0.00    +0.000 A 
ATOM     28  C   UNL     1      -8.681   2.456   8.092  0.00  0.00    +0.000 A 
ATOM     29  C   UNL     1      -7.758   1.427   8.054  0.00  0.00    +0.000 A 
ATOM     30  C   UNL     1      -7.121   1.113   6.868  0.00  0.00    +0.005 A 
ENDBRANCH  24  25
BRANCH  24  31
ATOM     31  N   UNL     1      -7.656   1.586   3.321  0.00  0.00    -0.308 N 
ATOM     32  C   UNL     1      -8.445   0.535   3.021  0.00  0.00    +0.217 C 
ATOM     33  O   UNL     1      -8.366  -0.487   3.669  0.00  0.00    -0.275 OA
ATOM     34  H   UNL     1      -7.719   2.403   2.803  0.00  0.00    +0.149 HD
BRANCH  32  35
ATOM     35  C   UNL     1      -9.425   0.630   1.881  0.00  0.00    +0.075 C 
ATOM     36  C   UNL     1     -10.470   1.727   2.172  0.00  0.00    +0.013 C 
ATOM     37  C   UNL     1     -11.791   1.155   1.602  0.00  0.00    +0.001 C 
ATOM     38  C   UNL     1     -11.692  -0.350   1.954  0.00  0.00    +0.001 C 
ATOM     39  C   UNL     1     -10.202  -0.691   1.742  0.00  0.00    +0.013 C 
ENDBRANCH  32  35
ENDBRANCH  24  31
ENDBRANCH  23  24
ENDBRANCH  22  23
ENDBRANCH   7  22
TORSDOF 7
