REMARK  Name = ZINC65026896
REMARK  13 active torsions:
REMARK  status: ('A' for Active; 'I' for Inactive)
REMARK    1  A    between atoms: C_1  and  C_2
REMARK    2  A    between atoms: C_2  and  C_3
REMARK    3  A    between atoms: C_3  and  C_5
REMARK    4  A    between atoms: C_3  and  N_6
REMARK    5  A    between atoms: N_6  and  C_7
REMARK    6  A    between atoms: N_6  and  C_31
REMARK    7  A    between atoms: C_7  and  C_8
REMARK    8  A    between atoms: C_8  and  N_9
REMARK    9  A    between atoms: C_10  and  C_12
REMARK   10  A    between atoms: C_15  and  C_18
REMARK   11  A    between atoms: C_27  and  C_29
REMARK   12  A    between atoms: C_29  and  C_30
REMARK   13  A    between atoms: C_31  and  C_32
REMARK                            x       y       z     vdW  Elec       q    Type
REMARK                         _______ _______ _______ _____ _____    ______ ____
ROOT
ATOM      1  C   UNL     1       5.084  -4.346   4.566  0.00  0.00    +0.037 A 
ATOM      2  C   UNL     1       5.462  -3.450   5.569  0.00  0.00    +0.013 A 
ATOM      3  C   UNL     1       6.164  -3.901   6.665  0.00  0.00    +0.009 A 
ATOM      4  C   UNL     1       6.497  -5.252   6.773  0.00  0.00    -0.018 A 
ATOM      5  C   UNL     1       6.120  -6.147   5.771  0.00  0.00    +0.009 A 
ATOM      6  C   UNL     1       5.413  -5.699   4.678  0.00  0.00    +0.013 A 
ENDROOT
BRANCH   4   7
ATOM      7  C   UNL     1       7.252  -5.736   7.952  0.00  0.00    -0.018 A 
ATOM      8  C   UNL     1       7.627  -4.846   8.959  0.00  0.00    +0.010 A 
ATOM      9  C   UNL     1       8.329  -5.299  10.052  0.00  0.00    +0.024 A 
ATOM     10  C   UNL     1       8.672  -6.649  10.165  0.00  0.00    +0.040 A 
ATOM     11  C   UNL     1       8.296  -7.530   9.161  0.00  0.00    -0.024 A 
ATOM     12  C   UNL     1       7.588  -7.084   8.065  0.00  0.00    +0.014 A 
ATOM     13  C   UNL     1       8.786  -8.913   9.527  0.00  0.00    +0.056 C 
ATOM     14  C   UNL     1       9.498  -8.727  10.877  0.00  0.00    +0.118 C 
ATOM     15  N   UNL     1       9.373  -7.300  11.184  0.00  0.00    -0.271 N 
ATOM     16  C   UNL     1       9.862  -6.701  12.288  0.00  0.00    +0.220 C 
ATOM     17  O   UNL     1      10.459  -7.355  13.118  0.00  0.00    -0.275 OA
BRANCH  16  18
ATOM     18  C   UNL     1       9.667  -5.221  12.492  0.00  0.00    +0.093 C 
ATOM     19  C   UNL     1      10.314  -4.799  13.813  0.00  0.00    +0.013 C 
ENDBRANCH  16  18
ENDBRANCH   4   7
BRANCH   1  21
ATOM     20  N   UNL     1       4.014  -2.558   3.283  0.00  0.00    -0.313 N 
ATOM     21  C   UNL     1       4.331  -3.863   3.390  0.00  0.00    +0.244 C 
ATOM     22  O   UNL     1       3.998  -4.643   2.520  0.00  0.00    -0.270 OA
ATOM     23  H   UNL     1       4.280  -1.935   3.977  0.00  0.00    +0.149 HD
BRANCH  20  24
ATOM     24  C   UNL     1       3.267  -2.079   2.117  0.00  0.00    +0.086 C 
BRANCH  24  25
ATOM     25  C   UNL     1       3.040  -0.571   2.241  0.00  0.00    -0.059 C 
BRANCH  25  26
ATOM     26  N   UNL     1       2.199  -0.109   1.128  0.00  0.00    +0.385 N 
ATOM     27  H   UNL     1       2.605  -0.408   0.254  0.00  0.00    -0.081 HD
BRANCH  26  28
ATOM     28  C   UNL     1       0.852  -0.679   1.263  0.00  0.00    -0.071 C 
ATOM     29  C   UNL     1       0.202  -0.784  -0.118  0.00  0.00    -0.013 C 
BRANCH  28  31
ATOM     30  C   UNL     1       0.567   0.206   3.582  0.00  0.00    +0.002 C 
ATOM     31  C   UNL     1       0.003   0.225   2.159  0.00  0.00    -0.019 C 
ENDBRANCH  28  31
ENDBRANCH  26  28
BRANCH  26  32
ATOM     32  C   UNL     1       2.115   1.357   1.153  0.00  0.00    -0.035 C 
BRANCH  32  33
ATOM     33  C   UNL     1       1.448   1.844  -0.107  0.00  0.00    -0.027 A 
ATOM     34  C   UNL     1       0.157   2.209  -0.303  0.00  0.00    +0.009 A 
ATOM     35  C   UNL     1      -0.237   2.629  -1.560  0.00  0.00    +0.008 A 
ATOM     36  C   UNL     1       0.679   2.663  -2.559  0.00  0.00    +0.045 A 
ATOM     37  S   UNL     1       2.154   2.096  -1.728  0.00  0.00    -0.103 S 
ENDBRANCH  32  33
ENDBRANCH  26  32
ENDBRANCH  25  26
ENDBRANCH  24  25
ENDBRANCH  20  24
ENDBRANCH   1  21
TORSDOF 10
