REMARK  Name = ZINC12703400
REMARK  9 active torsions:
REMARK  status: ('A' for Active; 'I' for Inactive)
REMARK    1  A    between atoms: C_3  and  C_6
REMARK    2  A    between atoms: C_6  and  C_8
REMARK    3  A    between atoms: C_6  and  N_16
REMARK    4  A    between atoms: N_10  and  C_11
REMARK    5  A    between atoms: N_16  and  C_17
REMARK    6  A    between atoms: C_17  and  C_18
REMARK    7  A    between atoms: C_23  and  C_25
REMARK    8  A    between atoms: C_28  and  C_30
REMARK    9  A    between atoms: C_30  and  N_66
REMARK                            x       y       z     vdW  Elec       q    Type
REMARK                         _______ _______ _______ _____ _____    ______ ____
ROOT
ATOM      1  N   UNL     1       0.364   5.588   5.236  0.00  0.00    -0.272 N 
ATOM      2  C   UNL     1      -0.274   4.414   5.410  0.00  0.00    +0.283 C 
ATOM      3  O   UNL     1      -0.652   4.085   6.519  0.00  0.00    -0.267 OA
ENDROOT
BRANCH   2   4
ATOM      4  C   UNL     1      -0.512   3.532   4.263  0.00  0.00    +0.190 A 
ATOM      5  C   UNL     1      -1.028   2.269   4.316  0.00  0.00    +0.055 A 
ATOM      6  C   UNL     1      -1.081   1.799   2.994  0.00  0.00    +0.043 A 
ATOM      7  C   UNL     1      -0.601   2.783   2.203  0.00  0.00    +0.090 A 
ATOM      8  O   UNL     1      -0.254   3.824   2.971  0.00  0.00    -0.457 OA
BRANCH   7   9
ATOM      9  C   UNL     1      -0.470   2.718   0.703  0.00  0.00    -0.003 C 
BRANCH   9  15
ATOM     10  C   UNL     1      -1.510   3.410  -1.373  0.00  0.00    -0.050 C 
ATOM     11  C   UNL     1      -2.811   3.936  -1.986  0.00  0.00    +0.141 C 
ATOM     12  O   UNL     1      -3.159   5.175  -1.364  0.00  0.00    -0.383 OA
ATOM     13  C   UNL     1      -3.333   5.079   0.052  0.00  0.00    +0.141 C 
ATOM     14  C   UNL     1      -2.038   4.565   0.687  0.00  0.00    -0.050 C 
ATOM     15  N   UNL     1      -1.701   3.257   0.085  0.00  0.00    +0.387 N 
ATOM     16  H   UNL     1      -2.474   2.603   0.254  0.00  0.00    -0.081 HD
ENDBRANCH   9  15
ENDBRANCH   7   9
ENDBRANCH   2   4
BRANCH   1  17
ATOM     17  C   UNL     1       0.516   6.513   6.362  0.00  0.00    +0.229 C 
BRANCH  17  20
ATOM     18  C   UNL     1      -0.966   9.867   5.986  0.00  0.00    +0.041 A 
ATOM     19  C   UNL     1      -0.695   8.711   6.755  0.00  0.00    +0.047 A 
ATOM     20  C   UNL     1       0.003   7.874   5.966  0.00  0.00    +0.134 A 
ATOM     21  O   UNL     1       0.161   8.454   4.766  0.00  0.00    -0.465 OA
ATOM     22  C   UNL     1      -0.425   9.663   4.772  0.00  0.00    +0.195 A 
ENDBRANCH  17  20
BRANCH  17  23
ATOM     23  C   UNL     1       1.972   6.614   6.736  0.00  0.00    +0.241 C 
ATOM     24  O   UNL     1       2.771   5.823   6.281  0.00  0.00    -0.273 OA
ATOM     25  N   UNL     1       2.386   7.583   7.576  0.00  0.00    -0.311 N 
ATOM     26  H   UNL     1       1.747   8.216   7.940  0.00  0.00    +0.149 HD
BRANCH  25  27
ATOM     27  C   UNL     1       3.802   7.681   7.940  0.00  0.00    +0.073 C 
ATOM     28  C   UNL     1       4.095   6.793   9.167  0.00  0.00    +0.022 C 
ATOM     29  C   UNL     1       5.127   7.607   9.987  0.00  0.00    +0.002 C 
ATOM     30  C   UNL     1       4.630   9.064   9.813  0.00  0.00    +0.002 C 
ATOM     31  C   UNL     1       4.142   9.124   8.351  0.00  0.00    +0.022 C 
ENDBRANCH  25  27
ENDBRANCH  17  23
ENDBRANCH   1  17
BRANCH   1  32
ATOM     32  C   UNL     1       0.905   5.940   3.921  0.00  0.00    +0.151 C 
BRANCH  32  33
ATOM     33  C   UNL     1       2.272   5.326   3.760  0.00  0.00    +0.007 A 
ATOM     34  C   UNL     1       2.603   4.070   3.370  0.00  0.00    +0.013 A 
ATOM     35  C   UNL     1       3.939   3.723   3.292  0.00  0.00    +0.008 A 
ATOM     36  C   UNL     1       4.878   4.649   3.607  0.00  0.00    +0.045 A 
ATOM     37  S   UNL     1       3.875   6.065   4.025  0.00  0.00    -0.100 S 
ENDBRANCH  32  33
ENDBRANCH   1  32
TORSDOF 9
