REMARK  Name = ZINC08789522
REMARK  8 active torsions:
REMARK  status: ('A' for Active; 'I' for Inactive)
REMARK    1  A    between atoms: C_1  and  C_2
REMARK    2  A    between atoms: C_2  and  C_3
REMARK    3  A    between atoms: C_2  and  C_4
REMARK    4  A    between atoms: C_4  and  C_5
REMARK    5  A    between atoms: N_13  and  C_16
REMARK    6  A    between atoms: C_16  and  C_17
REMARK    7  A    between atoms: C_22  and  O_23
REMARK    8  A    between atoms: O_23  and  C_24
REMARK                            x       y       z     vdW  Elec       q    Type
REMARK                         _______ _______ _______ _____ _____    ______ ____
ROOT
ATOM      1  C   UNL     1       4.208  -0.164   0.731  0.00  0.00    -0.057 C 
ATOM      2  C   UNL     1       3.606   0.004  -0.680  0.00  0.00    +0.073 C 
ATOM      3  C   UNL     1       2.454   1.033  -0.503  0.00  0.00    +0.088 C 
ATOM      4  C   UNL     1       1.216   0.227  -0.826  0.00  0.00    +0.225 C 
ATOM      5  O   UNL     1       0.081   0.653  -0.818  0.00  0.00    -0.275 OA
ATOM      6  N   UNL     1       1.567  -1.029  -1.122  0.00  0.00    -0.237 N 
ATOM      7  C   UNL     1       2.883  -1.265  -1.069  0.00  0.00    +0.224 C 
ATOM      8  O   UNL     1       3.413  -2.331  -1.297  0.00  0.00    -0.275 OA
ATOM      9  C   UNL     1       2.469   1.374   0.992  0.00  0.00    +0.050 C 
ATOM     10  C   UNL     1       1.081   1.609   1.517  0.00  0.00    -0.028 A 
ATOM     11  C   UNL     1      -0.054   0.832   1.576  0.00  0.00    +0.004 A 
ATOM     12  C   UNL     1      -1.216   1.345   2.125  0.00  0.00    +0.000 A 
ATOM     13  C   UNL     1      -1.231   2.634   2.625  0.00  0.00    +0.002 A 
ATOM     14  C   UNL     1      -0.095   3.416   2.569  0.00  0.00    +0.023 A 
ATOM     15  C   UNL     1       1.077   2.909   2.013  0.00  0.00    +0.036 A 
ATOM     16  N   UNL     1       2.335   3.494   1.846  0.00  0.00    -0.286 N 
ATOM     17  C   UNL     1       3.209   2.658   1.255  0.00  0.00    +0.211 C 
ATOM     18  O   UNL     1       4.368   2.893   0.986  0.00  0.00    -0.277 OA
ATOM     19  H   UNL     1       2.553   4.398   2.124  0.00  0.00    +0.155 HD
ATOM     20  N   UNL     1       3.127   0.247   1.629  0.00  0.00    +0.394 N 
ATOM     21  H   UNL     1       3.509   0.527   2.540  0.00  0.00    -0.083 HD
ATOM     22  H   UNL     1       2.462  -0.524   1.760  0.00  0.00    -0.083 HD
ENDROOT
BRANCH   1  23
ATOM     23  C   UNL     1       5.418   0.757   0.906  0.00  0.00    -0.012 C 
BRANCH  23  25
ATOM     24  C   UNL     1       5.960  -0.206   3.146  0.00  0.00    +0.007 C 
ATOM     25  C   UNL     1       5.605   1.076   2.391  0.00  0.00    -0.019 C 
ATOM     26  C   UNL     1       6.735   2.094   2.555  0.00  0.00    +0.007 C 
ENDBRANCH  23  25
ENDBRANCH   1  23
BRANCH   6  27
ATOM     27  C   UNL     1       0.591  -2.063  -1.476  0.00  0.00    +0.155 C 
BRANCH  27  28
ATOM     28  C   UNL     1       0.376  -2.061  -2.967  0.00  0.00    +0.012 A 
ATOM     29  C   UNL     1      -0.732  -1.434  -3.506  0.00  0.00    +0.009 A 
ATOM     30  C   UNL     1      -0.930  -1.432  -4.874  0.00  0.00    +0.001 A 
ATOM     31  C   UNL     1      -0.020  -2.056  -5.707  0.00  0.00    +0.004 A 
ATOM     32  C   UNL     1       1.089  -2.684  -5.174  0.00  0.00    +0.046 A 
ATOM     33  C   UNL     1       1.292  -2.683  -3.802  0.00  0.00    +0.125 A 
BRANCH  33  34
ATOM     34  O   UNL     1       2.386  -3.295  -3.275  0.00  0.00    -0.495 OA
ATOM     35  C   UNL     1       3.287  -3.916  -4.194  0.00  0.00    +0.277 C 
ENDBRANCH  33  34
ENDBRANCH  27  28
ENDBRANCH   6  27
TORSDOF 5
