REMARK  Name = ZINC02985510
REMARK  4 active torsions:
REMARK  status: ('A' for Active; 'I' for Inactive)
REMARK    1  A    between atoms: C_10  and  C_11
REMARK    2  A    between atoms: C_11  and  O_12
REMARK    3  A    between atoms: O_12  and  C_13
REMARK    4  A    between atoms: C_18  and  C_19
REMARK                            x       y       z     vdW  Elec       q    Type
REMARK                         _______ _______ _______ _____ _____    ______ ____
ROOT
ATOM      1  C   UNL     1      -0.920   1.965   0.042  0.00  0.00    +0.128 A 
ATOM      2  C   UNL     1       0.336   1.444  -0.227  0.00  0.00    +0.048 A 
ATOM      3  C   UNL     1       1.317   2.245  -0.776  0.00  0.00    +0.023 A 
ATOM      4  C   UNL     1       1.059   3.580  -1.060  0.00  0.00    +0.042 A 
ATOM      5  C   UNL     1      -0.179   4.120  -0.796  0.00  0.00    +0.031 A 
ATOM      6  C   UNL     1      -1.187   3.319  -0.238  0.00  0.00    +0.019 A 
ATOM      7 CL   UNL     1       2.305   4.572  -1.750  0.00  0.00    -0.084 Cl
ENDROOT
BRANCH   6   8
ATOM      8  C   UNL     1      -2.505   3.884   0.045  0.00  0.00    +0.029 C 
ATOM      9  C   UNL     1      -2.612   5.074   0.738  0.00  0.00    +0.100 C 
ATOM     10  C   UNL     1      -1.442   5.696   1.387  0.00  0.00    +0.255 C 
ATOM     11  O   UNL     1      -0.344   5.174   1.331  0.00  0.00    -0.270 OA
ATOM     12  N   UNL     1      -1.622   6.862   2.042  0.00  0.00    -0.263 N 
ATOM     13  C   UNL     1      -2.826   7.445   2.117  0.00  0.00    +0.143 C 
ATOM     14  S   UNL     1      -2.959   8.921   2.975  0.00  0.00    -0.018 S 
ATOM     15  N   UNL     1      -3.932   6.936   1.557  0.00  0.00    -0.263 N 
ATOM     16  C   UNL     1      -3.904   5.778   0.866  0.00  0.00    +0.255 C 
ATOM     17  O   UNL     1      -4.915   5.326   0.362  0.00  0.00    -0.270 OA
ATOM     18  H   UNL     1      -0.862   7.286   2.471  0.00  0.00    +0.157 HD
ATOM     19  H   UNL     1      -4.772   7.411   1.651  0.00  0.00    +0.157 HD
ENDBRANCH   6   8
BRANCH   1  20
ATOM     20  O   UNL     1      -1.885   1.177   0.576  0.00  0.00    -0.487 OA
BRANCH  20  21
ATOM     21  C   UNL     1      -1.540  -0.185   0.838  0.00  0.00    +0.265 C 
BRANCH  21  31
ATOM     22  C   UNL     1      -2.501  -4.941   2.467  0.00  0.00    +0.001 A 
ATOM     23  C   UNL     1      -1.391  -4.296   1.924  0.00  0.00    +0.001 A 
ATOM     24  C   UNL     1      -1.444  -2.981   1.578  0.00  0.00    +0.009 A 
ATOM     25  C   UNL     1      -2.635  -2.260   1.769  0.00  0.00    -0.011 A 
ATOM     26  C   UNL     1      -3.764  -2.916   2.321  0.00  0.00    -0.018 A 
ATOM     27  C   UNL     1      -3.671  -4.275   2.666  0.00  0.00    +0.008 A 
ATOM     28  C   UNL     1      -4.955  -2.195   2.513  0.00  0.00    +0.008 A 
ATOM     29  C   UNL     1      -5.008  -0.879   2.167  0.00  0.00    +0.001 A 
ATOM     30  C   UNL     1      -3.897  -0.232   1.631  0.00  0.00    +0.007 A 
ATOM     31  C   UNL     1      -2.729  -0.901   1.425  0.00  0.00    -0.003 A 
ENDBRANCH  21  31
ENDBRANCH  20  21
ENDBRANCH   1  20
TORSDOF 4
