REMARK  Name = ZINC09956377
REMARK  12 active torsions:
REMARK  status: ('A' for Active; 'I' for Inactive)
REMARK    1  A    between atoms: C_1  and  C_2
REMARK    2  A    between atoms: C_2  and  C_3
REMARK    3  A    between atoms: C_3  and  C_4
REMARK    4  A    between atoms: C_4  and  N_5
REMARK    5  A    between atoms: N_5  and  C_6
REMARK    6  A    between atoms: C_7  and  N_18
REMARK    7  A    between atoms: N_8  and  C_15
REMARK    8  A    between atoms: C_15  and  C_16
REMARK    9  A    between atoms: C_16  and  C_17
REMARK   10  A    between atoms: C_19  and  C_21
REMARK   11  A    between atoms: N_23  and  C_31
REMARK   12  A    between atoms: C_25  and  C_26
REMARK                            x       y       z     vdW  Elec       q    Type
REMARK                         _______ _______ _______ _____ _____    ______ ____
ROOT
ATOM      1  N   UNL     1       4.248  -0.505  -0.186  0.00  0.00    -0.260 N 
ATOM      2  C   UNL     1       3.469   0.539  -0.530  0.00  0.00    +0.255 C 
ATOM      3  O   UNL     1       2.265   0.394  -0.630  0.00  0.00    -0.270 OA
ENDROOT
BRANCH   1   4
ATOM      4  C   UNL     1       5.629  -0.315   0.030  0.00  0.00    +0.140 A 
ATOM      5  C   UNL     1       6.076   0.442   1.094  0.00  0.00    +0.127 A 
ATOM      6  N   UNL     1       7.429   0.609   1.278  0.00  0.00    -0.280 N 
ATOM      7  C   UNL     1       8.306   0.042   0.430  0.00  0.00    +0.331 A 
ATOM      8  O   UNL     1       9.498   0.202   0.610  0.00  0.00    -0.246 OA
ATOM      9  N   UNL     1       7.890  -0.698  -0.612  0.00  0.00    -0.273 N 
ATOM     10  H   UNL     1       8.562  -1.104  -1.230  0.00  0.00    +0.173 HD
ATOM     11  C   UNL     1       6.576  -0.898  -0.834  0.00  0.00    +0.277 A 
ATOM     12  O   UNL     1       6.209  -1.575  -1.779  0.00  0.00    -0.266 OA
BRANCH   5  13
ATOM     13  N   UNL     1       5.179   1.021   1.960  0.00  0.00    -0.343 N 
ATOM     14  H   UNL     1       4.231   0.837   1.871  0.00  0.00    +0.144 HD
ATOM     15  H   UNL     1       5.495   1.615   2.659  0.00  0.00    +0.144 HD
ENDBRANCH   5  13
BRANCH   6  16
ATOM     16  C   UNL     1       7.917   1.409   2.404  0.00  0.00    +0.128 C 
BRANCH  16  17
ATOM     17  C   UNL     1       8.121   0.506   3.621  0.00  0.00    +0.018 C 
ATOM     18  C   UNL     1       8.631   1.341   4.797  0.00  0.00    +0.005 C 
ENDBRANCH  16  17
ENDBRANCH   6  16
ENDBRANCH   1   4
BRANCH   2  19
ATOM     19  C   UNL     1       4.076   1.856  -0.786  0.00  0.00    +0.083 A 
ATOM     20  C   UNL     1       5.422   2.157  -0.806  0.00  0.00    +0.128 A 
ATOM     21  N   UNL     1       5.549   3.468  -1.076  0.00  0.00    -0.239 N 
ATOM     22  N   UNL     1       4.284   4.040  -1.235  0.00  0.00    -0.165 NA
ATOM     23  C   UNL     1       3.367   3.110  -1.070  0.00  0.00    +0.112 A 
BRANCH  21  24
ATOM     24  C   UNL     1       6.765   4.155  -1.181  0.00  0.00    +0.065 A 
ATOM     25  C   UNL     1       7.964   3.481  -0.996  0.00  0.00    +0.028 A 
ATOM     26  C   UNL     1       9.161   4.161  -1.105  0.00  0.00    +0.002 A 
ATOM     27  C   UNL     1       9.166   5.514  -1.387  0.00  0.00    +0.000 A 
ATOM     28  C   UNL     1       7.973   6.190  -1.567  0.00  0.00    +0.002 A 
ATOM     29  C   UNL     1       6.773   5.515  -1.465  0.00  0.00    +0.028 A 
ENDBRANCH  21  24
BRANCH  23  30
ATOM     30  C   UNL     1       1.905   3.293  -1.153  0.00  0.00    +0.040 A 
ATOM     31  C   UNL     1       1.147   4.372  -0.778  0.00  0.00    +0.018 A 
ATOM     32  C   UNL     1      -0.218   4.314  -0.953  0.00  0.00    +0.008 A 
ATOM     33  C   UNL     1      -0.770   3.196  -1.491  0.00  0.00    +0.046 A 
ATOM     34  S   UNL     1       0.664   2.171  -1.777  0.00  0.00    -0.095 S 
ENDBRANCH  23  30
ENDBRANCH   2  19
BRANCH   1  35
ATOM     35  C   UNL     1       3.660  -1.839  -0.035  0.00  0.00    +0.114 C 
BRANCH  35  36
ATOM     36  C   UNL     1       3.559  -2.510  -1.406  0.00  0.00    +0.019 C 
BRANCH  36  38
ATOM     37  C   UNL     1       2.724  -4.516  -2.639  0.00  0.00    +0.004 C 
ATOM     38  C   UNL     1       2.825  -3.845  -1.268  0.00  0.00    -0.002 C 
ENDBRANCH  36  38
ENDBRANCH  35  36
ENDBRANCH   1  35
TORSDOF 10
