REMARK  Name = ZINC24033986
REMARK  4 active torsions:
REMARK  status: ('A' for Active; 'I' for Inactive)
REMARK    1  A    between atoms: C_1  and  O_2
REMARK    2  A    between atoms: O_2  and  C_3
REMARK    3  A    between atoms: C_8  and  N_9
REMARK    4  A    between atoms: C_13  and  C_16
REMARK                            x       y       z     vdW  Elec       q    Type
REMARK                         _______ _______ _______ _____ _____    ______ ____
ROOT
ATOM      1  N   UNL     1       3.953   0.056  -0.396  0.00  0.00    -0.221 NA
ATOM      2  C   UNL     1       2.648   0.492  -0.428  0.00  0.00    +0.174 C 
ATOM      3  N   UNL     1       2.350   1.691   0.011  0.00  0.00    -0.215 N 
ATOM      4  N   UNL     1       1.061   2.206   0.011  0.00  0.00    -0.184 NA
ATOM      5  C   UNL     1      -0.021   1.497  -0.001  0.00  0.00    +0.079 C 
ATOM      6  C   UNL     1      -0.001  -0.007  -0.030  0.00  0.00    +0.134 C 
ATOM      7  S   UNL     1       1.384  -0.562  -1.058  0.00  0.00    -0.083 S 
ATOM      8  H   UNL     1       3.184   2.297   0.392  0.00  0.00    +0.176 HD
ENDROOT
BRANCH   5   9
ATOM      9  C   UNL     1      -1.318   2.187   0.008  0.00  0.00    +0.024 A 
ATOM     10  C   UNL     1      -2.549   1.606  -0.007  0.00  0.00    +0.093 A 
ATOM     11  N   UNL     1      -3.513   2.571   0.009  0.00  0.00    -0.360 N 
ATOM     12  H   UNL     1      -4.576   2.287   0.000  0.00  0.00    +0.165 HD
ATOM     13  C   UNL     1      -2.935   3.822   0.035  0.00  0.00    +0.047 A 
ATOM     14  C   UNL     1      -1.542   3.644   0.041  0.00  0.00    +0.009 A 
ATOM     15  C   UNL     1      -0.696   4.750   0.060  0.00  0.00    +0.010 A 
ATOM     16  C   UNL     1      -1.233   6.019   0.083  0.00  0.00    +0.001 A 
ATOM     17  C   UNL     1      -2.609   6.197   0.083  0.00  0.00    +0.002 A 
ATOM     18  C   UNL     1      -3.458   5.112   0.059  0.00  0.00    +0.026 A 
ENDBRANCH   5   9
BRANCH   1  24
ATOM     19  C   UNL     1       6.166   0.433   0.509  0.00  0.00    +0.145 A 
ATOM     20  C   UNL     1       7.174   1.306   0.884  0.00  0.00    +0.048 A 
ATOM     21  C   UNL     1       6.998   2.670   0.738  0.00  0.00    +0.004 A 
ATOM     22  C   UNL     1       5.817   3.167   0.218  0.00  0.00    +0.002 A 
ATOM     23  C   UNL     1       4.809   2.303  -0.164  0.00  0.00    +0.031 A 
ATOM     24  C   UNL     1       4.976   0.933  -0.015  0.00  0.00    +0.108 A 
BRANCH  19  26
ATOM     25  C   UNL     1       7.584  -1.349   1.195  0.00  0.00    +0.277 C 
ATOM     26  O   UNL     1       6.338  -0.908   0.651  0.00  0.00    -0.493 OA
ENDBRANCH  19  26
ENDBRANCH   1  24
TORSDOF 3
