REMARK  Name = ZINC19324458
REMARK  1 active torsions:
REMARK  status: ('A' for Active; 'I' for Inactive)
REMARK    1  A    between atoms: N_14  and  C_17
REMARK                            x       y       z     vdW  Elec       q    Type
REMARK                         _______ _______ _______ _____ _____    ______ ____
ROOT
ATOM      1  C   UNL     1      -0.004   1.402   0.136  0.00  0.00    +0.002 A 
ATOM      2  C   UNL     1       1.184   2.116   0.146  0.00  0.00    +0.004 A 
ATOM      3  C   UNL     1       2.397   1.458   0.112  0.00  0.00    +0.048 A 
ATOM      4  C   UNL     1       2.430   0.074   0.069  0.00  0.00    +0.157 A 
ATOM      5  C   UNL     1       1.230  -0.653   0.059  0.00  0.00    +0.111 A 
ATOM      6  C   UNL     1       0.011   0.025   0.093  0.00  0.00    +0.031 A 
ATOM      7  N   UNL     1       1.572  -1.970   0.015  0.00  0.00    -0.195 NA
ATOM      8  C   UNL     1       2.877  -2.064  -0.002  0.00  0.00    +0.295 A 
ATOM      9  O   UNL     1       3.429  -0.838   0.030  0.00  0.00    -0.424 OA
ATOM     10  N   UNL     1       3.584  -3.249  -0.045  0.00  0.00    -0.242 N 
ATOM     11  C   UNL     1       4.962  -3.229  -0.059  0.00  0.00    +0.185 C 
ATOM     12  N   UNL     1       5.583  -2.092  -0.026  0.00  0.00    -0.240 NA
ATOM     13  C   UNL     1       7.038  -1.981  -0.055  0.00  0.00    +0.233 C 
ATOM     14  N   UNL     1       7.665  -3.241   0.362  0.00  0.00    -0.265 NA
ATOM     15  C   UNL     1       7.098  -4.370  -0.399  0.00  0.00    +0.193 C 
ATOM     16  N   UNL     1       5.657  -4.417  -0.103  0.00  0.00    -0.304 N 
ATOM     17  H   UNL     1       3.111  -4.095  -0.066  0.00  0.00    +0.159 HD
ATOM     18  H   UNL     1       5.207  -5.263   0.053  0.00  0.00    +0.150 HD
ENDROOT
BRANCH  14  19
ATOM     19  C   UNL     1       9.124  -3.180   0.205  0.00  0.00    +0.060 C 
ATOM     20  C   UNL     1       9.691  -2.144   1.197  0.00  0.00    +0.019 C 
ATOM     21  C   UNL     1      11.152  -2.434   1.408  0.00  0.00    +0.002 C 
ATOM     22  C   UNL     1      12.058  -1.609   0.473  0.00  0.00    +0.000 C 
ATOM     23  C   UNL     1      11.510  -1.521  -0.964  0.00  0.00    +0.000 C 
ATOM     24  C   UNL     1      10.954  -2.832  -1.450  0.00  0.00    +0.002 C 
ATOM     25  C   UNL     1       9.436  -2.852  -1.179  0.00  0.00    +0.019 C 
ENDBRANCH  14  19
TORSDOF 1
