REMARK  Name = ZINC38971174
REMARK  7 active torsions:
REMARK  status: ('A' for Active; 'I' for Inactive)
REMARK    1  A    between atoms: C_1  and  C_2
REMARK    2  A    between atoms: C_6  and  S_8
REMARK    3  A    between atoms: S_8  and  N_11
REMARK    4  A    between atoms: C_13  and  N_23
REMARK    5  A    between atoms: N_23  and  C_24
REMARK    6  A    between atoms: C_29  and  O_30
REMARK    7  A    between atoms: O_30  and  C_31
REMARK                            x       y       z     vdW  Elec       q    Type
REMARK                         _______ _______ _______ _____ _____    ______ ____
ROOT
ATOM      1  N   UNL     1       1.496  -3.448   3.147  0.00  0.00    -0.110 NA
ATOM      2  C   UNL     1       1.904  -3.978   4.262  0.00  0.00    +0.192 C 
ATOM      3  C   UNL     1       3.379  -4.030   4.592  0.00  0.00    +0.237 C 
ATOM      4  N   UNL     1       3.775  -4.642   5.870  0.00  0.00    -0.359 N 
ATOM      5  C   UNL     1       2.843  -5.107   6.653  0.00  0.00    +0.063 A 
ATOM      6  C   UNL     1       3.187  -5.728   7.941  0.00  0.00    +0.027 A 
ATOM      7  C   UNL     1       2.192  -6.199   8.726  0.00  0.00    +0.002 A 
ATOM      8  C   UNL     1       0.844  -6.109   8.342  0.00  0.00    +0.002 A 
ATOM      9  C   UNL     1       0.451  -5.553   7.176  0.00  0.00    +0.030 A 
ATOM     10  C   UNL     1       1.411  -5.027   6.274  0.00  0.00    +0.089 A 
ATOM     11  N   UNL     1       1.022  -4.481   5.140  0.00  0.00    -0.226 NA
ATOM     12  H   UNL     1       4.710  -4.698   6.124  0.00  0.00    +0.162 HD
ENDROOT
BRANCH   1  13
ATOM     13  S   UNL     1      -0.123  -3.391   2.801  0.00  0.00    +0.100 S 
ATOM     14  O   UNL     1      -0.711  -2.514   3.752  0.00  0.00    -0.146 OA
ATOM     15  O   UNL     1      -0.551  -4.737   2.638  0.00  0.00    -0.146 OA
BRANCH  13  21
ATOM     16  C   UNL     1      -0.728   0.862  -0.176  0.00  0.00    +0.044 C 
ATOM     17  C   UNL     1      -0.571  -0.634  -0.087  0.00  0.00    -0.049 A 
ATOM     18  C   UNL     1      -0.559  -1.398  -1.240  0.00  0.00    +0.003 A 
ATOM     19  C   UNL     1      -0.415  -2.770  -1.158  0.00  0.00    +0.002 A 
ATOM     20  C   UNL     1      -0.282  -3.379   0.076  0.00  0.00    +0.029 A 
ATOM     21  C   UNL     1      -0.292  -2.615   1.228  0.00  0.00    +0.113 A 
ATOM     22  C   UNL     1      -0.432  -1.242   1.146  0.00  0.00    +0.032 A 
ENDBRANCH  13  21
ENDBRANCH   1  13
BRANCH   3  23
ATOM     23  N   UNL     1       4.051  -4.765   3.518  0.00  0.00    -0.315 N 
ATOM     24  H   UNL     1       3.659  -5.580   3.168  0.00  0.00    +0.149 HD
BRANCH  23  25
ATOM     25  C   UNL     1       5.261  -4.290   2.997  0.00  0.00    +0.071 A 
ATOM     26  C   UNL     1       5.888  -3.199   3.579  0.00  0.00    +0.026 A 
ATOM     27  C   UNL     1       7.083  -2.732   3.062  0.00  0.00    +0.002 A 
ATOM     28  C   UNL     1       7.654  -3.352   1.966  0.00  0.00    +0.004 A 
ATOM     29  C   UNL     1       7.035  -4.440   1.381  0.00  0.00    +0.047 A 
ATOM     30  C   UNL     1       5.840  -4.917   1.895  0.00  0.00    +0.141 A 
BRANCH  30  31
ATOM     31  O   UNL     1       5.232  -5.991   1.324  0.00  0.00    -0.493 OA
ATOM     32  C   UNL     1       5.884  -6.583   0.198  0.00  0.00    +0.277 C 
ENDBRANCH  30  31
ENDBRANCH  23  25
ENDBRANCH   3  23
TORSDOF 5
