REMARK  Name = ZINC28910608
REMARK  11 active torsions:
REMARK  status: ('A' for Active; 'I' for Inactive)
REMARK    1  A    between atoms: C_1  and  N_2
REMARK    2  A    between atoms: N_2  and  C_3
REMARK    3  A    between atoms: N_2  and  C_4
REMARK    4  A    between atoms: C_7  and  C_10
REMARK    5  A    between atoms: C_10  and  C_12
REMARK    6  A    between atoms: C_10  and  C_30
REMARK    7  A    between atoms: C_12  and  N_13
REMARK    8  A    between atoms: C_14  and  C_16
REMARK    9  A    between atoms: C_16  and  C_17
REMARK   10  A    between atoms: C_17  and  C_18
REMARK   11  A    between atoms: C_18  and  N_19
REMARK                            x       y       z     vdW  Elec       q    Type
REMARK                         _______ _______ _______ _____ _____    ______ ____
ROOT
ATOM      1  C   UNL     1      -2.523  -0.808   0.019  0.00  0.00    +0.068 C 
ENDROOT
BRANCH   1   2
ATOM      2  C   UNL     1      -1.036  -1.050   0.011  0.00  0.00    -0.013 A 
ATOM      3  C   UNL     1      -0.421  -2.244   0.008  0.00  0.00    +0.088 A 
ATOM      4  N   UNL     1       0.936  -2.070   0.001  0.00  0.00    -0.360 N 
ATOM      5  H   UNL     1       1.603  -2.945  -0.003  0.00  0.00    +0.165 HD
ATOM      6  C   UNL     1       1.236  -0.726  -0.001  0.00  0.00    +0.047 A 
ATOM      7  C   UNL     1       0.014  -0.028   0.006  0.00  0.00    +0.003 A 
ATOM      8  C   UNL     1       0.009   1.368   0.006  0.00  0.00    +0.010 A 
ATOM      9  C   UNL     1       1.193   2.050   0.000  0.00  0.00    +0.001 A 
ATOM     10  C   UNL     1       2.401   1.367  -0.007  0.00  0.00    +0.002 A 
ATOM     11  C   UNL     1       2.429  -0.011  -0.007  0.00  0.00    +0.026 A 
ENDBRANCH   1   2
BRANCH   1  15
ATOM     12  C   UNL     1      -4.272  -2.567  -3.462  0.00  0.00    +0.029 A 
ATOM     13  C   UNL     1      -4.387  -1.200  -3.239  0.00  0.00    +0.023 A 
ATOM     14  C   UNL     1      -3.821  -0.635  -2.114  0.00  0.00    +0.006 A 
ATOM     15  C   UNL     1      -3.139  -1.428  -1.208  0.00  0.00    -0.038 A 
ATOM     16  C   UNL     1      -3.018  -2.788  -1.429  0.00  0.00    +0.006 A 
ATOM     17  C   UNL     1      -3.587  -3.360  -2.550  0.00  0.00    +0.023 A 
BRANCH  12  19
ATOM     18  C   UNL     1      -5.670  -2.328  -5.494  0.00  0.00    +0.129 C 
ATOM     19  N   UNL     1      -4.843  -3.141  -4.599  0.00  0.00    -0.336 N 
ATOM     20  C   UNL     1      -4.615  -4.557  -4.897  0.00  0.00    +0.129 C 
ENDBRANCH  12  19
ENDBRANCH   1  15
BRANCH   1  21
ATOM     21  C   UNL     1      -3.135  -1.438   1.272  0.00  0.00    +0.117 C 
BRANCH  21  22
ATOM     22  N   UNL     1      -2.625  -0.754   2.462  0.00  0.00    -0.314 N 
ATOM     23  C   UNL     1      -3.030  -1.142   3.688  0.00  0.00    +0.213 C 
ATOM     24  O   UNL     1      -3.817  -2.057   3.805  0.00  0.00    -0.276 OA
ATOM     25  H   UNL     1      -1.911   0.077   2.356  0.00  0.00    +0.149 HD
BRANCH  23  26
ATOM     26  C   UNL     1      -2.504  -0.438   4.913  0.00  0.00    +0.097 C 
BRANCH  26  27
ATOM     27  C   UNL     1      -3.117  -1.068   6.165  0.00  0.00    +0.029 C 
BRANCH  27  28
ATOM     28  C   UNL     1      -2.584  -0.353   7.408  0.00  0.00    +0.117 C 
BRANCH  28  29
ATOM     29  N   UNL     1      -3.171  -0.957   8.608  0.00  0.00    -0.234 N 
ATOM     30  C   UNL     1      -4.316  -0.548   9.183  0.00  0.00    +0.254 C 
ATOM     31  O   UNL     1      -5.017   0.365   8.796  0.00  0.00    -0.270 OA
ATOM     32  C   UNL     1      -4.580  -1.398  10.363  0.00  0.00    +0.049 A 
ATOM     33  C   UNL     1      -5.585  -1.446  11.316  0.00  0.00    +0.014 A 
ATOM     34  C   UNL     1      -5.529  -2.393  12.326  0.00  0.00    +0.001 A 
ATOM     35  C   UNL     1      -4.478  -3.289  12.390  0.00  0.00    +0.001 A 
ATOM     36  C   UNL     1      -3.466  -3.253  11.444  0.00  0.00    +0.014 A 
ATOM     37  C   UNL     1      -3.508  -2.312  10.428  0.00  0.00    +0.049 A 
ATOM     38  C   UNL     1      -2.632  -1.989   9.282  0.00  0.00    +0.254 C 
ATOM     39  O   UNL     1      -1.599  -2.559   8.997  0.00  0.00    -0.270 OA
ENDBRANCH  28  29
ENDBRANCH  27  28
ENDBRANCH  26  27
ENDBRANCH  23  26
ENDBRANCH  21  22
ENDBRANCH   1  21
TORSDOF 9
