REMARK  Name = ZINC67255001
REMARK  13 active torsions:
REMARK  status: ('A' for Active; 'I' for Inactive)
REMARK    1  A    between atoms: C_1  and  C_2
REMARK    2  A    between atoms: C_2  and  N_3
REMARK    3  A    between atoms: N_3  and  C_4
REMARK    4  A    between atoms: C_4  and  C_5
REMARK    5  A    between atoms: C_8  and  C_11
REMARK    6  A    between atoms: C_11  and  N_12
REMARK    7  A    between atoms: N_12  and  C_13
REMARK    8  A    between atoms: N_12  and  C_14
REMARK    9  A    between atoms: N_17  and  C_18
REMARK   10  A    between atoms: C_21  and  N_24
REMARK   11  A    between atoms: C_25  and  C_27
REMARK   12  A    between atoms: C_27  and  C_28
REMARK   13  A    between atoms: C_27  and  C_29
REMARK                            x       y       z     vdW  Elec       q    Type
REMARK                         _______ _______ _______ _____ _____    ______ ____
ROOT
ATOM      1  N   UNL     1       0.718  -0.486   1.232  0.00  0.00    -0.281 N 
ATOM      2  C   UNL     1       2.050  -0.686   1.180  0.00  0.00    +0.307 C 
ATOM      3  O   UNL     1       2.645  -1.076   2.166  0.00  0.00    -0.252 OA
ATOM      4  N   UNL     1       2.722  -0.453   0.035  0.00  0.00    -0.269 N 
ATOM      5  H   UNL     1       2.239  -0.206  -0.769  0.00  0.00    +0.156 HD
ENDROOT
BRANCH   4   6
ATOM      6  C   UNL     1       4.118  -0.567   0.007  0.00  0.00    +0.035 A 
ATOM      7  C   UNL     1       4.751  -1.537   0.772  0.00  0.00    +0.025 A 
ATOM      8  C   UNL     1       6.126  -1.650   0.744  0.00  0.00    +0.025 A 
ATOM      9  C   UNL     1       6.877  -0.792  -0.049  0.00  0.00    +0.034 A 
ATOM     10  C   UNL     1       6.244   0.178  -0.815  0.00  0.00    +0.025 A 
ATOM     11  C   UNL     1       4.868   0.287  -0.791  0.00  0.00    +0.025 A 
BRANCH   9  12
ATOM     12  N   UNL     1       8.273  -0.906  -0.077  0.00  0.00    -0.285 N 
ATOM     13  C   UNL     1       8.853  -2.119   0.018  0.00  0.00    +0.220 C 
ATOM     14  O   UNL     1       8.171  -3.103   0.212  0.00  0.00    -0.275 OA
ATOM     15  H   UNL     1       8.823  -0.111  -0.164  0.00  0.00    +0.155 HD
BRANCH  13  16
ATOM     16  C   UNL     1      10.348  -2.252  -0.116  0.00  0.00    +0.069 C 
ATOM     17  C   UNL     1      11.033  -1.429   0.977  0.00  0.00    +0.017 C 
ATOM     18  C   UNL     1      10.744  -3.723   0.031  0.00  0.00    +0.017 C 
ENDBRANCH  13  16
ENDBRANCH   9  12
ENDBRANCH   4   6
BRANCH   1  20
ATOM     19  C   UNL     1      -0.029   1.514   0.039  0.00  0.00    +0.024 C 
ATOM     20  C   UNL     1       0.001  -0.016   0.044  0.00  0.00    +0.106 C 
ENDBRANCH   1  20
BRANCH   1  21
ATOM     21  C   UNL     1      -0.013  -0.740   2.476  0.00  0.00    +0.144 C 
BRANCH  21  22
ATOM     22  C   UNL     1      -0.481  -2.172   2.501  0.00  0.00    -0.030 A 
ATOM     23  C   UNL     1      -1.714  -2.506   1.974  0.00  0.00    +0.005 A 
ATOM     24  C   UNL     1      -2.143  -3.820   1.997  0.00  0.00    +0.002 A 
ATOM     25  C   UNL     1      -1.339  -4.800   2.546  0.00  0.00    -0.064 A 
ATOM     26  C   UNL     1      -0.105  -4.467   3.073  0.00  0.00    +0.002 A 
ATOM     27  C   UNL     1       0.326  -3.154   3.046  0.00  0.00    +0.005 A 
BRANCH  25  28
ATOM     28  C   UNL     1      -1.807  -6.232   2.572  0.00  0.00    -0.044 C 
BRANCH  28  29
ATOM     29  N   UNL     1      -1.374  -6.911   1.343  0.00  0.00    +0.379 N 
ATOM     30  C   UNL     1       0.093  -6.982   1.314  0.00  0.00    -0.096 C 
ATOM     31  C   UNL     1      -1.931  -8.270   1.313  0.00  0.00    -0.096 C 
ATOM     32  H   UNL     1      -1.702  -6.395   0.541  0.00  0.00    -0.082 HD
ENDBRANCH  28  29
ENDBRANCH  25  28
ENDBRANCH  21  22
ENDBRANCH   1  21
TORSDOF 8
