REMARK  Name = ZINC38549522
REMARK  6 active torsions:
REMARK  status: ('A' for Active; 'I' for Inactive)
REMARK    1  A    between atoms: C_1  and  C_2
REMARK    2  A    between atoms: C_4  and  O_34
REMARK    3  A    between atoms: C_14  and  C_20
REMARK    4  A    between atoms: C_16  and  C_18
REMARK    5  A    between atoms: C_16  and  C_19
REMARK    6  A    between atoms: C_31  and  C_32
REMARK                            x       y       z     vdW  Elec       q    Type
REMARK                         _______ _______ _______ _____ _____    ______ ____
ROOT
ATOM      1  C   UNL     1      -0.019   1.523   0.010  0.00  0.00    +0.015 C 
ATOM      2  C   UNL     1       0.002  -0.004   0.002  0.00  0.00    +0.016 C 
ATOM      3  C   UNL     1      -1.401  -0.560   0.111  0.00  0.00    +0.045 C 
ATOM      4  C   UNL     1      -2.002  -0.099   1.456  0.00  0.00    +0.154 C 
ATOM      5  C   UNL     1      -1.177  -0.577   2.634  0.00  0.00    +0.153 C 
ATOM      6  C   UNL     1       0.315  -0.250   2.506  0.00  0.00    +0.034 C 
ATOM      7  C   UNL     1       0.835  -0.602   1.153  0.00  0.00    +0.007 C 
ATOM      8  C   UNL     1       2.254  -0.176   0.765  0.00  0.00    +0.039 C 
ATOM      9  C   UNL     1       2.278  -0.511  -0.756  0.00  0.00    +0.165 C 
ATOM     10  C   UNL     1       0.799  -0.443  -1.235  0.00  0.00    +0.204 C 
ATOM     11  O   UNL     1       0.454  -1.782  -1.602  0.00  0.00    -0.328 OA
ATOM     12  C   UNL     1       1.687  -2.504  -1.771  0.00  0.00    +0.166 C 
ATOM     13  O   UNL     1       2.643  -1.897  -0.885  0.00  0.00    -0.342 OA
ATOM     14  C   UNL     1       2.173  -2.422  -3.222  0.00  0.00    +0.074 C 
ATOM     15  C   UNL     1       1.483  -3.977  -1.386  0.00  0.00    +0.074 C 
ATOM     16  C   UNL     1       0.560   1.188   2.952  0.00  0.00    +0.011 C 
ATOM     17  C   UNL     1       0.500   1.174   4.485  0.00  0.00    +0.032 C 
ATOM     18  C   UNL     1      -0.728   0.418   4.935  0.00  0.00    -0.053 C 
ATOM     19  C   UNL     1      -0.916   0.348   6.263  0.00  0.00    +0.051 C 
ATOM     20  C   UNL     1      -2.069  -0.400   6.802  0.00  0.00    +0.179 C 
ATOM     21  O   UNL     1      -2.438  -0.255   7.964  0.00  0.00    -0.288 OA
ATOM     22  C   UNL     1      -2.749  -1.357   5.901  0.00  0.00    +0.047 C 
ATOM     23  C   UNL     1      -2.557  -1.263   4.582  0.00  0.00    -0.009 C 
ATOM     24  C   UNL     1      -1.711  -0.175   3.988  0.00  0.00    +0.044 C 
ATOM     25  C   UNL     1      -2.708   0.966   3.768  0.00  0.00    +0.023 C 
ATOM     26  F   UNL     1      -1.252  -1.993   2.610  0.00  0.00    -0.238 F 
ENDROOT
BRANCH  10  27
ATOM     27  C   UNL     1       0.613   0.539  -2.363  0.00  0.00    +0.390 C 
ATOM     28  O   UNL     1       0.942   1.704  -2.218  0.00  0.00    -0.243 OA
ATOM     29  O   UNL     1       0.133   0.169  -3.421  0.00  0.00    -0.243 OA
ENDBRANCH  10  27
BRANCH   4  30
ATOM     30  O   UNL     1      -3.315  -0.677   1.532  0.00  0.00    -0.389 OA
ATOM     31  H   UNL     1      -3.907  -0.407   0.816  0.00  0.00    +0.210 HD
ENDBRANCH   4  30
TORSDOF 2
