REMARK  Name = ZINC08692197
REMARK  7 active torsions:
REMARK  status: ('A' for Active; 'I' for Inactive)
REMARK    1  A    between atoms: C_1  and  C_2
REMARK    2  A    between atoms: C_2  and  O_3
REMARK    3  A    between atoms: O_3  and  C_4
REMARK    4  A    between atoms: C_7  and  N_10
REMARK    5  A    between atoms: C_20  and  N_21
REMARK    6  A    between atoms: N_21  and  N_22
REMARK    7  A    between atoms: C_23  and  C_25
REMARK                            x       y       z     vdW  Elec       q    Type
REMARK                         _______ _______ _______ _____ _____    ______ ____
ROOT
ATOM      1  N   UNL     1       1.008  -5.940  -1.881  0.00  0.00    -0.202 N 
ATOM      2  C   UNL     1       0.610  -6.739  -0.878  0.00  0.00    +0.258 C 
ATOM      3  O   UNL     1       0.115  -6.246   0.118  0.00  0.00    -0.269 OA
ATOM      4  C   UNL     1       0.762  -8.197  -0.962  0.00  0.00    +0.046 A 
ATOM      5  C   UNL     1       0.350  -9.032   0.077  0.00  0.00    +0.014 A 
ATOM      6  C   UNL     1       0.510 -10.396  -0.041  0.00  0.00    +0.001 A 
ATOM      7  C   UNL     1       1.076 -10.947  -1.181  0.00  0.00    +0.001 A 
ATOM      8  C   UNL     1       1.490 -10.139  -2.220  0.00  0.00    +0.009 A 
ATOM      9  C   UNL     1       1.337  -8.761  -2.120  0.00  0.00    +0.000 A 
ATOM     10  C   UNL     1       1.763  -7.851  -3.203  0.00  0.00    +0.060 C 
ATOM     11  C   UNL     1       2.330  -8.340  -4.359  0.00  0.00    +0.101 C 
ATOM     12  C   UNL     1       1.558  -6.410  -3.013  0.00  0.00    +0.259 C 
ATOM     13  O   UNL     1       1.894  -5.633  -3.888  0.00  0.00    -0.269 OA
ENDROOT
BRANCH   1  17
ATOM     14  C   UNL     1       0.500  -1.820  -1.474  0.00  0.00    +0.121 A 
ATOM     15  C   UNL     1       1.777  -2.359  -1.531  0.00  0.00    +0.047 A 
ATOM     16  C   UNL     1       1.946  -3.723  -1.665  0.00  0.00    +0.027 A 
ATOM     17  C   UNL     1       0.837  -4.555  -1.744  0.00  0.00    +0.045 A 
ATOM     18  C   UNL     1      -0.441  -4.015  -1.688  0.00  0.00    +0.027 A 
ATOM     19  C   UNL     1      -0.608  -2.652  -1.548  0.00  0.00    +0.047 A 
BRANCH  14  20
ATOM     20  O   UNL     1       0.334  -0.477  -1.342  0.00  0.00    -0.492 OA
BRANCH  20  22
ATOM     21  C   UNL     1       1.135   1.793  -1.125  0.00  0.00    +0.048 C 
ATOM     22  C   UNL     1       1.519   0.319  -1.272  0.00  0.00    +0.225 C 
ENDBRANCH  20  22
ENDBRANCH  14  20
ENDBRANCH   1  17
BRANCH  11  23
ATOM     23  N   UNL     1       2.852  -7.483  -5.275  0.00  0.00    -0.271 N 
ATOM     24  H   UNL     1       2.901  -6.534  -5.079  0.00  0.00    +0.169 HD
BRANCH  23  25
ATOM     25  N   UNL     1       3.319  -7.969  -6.503  0.00  0.00    -0.234 N 
ATOM     26  C   UNL     1       3.837  -7.119  -7.412  0.00  0.00    +0.273 C 
ATOM     27  O   UNL     1       3.898  -5.933  -7.166  0.00  0.00    -0.270 OA
ATOM     28  H   UNL     1       3.270  -8.918  -6.699  0.00  0.00    +0.173 HD
BRANCH  26  29
ATOM     29  C   UNL     1       4.339  -7.643  -8.732  0.00  0.00    +0.297 C 
ATOM     30  C   UNL     1       3.166  -8.207  -9.545  0.00  0.00    +0.283 C 
ATOM     31  O   UNL     1       3.675  -8.682 -10.797  0.00  0.00    -0.484 OA
ATOM     32  C   UNL     1       4.533  -7.858 -11.460  0.00  0.00    +0.162 A 
ATOM     33  C   UNL     1       4.777  -8.073 -12.808  0.00  0.00    +0.049 A 
ATOM     34  C   UNL     1       5.647  -7.248 -13.494  0.00  0.00    +0.004 A 
ATOM     35  C   UNL     1       6.277  -6.206 -12.839  0.00  0.00    +0.004 A 
ATOM     36  C   UNL     1       6.037  -5.986 -11.496  0.00  0.00    +0.049 A 
ATOM     37  C   UNL     1       5.164  -6.810 -10.802  0.00  0.00    +0.163 A 
ATOM     38  O   UNL     1       4.932  -6.575  -9.481  0.00  0.00    -0.472 OA
ENDBRANCH  26  29
ENDBRANCH  23  25
ENDBRANCH  11  23
TORSDOF 6
