REMARK  Name = ZINC20157680
REMARK  10 active torsions:
REMARK  status: ('A' for Active; 'I' for Inactive)
REMARK    1  A    between atoms: C_1  and  C_2
REMARK    2  A    between atoms: C_2  and  C_3
REMARK    3  A    between atoms: C_2  and  C_4
REMARK    4  A    between atoms: C_14  and  C_40
REMARK    5  A    between atoms: C_18  and  C_19
REMARK    6  A    between atoms: C_18  and  C_20
REMARK    7  A    between atoms: C_20  and  N_21
REMARK    8  A    between atoms: N_21  and  C_22
REMARK    9  A    between atoms: N_32  and  C_33
REMARK   10  A    between atoms: C_33  and  C_34
REMARK                            x       y       z     vdW  Elec       q    Type
REMARK                         _______ _______ _______ _____ _____    ______ ____
ROOT
ATOM      1  C   UNL     1      -0.164   2.233  -2.372  0.00  0.00    -0.073 C 
ENDROOT
BRANCH   1  15
ATOM      2  C   UNL     1       1.930  -1.746   3.346  0.00  0.00    -0.045 A 
ATOM      3  C   UNL     1       0.950  -2.459   2.682  0.00  0.00    +0.004 A 
ATOM      4  C   UNL     1       0.313  -1.894   1.594  0.00  0.00    +0.005 A 
ATOM      5  C   UNL     1       0.649  -0.620   1.168  0.00  0.00    -0.038 A 
ATOM      6  C   UNL     1       1.624   0.096   1.827  0.00  0.00    -0.043 A 
ATOM      7  C   UNL     1       2.264  -0.478   2.921  0.00  0.00    +0.007 A 
ATOM      8  C   UNL     1       2.042   1.490   1.438  0.00  0.00    +0.036 C 
ATOM      9  C   UNL     1       1.486   1.881   0.065  0.00  0.00    +0.009 C 
ATOM     10  C   UNL     1       0.016   1.466   0.033  0.00  0.00    +0.004 C 
ATOM     11  C   UNL     1      -0.073  -0.047  -0.033  0.00  0.00    -0.004 C 
ATOM     12  C   UNL     1      -1.532  -0.496  -0.035  0.00  0.00    +0.011 C 
ATOM     13  C   UNL     1      -2.264   0.157  -1.209  0.00  0.00    +0.001 C 
ATOM     14  C   UNL     1      -2.234   1.673  -1.073  0.00  0.00    +0.005 C 
ATOM     15  C   UNL     1      -0.807   2.219  -0.986  0.00  0.00    -0.044 C 
ATOM     16  C   UNL     1      -0.925   3.691  -0.520  0.00  0.00    +0.009 C 
ATOM     17  C   UNL     1       0.619  -0.618  -1.271  0.00  0.00    +0.016 C 
BRANCH   2  19
ATOM     18  C   UNL     1       1.607  -2.674   5.623  0.00  0.00    +0.012 C 
ATOM     19  C   UNL     1       2.632  -2.354   4.533  0.00  0.00    +0.013 C 
ATOM     20  C   UNL     1       3.339  -3.641   4.103  0.00  0.00    +0.012 C 
ENDBRANCH   2  19
ENDBRANCH   1  15
BRANCH   1  21
ATOM     21  N   UNL     1      -0.986   3.037  -3.286  0.00  0.00    +0.394 N 
ATOM     22  H   UNL     1      -1.993   2.600  -3.353  0.00  0.00    -0.083 HD
ATOM     23  H   UNL     1      -1.058   4.067  -2.905  0.00  0.00    -0.083 HD
BRANCH  21  24
ATOM     24  C   UNL     1      -0.397   3.073  -4.631  0.00  0.00    +0.046 C 
ATOM     25  C   UNL     1      -1.465   2.874  -5.672  0.00  0.00    -0.059 C 
ATOM     26  C   UNL     1      -1.486   3.967  -6.436  0.00  0.00    +0.014 C 
ATOM     27  C   UNL     1      -2.427   4.158  -7.603  0.00  0.00    +0.040 C 
ATOM     28  C   UNL     1      -2.999   2.792  -7.997  0.00  0.00    +0.005 C 
ATOM     29  C   UNL     1      -3.539   2.086  -6.750  0.00  0.00    +0.005 C 
ATOM     30  C   UNL     1      -2.365   1.679  -5.850  0.00  0.00    +0.031 C 
ATOM     31  C   UNL     1      -0.473   4.913  -5.962  0.00  0.00    +0.241 C 
ATOM     32  O   UNL     1      -0.252   6.002  -6.455  0.00  0.00    -0.270 OA
ATOM     33  N   UNL     1       0.179   4.400  -4.898  0.00  0.00    -0.305 N 
BRANCH  33  34
ATOM     34  C   UNL     1       1.258   5.044  -4.146  0.00  0.00    +0.138 C 
BRANCH  34  35
ATOM     35  C   UNL     1       2.606   4.669  -4.767  0.00  0.00    +0.136 C 
ATOM     36  C   UNL     1       3.755   5.244  -3.911  0.00  0.00    +0.035 C 
ATOM     37  C   UNL     1       4.770   5.708  -4.993  0.00  0.00    +0.031 C 
ATOM     38  C   UNL     1       3.811   6.163  -6.122  0.00  0.00    +0.160 C 
ATOM     39  O   UNL     1       2.713   5.239  -6.077  0.00  0.00    -0.375 OA
ENDBRANCH  34  35
ENDBRANCH  33  34
ENDBRANCH  21  24
ENDBRANCH   1  21
TORSDOF 6
