REMARK  Name = ZINC09455986
REMARK  17 active torsions:
REMARK  status: ('A' for Active; 'I' for Inactive)
REMARK    1  A    between atoms: C_1  and  C_2
REMARK    2  A    between atoms: C_2  and  N_74
REMARK    3  A    between atoms: C_3  and  C_4
REMARK    4  A    between atoms: C_3  and  N_74
REMARK    5  A    between atoms: C_5  and  C_6
REMARK    6  A    between atoms: C_5  and  N_74
REMARK    7  A    between atoms: C_6  and  N_7
REMARK    8  A    between atoms: C_8  and  C_27
REMARK    9  A    between atoms: C_10  and  C_15
REMARK   10  A    between atoms: C_11  and  O_14
REMARK   11  A    between atoms: C_15  and  C_17
REMARK   12  A    between atoms: C_30  and  O_36
REMARK   13  A    between atoms: C_31  and  O_33
REMARK   14  A    between atoms: O_33  and  C_34
REMARK   15  A    between atoms: C_34  and  C_35
REMARK   16  A    between atoms: O_36  and  C_37
REMARK   17  A    between atoms: C_37  and  C_38
REMARK                            x       y       z     vdW  Elec       q    Type
REMARK                         _______ _______ _______ _____ _____    ______ ____
ROOT
ATOM      1  N   UNL     1       6.906   2.166  -0.289  0.00  0.00    -0.285 N 
ATOM      2  C   UNL     1       5.689   1.378  -0.514  0.00  0.00    +0.144 C 
ATOM      3  C   UNL     1       6.125  -0.068  -0.554  0.00  0.00    +0.071 C 
ATOM      4  C   UNL     1       7.464  -0.078  -0.362  0.00  0.00    +0.188 C 
ATOM      5  C   UNL     1       7.942   1.312  -0.203  0.00  0.00    +0.282 C 
ATOM      6  O   UNL     1       9.099   1.635  -0.018  0.00  0.00    -0.267 OA
ENDROOT
BRANCH   2   7
ATOM      7  C   UNL     1       5.057   1.764  -1.827  0.00  0.00    -0.019 A 
ATOM      8  C   UNL     1       5.849   1.960  -2.943  0.00  0.00    +0.009 A 
ATOM      9  C   UNL     1       5.273   2.309  -4.150  0.00  0.00    +0.050 A 
ATOM     10  C   UNL     1       3.900   2.475  -4.241  0.00  0.00    +0.162 A 
ATOM     11  C   UNL     1       3.104   2.284  -3.116  0.00  0.00    +0.162 A 
ATOM     12  C   UNL     1       3.687   1.929  -1.910  0.00  0.00    +0.055 A 
BRANCH  11  13
ATOM     13  O   UNL     1       1.756   2.447  -3.200  0.00  0.00    -0.489 OA
BRANCH  13  14
ATOM     14  C   UNL     1       1.014   2.346  -1.983  0.00  0.00    +0.226 C 
ATOM     15  C   UNL     1      -0.480   2.493  -2.283  0.00  0.00    +0.048 C 
ENDBRANCH  13  14
ENDBRANCH  11  13
BRANCH  10  16
ATOM     16  O   UNL     1       3.333   2.825  -5.426  0.00  0.00    -0.489 OA
BRANCH  16  17
ATOM     17  C   UNL     1       4.212   3.004  -6.538  0.00  0.00    +0.226 C 
ATOM     18  C   UNL     1       3.398   3.392  -7.774  0.00  0.00    +0.048 C 
ENDBRANCH  16  17
ENDBRANCH  10  16
ENDBRANCH   2   7
BRANCH   4  19
ATOM     19  O   UNL     1       8.243  -1.184  -0.324  0.00  0.00    -0.502 OA
ATOM     20  H   UNL     1       9.194  -0.916  -0.169  0.00  0.00    +0.292 HD
ENDBRANCH   4  19
BRANCH   3  21
ATOM     21  C   UNL     1       5.262  -1.237  -0.756  0.00  0.00    +0.195 C 
ATOM     22  O   UNL     1       5.377  -1.912  -1.762  0.00  0.00    -0.287 OA
BRANCH  21  23
ATOM     23  C   UNL     1       4.254  -1.594   0.262  0.00  0.00    +0.026 A 
ATOM     24  C   UNL     1       4.176  -0.871   1.456  0.00  0.00    +0.015 A 
ATOM     25  C   UNL     1       3.236  -1.207   2.403  0.00  0.00    +0.050 A 
ATOM     26  C   UNL     1       2.360  -2.264   2.178  0.00  0.00    +0.162 A 
ATOM     27  C   UNL     1       2.430  -2.986   0.988  0.00  0.00    +0.163 A 
ATOM     28  C   UNL     1       3.373  -2.655   0.034  0.00  0.00    +0.061 A 
ATOM     29  O   UNL     1       1.575  -4.018   0.749  0.00  0.00    -0.485 OA
ATOM     30  C   UNL     1       0.891  -4.563   1.883  0.00  0.00    +0.270 C 
ATOM     31  C   UNL     1       0.342  -3.398   2.717  0.00  0.00    +0.270 C 
ATOM     32  O   UNL     1       1.445  -2.583   3.131  0.00  0.00    -0.485 OA
ENDBRANCH  21  23
ENDBRANCH   3  21
BRANCH   1  33
ATOM     33  C   UNL     1       6.980   3.625  -0.176  0.00  0.00    +0.090 C 
BRANCH  33  34
ATOM     34  C   UNL     1       6.807   4.032   1.288  0.00  0.00    -0.060 C 
BRANCH  34  35
ATOM     35  N   UNL     1       6.905   5.504   1.388  0.00  0.00    +0.380 N 
ATOM     36  H   UNL     1       7.765   5.813   0.921  0.00  0.00    -0.082 HD
BRANCH  35  38
ATOM     37  C   UNL     1       4.440   5.691   1.389  0.00  0.00    -0.017 C 
ATOM     38  C   UNL     1       5.745   6.134   0.724  0.00  0.00    -0.082 C 
ENDBRANCH  35  38
BRANCH  35  39
ATOM     39  C   UNL     1       6.957   5.911   2.808  0.00  0.00    -0.082 C 
ATOM     40  C   UNL     1       7.337   7.391   2.882  0.00  0.00    -0.017 C 
ENDBRANCH  35  39
ENDBRANCH  34  35
ENDBRANCH  33  34
ENDBRANCH   1  33
TORSDOF 13
