REMARK  Name = ZINC39688036
REMARK  6 active torsions:
REMARK  status: ('A' for Active; 'I' for Inactive)
REMARK    1  A    between atoms: C_1  and  C_2
REMARK    2  A    between atoms: C_7  and  N_10
REMARK    3  A    between atoms: C_11  and  C_13
REMARK    4  A    between atoms: C_24  and  C_26
REMARK    5  A    between atoms: C_31  and  O_32
REMARK    6  A    between atoms: O_32  and  C_33
REMARK                            x       y       z     vdW  Elec       q    Type
REMARK                         _______ _______ _______ _____ _____    ______ ____
ROOT
ATOM      1  C   UNL     1      -2.889  -4.548  -5.570  0.00  0.00    +0.100 C 
ATOM      2  C   UNL     1      -4.163  -4.721  -4.713  0.00  0.00    +0.121 C 
ATOM      3  N   UNL     1      -4.729  -6.021  -5.142  0.00  0.00    -0.296 N 
ATOM      4  C   UNL     1      -3.546  -6.895  -5.331  0.00  0.00    +0.115 C 
ATOM      5  C   UNL     1      -2.487  -5.977  -5.973  0.00  0.00    -0.004 C 
ATOM      6  C   UNL     1      -1.101  -6.310  -5.427  0.00  0.00    -0.010 C 
ATOM      7  C   UNL     1      -0.699  -7.713  -5.890  0.00  0.00    -0.082 C 
ATOM      8  N   UNL     1      -0.695  -7.764  -7.357  0.00  0.00    +0.379 N 
ATOM      9  C   UNL     1      -2.051  -7.535  -7.870  0.00  0.00    -0.082 C 
ATOM     10  C   UNL     1      -2.511  -6.124  -7.491  0.00  0.00    -0.010 C 
ATOM     11  C   UNL     1      -6.027  -6.338  -5.322  0.00  0.00    +0.252 C 
ATOM     12  O   UNL     1      -6.330  -7.421  -5.783  0.00  0.00    -0.270 OA
ATOM     13  H   UNL     1      -0.077  -7.052  -7.715  0.00  0.00    -0.086 HD
ATOM     14  H   UNL     1      -0.371  -8.671  -7.659  0.00  0.00    -0.086 HD
ENDROOT
BRANCH  11  15
ATOM     15  C   UNL     1      -7.080  -5.371  -4.958  0.00  0.00    +0.099 A 
ATOM     16  C   UNL     1      -6.846  -4.399  -3.978  0.00  0.00    +0.020 A 
ATOM     17  C   UNL     1      -7.866  -3.514  -3.674  0.00  0.00    +0.021 A 
ATOM     18  C   UNL     1      -9.075  -3.615  -4.339  0.00  0.00    +0.114 A 
ATOM     19  N   UNL     1      -9.274  -4.539  -5.259  0.00  0.00    -0.220 NA
ATOM     20  C   UNL     1      -8.331  -5.405  -5.592  0.00  0.00    +0.233 A 
BRANCH  20  21
ATOM     21  O   UNL     1      -8.577  -6.334  -6.546  0.00  0.00    -0.437 OA
BRANCH  21  22
ATOM     22  C   UNL     1      -9.761  -6.269  -7.209  0.00  0.00    +0.130 A 
ATOM     23  C   UNL     1     -10.773  -7.171  -6.914  0.00  0.00    +0.046 A 
ATOM     24  C   UNL     1     -11.976  -7.103  -7.589  0.00  0.00    +0.004 A 
ATOM     25  C   UNL     1     -12.173  -6.136  -8.558  0.00  0.00    +0.000 A 
ATOM     26  C   UNL     1     -11.166  -5.236  -8.855  0.00  0.00    +0.004 A 
ATOM     27  C   UNL     1      -9.963  -5.297  -8.178  0.00  0.00    +0.046 A 
ENDBRANCH  21  22
ENDBRANCH  20  21
ENDBRANCH  11  15
BRANCH   1  29
ATOM     28  N   UNL     1      -0.879  -3.122  -5.364  0.00  0.00    -0.312 N 
ATOM     29  C   UNL     1      -1.794  -3.904  -4.759  0.00  0.00    +0.218 C 
ATOM     30  O   UNL     1      -1.738  -4.089  -3.562  0.00  0.00    -0.275 OA
ATOM     31  H   UNL     1      -0.924  -2.973  -6.321  0.00  0.00    +0.149 HD
BRANCH  28  38
ATOM     32  C   UNL     1       2.123   1.963  -3.248  0.00  0.00    +0.109 C 
ATOM     33  C   UNL     1       2.599   0.789  -4.064  0.00  0.00    +0.212 C 
ATOM     34  O   UNL     1       3.535   0.918  -4.824  0.00  0.00    -0.276 OA
ATOM     35  N   UNL     1       1.985  -0.405  -3.949  0.00  0.00    -0.302 N 
ATOM     36  C   UNL     1       2.512  -1.588  -4.643  0.00  0.00    +0.109 C 
ATOM     37  C   UNL     1       1.389  -2.211  -5.477  0.00  0.00    +0.041 C 
ATOM     38  C   UNL     1       0.185  -2.496  -4.575  0.00  0.00    +0.076 C 
ATOM     39  C   UNL     1      -0.328  -1.183  -3.978  0.00  0.00    +0.041 C 
ATOM     40  C   UNL     1       0.779  -0.550  -3.121  0.00  0.00    +0.109 C 
ENDBRANCH  28  38
ENDBRANCH   1  29
TORSDOF 5
