REMARK  Name = ZINC49765427
REMARK  9 active torsions:
REMARK  status: ('A' for Active; 'I' for Inactive)
REMARK    1  A    between atoms: C_1  and  C_2
REMARK    2  A    between atoms: C_6  and  N_8
REMARK    3  A    between atoms: C_9  and  C_11
REMARK    4  A    between atoms: C_11  and  S_12
REMARK    5  A    between atoms: S_12  and  C_13
REMARK    6  A    between atoms: C_13  and  C_14
REMARK    7  A    between atoms: C_14  and  N_16
REMARK    8  A    between atoms: N_23  and  C_26
REMARK    9  A    between atoms: C_26  and  C_27
REMARK                            x       y       z     vdW  Elec       q    Type
REMARK                         _______ _______ _______ _____ _____    ______ ____
ROOT
ATOM      1  N   UNL     1      -0.514  -9.695   5.930  0.00  0.00    -0.156 NA
ATOM      2  C   UNL     1      -0.592 -11.022   5.806  0.00  0.00    +0.163 A 
ATOM      3  N   UNL     1      -0.589 -11.765   4.667  0.00  0.00    -0.339 N 
ATOM      4  C   UNL     1      -0.677 -13.127   4.749  0.00  0.00    +0.024 A 
ATOM      5  C   UNL     1      -0.764 -13.622   5.995  0.00  0.00    -0.004 A 
ATOM      6  S   UNL     1      -0.710 -12.182   7.021  0.00  0.00    -0.059 S 
ATOM      7  C   UNL     1      -0.876 -15.060   6.380  0.00  0.00    -0.033 C 
ATOM      8  N   UNL     1      -1.252 -15.834   5.182  0.00  0.00    +0.386 N 
ATOM      9  C   UNL     1      -0.357 -15.482   4.071  0.00  0.00    -0.072 C 
ATOM     10  C   UNL     1      -0.680 -14.076   3.557  0.00  0.00    +0.035 C 
ATOM     11  H   UNL     1      -0.524 -11.332   3.802  0.00  0.00    +0.167 HD
ATOM     12  H   UNL     1      -2.204 -15.619   4.928  0.00  0.00    -0.081 HD
ENDROOT
BRANCH   1  13
ATOM     13  C   UNL     1      -0.425  -8.932   4.849  0.00  0.00    +0.248 C 
ATOM     14  O   UNL     1      -0.414  -9.441   3.744  0.00  0.00    -0.273 OA
BRANCH  13  15
ATOM     15  C   UNL     1      -0.337  -7.434   4.990  0.00  0.00    +0.167 C 
BRANCH  15  16
ATOM     16  S   UNL     1      -0.226  -6.677   3.345  0.00  0.00    -0.142 S 
BRANCH  16  17
ATOM     17  C   UNL     1      -0.129  -4.898   3.686  0.00  0.00    +0.165 C 
BRANCH  17  19
ATOM     18  N   UNL     1       0.052  -2.797   2.393  0.00  0.00    -0.285 N 
ATOM     19  C   UNL     1      -0.031  -4.143   2.385  0.00  0.00    +0.227 C 
ATOM     20  O   UNL     1      -0.028  -4.745   1.333  0.00  0.00    -0.275 OA
ATOM     21  H   UNL     1       0.127  -2.321   3.234  0.00  0.00    +0.155 HD
BRANCH  18  27
ATOM     22  C   UNL     1       1.524   1.061  -0.275  0.00  0.00    +0.044 C 
ATOM     23  C   UNL     1       0.735  -0.215  -0.134  0.00  0.00    -0.049 A 
ATOM     24  C   UNL     1      -0.011  -0.687  -1.199  0.00  0.00    +0.003 A 
ATOM     25  C   UNL     1      -0.736  -1.857  -1.074  0.00  0.00    +0.002 A 
ATOM     26  C   UNL     1      -0.717  -2.559   0.116  0.00  0.00    +0.023 A 
ATOM     27  C   UNL     1       0.031  -2.089   1.186  0.00  0.00    +0.034 A 
ATOM     28  C   UNL     1       0.763  -0.915   1.056  0.00  0.00    +0.026 A 
ENDBRANCH  18  27
ENDBRANCH  17  19
ENDBRANCH  16  17
ENDBRANCH  15  16
ENDBRANCH  13  15
ENDBRANCH   1  13
BRANCH   8  29
ATOM     29  C   UNL     1      -1.134 -17.270   5.469  0.00  0.00    -0.043 C 
BRANCH  29  30
ATOM     30  C   UNL     1      -2.139 -17.655   6.524  0.00  0.00    -0.064 A 
ATOM     31  C   UNL     1      -1.797 -17.589   7.862  0.00  0.00    +0.002 A 
ATOM     32  C   UNL     1      -2.718 -17.943   8.829  0.00  0.00    +0.000 A 
ATOM     33  C   UNL     1      -3.983 -18.362   8.459  0.00  0.00    +0.000 A 
ATOM     34  C   UNL     1      -4.325 -18.427   7.122  0.00  0.00    +0.000 A 
ATOM     35  C   UNL     1      -3.405 -18.069   6.154  0.00  0.00    +0.002 A 
ENDBRANCH  29  30
ENDBRANCH   8  29
TORSDOF 8
