REMARK  Name = ZINC66976040
REMARK  8 active torsions:
REMARK  status: ('A' for Active; 'I' for Inactive)
REMARK    1  A    between atoms: C_1  and  N_2
REMARK    2  A    between atoms: N_2  and  C_3
REMARK    3  A    between atoms: N_2  and  C_4
REMARK    4  A    between atoms: C_4  and  C_9
REMARK    5  A    between atoms: C_9  and  N_10
REMARK    6  A    between atoms: C_16  and  N_19
REMARK    7  A    between atoms: C_20  and  C_22
REMARK    8  A    between atoms: C_22  and  C_23
REMARK                            x       y       z     vdW  Elec       q    Type
REMARK                         _______ _______ _______ _____ _____    ______ ____
ROOT
ATOM      1  N   UNL     1      -2.409   1.336   0.976  0.00  0.00    -0.301 N 
ATOM      2  C   UNL     1      -3.220   1.980   1.837  0.00  0.00    +0.302 C 
ATOM      3  O   UNL     1      -3.692   1.387   2.788  0.00  0.00    -0.253 OA
ATOM      4  N   UNL     1      -3.509   3.283   1.645  0.00  0.00    -0.286 N 
ATOM      5  C   UNL     1      -3.045   3.983   0.440  0.00  0.00    +0.111 C 
ATOM      6  C   UNL     1      -2.281   5.241   0.865  0.00  0.00    +0.041 C 
ATOM      7  C   UNL     1      -3.169   6.087   1.780  0.00  0.00    +0.076 C 
ATOM      8  C   UNL     1      -3.518   5.287   3.037  0.00  0.00    +0.041 C 
ATOM      9  C   UNL     1      -4.300   4.028   2.634  0.00  0.00    +0.111 C 
ATOM     10  H   UNL     1      -1.975   1.826   0.260  0.00  0.00    +0.150 HD
ENDROOT
BRANCH   7  11
ATOM     11  N   UNL     1      -2.455   7.308   2.161  0.00  0.00    -0.312 N 
ATOM     12  C   UNL     1      -3.145   8.410   2.516  0.00  0.00    +0.214 C 
ATOM     13  O   UNL     1      -4.357   8.391   2.520  0.00  0.00    -0.276 OA
ATOM     14  H   UNL     1      -1.485   7.323   2.158  0.00  0.00    +0.149 HD
BRANCH  12  15
ATOM     15  C   UNL     1      -2.409   9.666   2.908  0.00  0.00    +0.099 C 
BRANCH  15  16
ATOM     16  C   UNL     1      -3.420  10.759   3.263  0.00  0.00    -0.002 C 
ATOM     17  C   UNL     1      -4.224  11.133   2.016  0.00  0.00    +0.004 C 
ATOM     18  C   UNL     1      -5.235  12.226   2.371  0.00  0.00    +0.000 C 
ATOM     19  C   UNL     1      -4.491  13.459   2.888  0.00  0.00    +0.000 C 
ATOM     20  C   UNL     1      -3.687  13.085   4.134  0.00  0.00    +0.000 C 
ATOM     21  C   UNL     1      -2.676  11.992   3.779  0.00  0.00    +0.004 C 
ENDBRANCH  15  16
ENDBRANCH  12  15
ENDBRANCH   7  11
BRANCH   1  22
ATOM     22  C   UNL     1      -2.183  -0.104   1.120  0.00  0.00    +0.094 C 
BRANCH  22  23
ATOM     23  C   UNL     1      -1.330  -0.606  -0.047  0.00  0.00    -0.050 C 
ATOM     24  C   UNL     1      -2.078  -0.392  -1.379  0.00  0.00    -0.010 C 
ATOM     25  C   UNL     1      -1.714  -1.639  -2.224  0.00  0.00    -0.001 C 
ATOM     26  C   UNL     1      -1.706  -2.774  -1.170  0.00  0.00    -0.001 C 
ATOM     27  C   UNL     1      -1.094  -2.121   0.086  0.00  0.00    -0.010 C 
BRANCH  23  29
ATOM     28  C   UNL     1       0.690  -0.171   1.171  0.00  0.00    -0.096 C 
ATOM     29  N   UNL     1      -0.044   0.103  -0.072  0.00  0.00    +0.381 N 
ATOM     30  C   UNL     1       0.747  -0.358  -1.220  0.00  0.00    -0.096 C 
ATOM     31  H   UNL     1      -0.209   1.095  -0.153  0.00  0.00    -0.082 HD
ENDBRANCH  23  29
ENDBRANCH  22  23
ENDBRANCH   1  22
TORSDOF 6
