REMARK  Name = ZINC06184702
REMARK  6 active torsions:
REMARK  status: ('A' for Active; 'I' for Inactive)
REMARK    1  A    between atoms: C_1  and  C_2
REMARK    2  A    between atoms: C_3  and  N_9
REMARK    3  A    between atoms: N_9  and  C_10
REMARK    4  A    between atoms: C_10  and  C_11
REMARK    5  A    between atoms: N_13  and  N_14
REMARK    6  A    between atoms: C_15  and  C_16
REMARK                            x       y       z     vdW  Elec       q    Type
REMARK                         _______ _______ _______ _____ _____    ______ ____
ROOT
ATOM      1  C   UNL     1       3.342  10.165   0.027  0.00  0.00    +0.249 C 
ATOM      2  O   UNL     1       4.397   9.567   0.014  0.00  0.00    -0.272 OA
ATOM      3  N   UNL     1       2.180   9.482   0.034  0.00  0.00    -0.206 N 
ATOM      4  H   UNL     1       1.336   9.960   0.044  0.00  0.00    +0.177 HD
ENDROOT
BRANCH   3   5
ATOM      5  N   UNL     1       2.191   8.081   0.026  0.00  0.00    -0.188 NA
ATOM      6  C   UNL     1       1.073   7.423   0.033  0.00  0.00    +0.138 C 
BRANCH   6   7
ATOM      7  C   UNL     1       1.085   5.949   0.025  0.00  0.00    -0.005 A 
ATOM      8  C   UNL     1       2.312   5.260   0.009  0.00  0.00    +0.010 A 
ATOM      9  C   UNL     1       2.349   3.904   0.001  0.00  0.00    +0.009 A 
ATOM     10  C   UNL     1       1.150   3.167   0.008  0.00  0.00    -0.018 A 
ATOM     11  C   UNL     1       1.163   1.762   0.000  0.00  0.00    +0.008 A 
ATOM     12  C   UNL     1      -0.013   1.076   0.008  0.00  0.00    +0.001 A 
ATOM     13  C   UNL     1      -1.235   1.745   0.018  0.00  0.00    +0.001 A 
ATOM     14  C   UNL     1      -1.288   3.105   0.031  0.00  0.00    +0.008 A 
ATOM     15  C   UNL     1      -0.094   3.849   0.024  0.00  0.00    -0.017 A 
ATOM     16  C   UNL     1      -0.113   5.251   0.032  0.00  0.00    +0.018 A 
ENDBRANCH   6   7
ENDBRANCH   3   5
BRANCH   1  17
ATOM     17  C   UNL     1       3.329  11.672   0.035  0.00  0.00    +0.199 C 
BRANCH  17  18
ATOM     18  N   UNL     1       4.707  12.172   0.025  0.00  0.00    -0.335 N 
ATOM     19  H   UNL     1       5.449  11.548   0.015  0.00  0.00    +0.147 HD
BRANCH  18  22
ATOM     20  C   UNL     1       7.411  13.055   0.017  0.00  0.00    +0.047 C 
ATOM     21  C   UNL     1       6.256  14.022   0.026  0.00  0.00    -0.011 A 
ATOM     22  C   UNL     1       4.951  13.547   0.030  0.00  0.00    +0.032 A 
ATOM     23  C   UNL     1       3.889  14.442   0.045  0.00  0.00    +0.023 A 
ATOM     24  C   UNL     1       4.133  15.802   0.050  0.00  0.00    +0.003 A 
ATOM     25  C   UNL     1       5.433  16.273   0.040  0.00  0.00    +0.020 A 
ATOM     26  C   UNL     1       6.494  15.384   0.026  0.00  0.00    +0.046 A 
ATOM     27 CL   UNL     1       8.124  15.979   0.014  0.00  0.00    -0.083 Cl
ENDBRANCH  18  22
ENDBRANCH  17  18
ENDBRANCH   1  17
TORSDOF 5
