REMARK  Name = ZINC24766173
REMARK  10 active torsions:
REMARK  status: ('A' for Active; 'I' for Inactive)
REMARK    1  A    between atoms: C_1  and  C_2
REMARK    2  A    between atoms: C_2  and  N_3
REMARK    3  A    between atoms: N_3  and  C_4
REMARK    4  A    between atoms: N_3  and  C_18
REMARK    5  A    between atoms: C_4  and  C_5
REMARK    6  A    between atoms: N_7  and  C_8
REMARK    7  A    between atoms: C_11  and  N_14
REMARK    8  A    between atoms: C_15  and  C_17
REMARK    9  A    between atoms: C_18  and  C_19
REMARK   10  A    between atoms: C_29  and  C_31
REMARK                            x       y       z     vdW  Elec       q    Type
REMARK                         _______ _______ _______ _____ _____    ______ ____
ROOT
ATOM      1  N   UNL     1       2.656   4.848  -3.096  0.00  0.00    +0.391 N 
ATOM      2  H   UNL     1       2.198   5.651  -2.499  0.00  0.00    -0.080 HD
ENDROOT
BRANCH   1   4
ATOM      3  C   UNL     1       0.986   5.478  -4.773  0.00  0.00    -0.017 C 
ATOM      4  C   UNL     1       1.630   4.321  -4.005  0.00  0.00    -0.081 C 
ENDBRANCH   1   4
BRANCH   1   5
ATOM      5  C   UNL     1       3.778   5.427  -3.847  0.00  0.00    +0.020 C 
BRANCH   5   6
ATOM      6  C   UNL     1       4.528   6.392  -2.965  0.00  0.00    +0.201 C 
ATOM      7  O   UNL     1       4.206   6.527  -1.803  0.00  0.00    -0.278 OA
ATOM      8  N   UNL     1       5.556   7.105  -3.467  0.00  0.00    -0.287 N 
ATOM      9  H   UNL     1       5.902   6.921  -4.495  0.00  0.00    +0.155 HD
BRANCH   8  10
ATOM     10  C   UNL     1       6.183   8.079  -2.680  0.00  0.00    +0.033 A 
ATOM     11  C   UNL     1       5.441   8.816  -1.766  0.00  0.00    +0.025 A 
ATOM     12  C   UNL     1       6.060   9.773  -0.987  0.00  0.00    +0.025 A 
ATOM     13  C   UNL     1       7.422  10.007  -1.126  0.00  0.00    +0.033 A 
ATOM     14  C   UNL     1       8.162   9.274  -2.044  0.00  0.00    +0.025 A 
ATOM     15  C   UNL     1       7.544   8.313  -2.819  0.00  0.00    +0.025 A 
BRANCH  13  16
ATOM     16  N   UNL     1       8.049  10.982  -0.340  0.00  0.00    -0.286 N 
ATOM     17  C   UNL     1       7.614  11.219   0.914  0.00  0.00    +0.214 C 
ATOM     18  O   UNL     1       6.742  10.527   1.394  0.00  0.00    -0.276 OA
ATOM     19  C   UNL     1       8.210  12.345   1.718  0.00  0.00    +0.109 C 
ATOM     20  H   UNL     1       8.896  11.555  -0.745  0.00  0.00    +0.155 HD
ENDBRANCH  13  16
ENDBRANCH   8  10
ENDBRANCH   5   6
ENDBRANCH   1   5
BRANCH   1  21
ATOM     21  C   UNL     1       3.123   3.808  -2.170  0.00  0.00    +0.019 C 
BRANCH  21  22
ATOM     22  C   UNL     1       1.998   3.412  -1.249  0.00  0.00    +0.200 C 
ATOM     23  O   UNL     1       0.913   3.944  -1.354  0.00  0.00    -0.278 OA
ATOM     24  N   UNL     1       2.196   2.467  -0.310  0.00  0.00    -0.291 N 
ATOM     25  C   UNL     1       3.508   1.815  -0.173  0.00  0.00    +0.114 C 
ATOM     26  C   UNL     1       4.092   2.190   1.198  0.00  0.00    +0.062 C 
ATOM     27  C   UNL     1       3.008   2.097   2.222  0.00  0.00    -0.003 A 
ATOM     28  C   UNL     1       1.664   2.045   2.015  0.00  0.00    -0.012 A 
ATOM     29  C   UNL     1       0.859   1.967   3.150  0.00  0.00    +0.013 A 
ATOM     30  C   UNL     1       1.423   1.943   4.379  0.00  0.00    +0.046 A 
ATOM     31  S   UNL     1       3.163   2.034   3.987  0.00  0.00    -0.101 S 
ATOM     32  C   UNL     1       1.106   2.073   0.593  0.00  0.00    +0.144 C 
BRANCH  32  33
ATOM     33  C   UNL     1       0.601   0.704   0.216  0.00  0.00    +0.015 A 
ATOM     34  C   UNL     1      -0.670   0.234   0.211  0.00  0.00    +0.013 A 
ATOM     35  C   UNL     1      -0.901  -1.072  -0.177  0.00  0.00    +0.008 A 
ATOM     36  C   UNL     1       0.151  -1.845  -0.541  0.00  0.00    +0.045 A 
ATOM     37  S   UNL     1       1.523  -0.721  -0.339  0.00  0.00    -0.099 S 
ENDBRANCH  32  33
ENDBRANCH  21  22
ENDBRANCH   1  21
TORSDOF 8
