REMARK  Name = ZINC21247454
REMARK  6 active torsions:
REMARK  status: ('A' for Active; 'I' for Inactive)
REMARK    1  A    between atoms: C_1  and  C_2
REMARK    2  A    between atoms: C_3  and  C_7
REMARK    3  A    between atoms: C_10  and  S_13
REMARK    4  A    between atoms: N_11  and  N_12
REMARK    5  A    between atoms: S_13  and  C_14
REMARK    6  A    between atoms: C_14  and  C_15
REMARK                            x       y       z     vdW  Elec       q    Type
REMARK                         _______ _______ _______ _____ _____    ______ ____
ROOT
ATOM      1  C   UNL     1      -0.501   4.261  -1.065  0.00  0.00    +0.113 C 
ENDROOT
BRANCH   1   2
ATOM      2  C   UNL     1      -1.532   3.426  -0.349  0.00  0.00    -0.019 A 
ATOM      3  C   UNL     1      -2.743   4.003  -0.091  0.00  0.00    +0.097 A 
ATOM      4  C   UNL     1      -3.776   3.242   0.485  0.00  0.00    +0.338 A 
ATOM      5  O   UNL     1      -4.812   3.780   0.827  0.00  0.00    -0.245 OA
ATOM      6  O   UNL     1      -3.621   1.920   0.657  0.00  0.00    -0.422 OA
ATOM      7  C   UNL     1      -2.438   1.320   0.401  0.00  0.00    +0.140 A 
ATOM      8  C   UNL     1      -1.315   2.087   0.040  0.00  0.00    +0.029 A 
ATOM      9  C   UNL     1      -0.017   1.417   0.010  0.00  0.00    -0.007 A 
ATOM     10  C   UNL     1       1.210   2.082   0.002  0.00  0.00    +0.009 A 
ATOM     11  C   UNL     1       2.375   1.388  -0.164  0.00  0.00    +0.001 A 
ATOM     12  C   UNL     1       2.369   0.008  -0.329  0.00  0.00    +0.001 A 
ATOM     13  C   UNL     1       1.199  -0.687  -0.264  0.00  0.00    +0.008 A 
ATOM     14  C   UNL     1       0.002  -0.004   0.002  0.00  0.00    -0.017 A 
ATOM     15  C   UNL     1      -1.171  -0.718   0.314  0.00  0.00    +0.012 A 
ATOM     16  C   UNL     1      -2.336  -0.066   0.545  0.00  0.00    +0.047 A 
ENDBRANCH   1   2
BRANCH   1  17
ATOM     17  S   UNL     1       0.499   5.156   0.149  0.00  0.00    -0.080 S 
BRANCH  17  21
ATOM     18  C   UNL     1       3.161   7.310  -1.734  0.00  0.00    +0.185 A 
ATOM     19  N   UNL     1       2.516   6.724  -2.716  0.00  0.00    -0.127 NA
ATOM     20  N   UNL     1       1.595   5.963  -2.243  0.00  0.00    -0.121 NA
ATOM     21  C   UNL     1       1.588   6.023  -0.932  0.00  0.00    +0.209 A 
ATOM     22  N   UNL     1       2.587   6.880  -0.561  0.00  0.00    -0.224 N 
BRANCH  18  25
ATOM     23  C   UNL     1       4.473   8.278  -4.412  0.00  0.00    +0.087 C 
ATOM     24  C   UNL     1       4.873   8.684  -3.017  0.00  0.00    +0.112 A 
ATOM     25  C   UNL     1       4.292   8.254  -1.865  0.00  0.00    +0.061 A 
ATOM     26  C   UNL     1       5.024   8.917  -0.778  0.00  0.00    +0.053 A 
ATOM     27  C   UNL     1       5.960   9.676  -1.371  0.00  0.00    +0.196 A 
ATOM     28  O   UNL     1       5.861   9.534  -2.701  0.00  0.00    -0.467 OA
ENDBRANCH  18  25
BRANCH  22  29
ATOM     29  N   UNL     1       2.941   7.234   0.710  0.00  0.00    -0.295 N 
ATOM     30  H   UNL     1       2.397   6.815   1.570  0.00  0.00    +0.163 HD
ATOM     31  H   UNL     1       3.770   7.938   0.874  0.00  0.00    +0.163 HD
ENDBRANCH  22  29
ENDBRANCH  17  21
ENDBRANCH   1  17
TORSDOF 5
