REMARK  Name = ZINC16689464
REMARK  9 active torsions:
REMARK  status: ('A' for Active; 'I' for Inactive)
REMARK    1  A    between atoms: C_1  and  C_2
REMARK    2  A    between atoms: C_2  and  O_3
REMARK    3  A    between atoms: O_3  and  C_4
REMARK    4  A    between atoms: C_4  and  C_6
REMARK    5  A    between atoms: C_10  and  N_11
REMARK    6  A    between atoms: C_12  and  C_14
REMARK    7  A    between atoms: C_14  and  S_15
REMARK    8  A    between atoms: S_15  and  C_16
REMARK    9  A    between atoms: C_21  and  C_27
REMARK                            x       y       z     vdW  Elec       q    Type
REMARK                         _______ _______ _______ _____ _____    ______ ____
ROOT
ATOM      1  N   UNL     1       4.483  -4.667  -0.066  0.00  0.00    -0.279 N 
ATOM      2  C   UNL     1       3.217  -4.203  -0.051  0.00  0.00    +0.228 C 
ATOM      3  O   UNL     1       2.287  -4.980  -0.046  0.00  0.00    -0.275 OA
ATOM      4  H   UNL     1       5.227  -4.045  -0.069  0.00  0.00    +0.155 HD
ENDROOT
BRANCH   1   9
ATOM      5  C   UNL     1       5.940  -6.696  -0.096  0.00  0.00    +0.091 A 
ATOM      6  C   UNL     1       5.913  -8.149  -0.098  0.00  0.00    -0.021 A 
ATOM      7  C   UNL     1       4.681  -8.701  -0.090  0.00  0.00    -0.004 A 
ATOM      8  S   UNL     1       3.567  -7.325  -0.072  0.00  0.00    -0.077 S 
ATOM      9  C   UNL     1       4.720  -6.032  -0.075  0.00  0.00    +0.086 A 
ATOM     10  C   UNL     1       4.345 -10.161  -0.096  0.00  0.00    +0.043 C 
ATOM     11  C   UNL     1       5.605 -10.945  -0.490  0.00  0.00    +0.005 C 
ATOM     12  C   UNL     1       6.786 -10.431   0.339  0.00  0.00    +0.005 C 
ATOM     13  C   UNL     1       7.163  -9.020  -0.113  0.00  0.00    +0.037 C 
BRANCH   5  14
ATOM     14  C   UNL     1       7.205  -5.959  -0.112  0.00  0.00    +0.342 C 
ATOM     15  O   UNL     1       7.747  -5.658   0.935  0.00  0.00    -0.245 OA
BRANCH  14  16
ATOM     16  O   UNL     1       7.771  -5.614  -1.286  0.00  0.00    -0.461 OA
BRANCH  16  18
ATOM     17  C   UNL     1       9.510  -4.585  -2.646  0.00  0.00    +0.048 C 
ATOM     18  C   UNL     1       9.025  -4.886  -1.226  0.00  0.00    +0.229 C 
ENDBRANCH  16  18
ENDBRANCH  14  16
ENDBRANCH   5  14
ENDBRANCH   1   9
BRANCH   2  19
ATOM     19  C   UNL     1       2.959  -2.718  -0.041  0.00  0.00    +0.173 C 
BRANCH  19  20
ATOM     20  S   UNL     1       1.175  -2.416  -0.022  0.00  0.00    -0.076 S 
BRANCH  20  21
ATOM     21  C   UNL     1       1.163  -0.654  -0.013  0.00  0.00    +0.195 A 
ATOM     22  N   UNL     1       0.002  -0.004   0.002  0.00  0.00    -0.204 NA
ATOM     23  C   UNL     1      -0.016   1.329   0.009  0.00  0.00    +0.144 A 
ATOM     24  C   UNL     1      -1.236   2.024   0.019  0.00  0.00    +0.047 A 
ATOM     25  C   UNL     1      -1.226   3.388   0.032  0.00  0.00    +0.008 A 
ATOM     26  C   UNL     1      -0.002   4.071   0.023  0.00  0.00    -0.034 A 
ATOM     27  C   UNL     1       1.162   3.384   0.009  0.00  0.00    +0.101 A 
ATOM     28  N   UNL     1       1.164   2.023   0.002  0.00  0.00    -0.252 N 
ATOM     29  C   UNL     1       2.329   1.343  -0.012  0.00  0.00    +0.356 A 
ATOM     30  O   UNL     1       3.390   1.945  -0.019  0.00  0.00    -0.244 OA
ATOM     31  N   UNL     1       2.316   0.012  -0.019  0.00  0.00    -0.167 NA
ATOM     32  C   UNL     1       0.016   5.578   0.030  0.00  0.00    +0.045 C 
ENDBRANCH  20  21
ENDBRANCH  19  20
ENDBRANCH   2  19
TORSDOF 7
