REMARK  Name = ZINC37795995
REMARK  7 active torsions:
REMARK  status: ('A' for Active; 'I' for Inactive)
REMARK    1  A    between atoms: C_1  and  C_2
REMARK    2  A    between atoms: C_5  and  N_10
REMARK    3  A    between atoms: C_6  and  C_9
REMARK    4  A    between atoms: C_7  and  O_8
REMARK    5  A    between atoms: C_11  and  C_13
REMARK    6  A    between atoms: C_13  and  C_14
REMARK    7  A    between atoms: C_14  and  C_19
REMARK                            x       y       z     vdW  Elec       q    Type
REMARK                         _______ _______ _______ _____ _____    ______ ____
ROOT
ATOM      1  N   UNL     1       0.057  -4.173  -0.026  0.00  0.00    -0.285 N 
ATOM      2  C   UNL     1      -0.041  -4.839  -1.194  0.00  0.00    +0.218 C 
ATOM      3  O   UNL     1      -0.054  -4.227  -2.241  0.00  0.00    -0.275 OA
ATOM      4  H   UNL     1       0.133  -4.664   0.807  0.00  0.00    +0.155 HD
ENDROOT
BRANCH   1   9
ATOM      5  C   UNL     1       0.030   1.503   0.007  0.00  0.00    +0.047 C 
ATOM      6  C   UNL     1       0.037  -0.004  -0.001  0.00  0.00    -0.009 A 
ATOM      7  C   UNL     1       0.633  -0.686  -1.044  0.00  0.00    +0.009 A 
ATOM      8  C   UNL     1       0.642  -2.067  -1.054  0.00  0.00    +0.024 A 
ATOM      9  C   UNL     1       0.050  -2.774  -0.015  0.00  0.00    +0.040 A 
ATOM     10  C   UNL     1      -0.549  -2.091   1.033  0.00  0.00    +0.012 A 
ATOM     11  C   UNL     1      -0.550  -0.704   1.043  0.00  0.00    +0.124 A 
ATOM     12  C   UNL     1      -1.193  -2.854   2.163  0.00  0.00    +0.049 C 
BRANCH  11  13
ATOM     13  O   UNL     1      -1.131  -0.032   2.072  0.00  0.00    -0.506 OA
ATOM     14  H   UNL     1      -2.069   0.161   1.935  0.00  0.00    +0.292 HD
ENDBRANCH  11  13
ENDBRANCH   1   9
BRANCH   2  15
ATOM     15  C   UNL     1      -0.136  -6.343  -1.198  0.00  0.00    +0.114 C 
BRANCH  15  16
ATOM     16  C   UNL     1      -0.237  -6.843  -2.641  0.00  0.00    +0.080 C 
ATOM     17  C   UNL     1      -1.530  -6.311  -3.294  0.00  0.00    +0.019 C 
ATOM     18  C   UNL     1      -2.014  -7.482  -4.186  0.00  0.00    +0.001 C 
ATOM     19  C   UNL     1      -1.682  -8.726  -3.325  0.00  0.00    +0.001 C 
ATOM     20  C   UNL     1      -0.334  -8.379  -2.660  0.00  0.00    +0.019 C 
BRANCH  16  21
ATOM     21  C   UNL     1       0.965  -6.391  -3.429  0.00  0.00    +0.362 C 
ATOM     22  O   UNL     1       1.839  -5.737  -2.887  0.00  0.00    -0.246 OA
ATOM     23  O   UNL     1       1.063  -6.680  -4.610  0.00  0.00    -0.246 OA
ENDBRANCH  16  21
ENDBRANCH  15  16
ENDBRANCH   2  15
TORSDOF 5
