REMARK  Name = ZINC14841432
REMARK  12 active torsions:
REMARK  status: ('A' for Active; 'I' for Inactive)
REMARK    1  A    between atoms: C_1  and  C_2
REMARK    2  A    between atoms: C_2  and  C_3
REMARK    3  A    between atoms: C_2  and  C_4
REMARK    4  A    between atoms: C_4  and  C_6
REMARK    5  A    between atoms: C_4  and  N_16
REMARK    6  A    between atoms: N_8  and  N_9
REMARK    7  A    between atoms: N_9  and  C_10
REMARK    8  A    between atoms: C_10  and  N_12
REMARK    9  A    between atoms: N_12  and  C_13
REMARK   10  A    between atoms: C_13  and  C_14
REMARK   11  A    between atoms: C_13  and  C_15
REMARK   12  A    between atoms: C_17  and  C_19
REMARK                            x       y       z     vdW  Elec       q    Type
REMARK                         _______ _______ _______ _____ _____    ______ ____
ROOT
ATOM      1  C   UNL     1      -2.517   7.729  -0.760  0.00  0.00    +0.163 C 
ENDROOT
BRANCH   1   2
ATOM      2  C   UNL     1      -2.670   8.163  -2.196  0.00  0.00    +0.250 C 
ATOM      3  O   UNL     1      -2.717   7.333  -3.078  0.00  0.00    -0.272 OA
ATOM      4  N   UNL     1      -2.754   9.474  -2.498  0.00  0.00    -0.234 N 
ATOM      5  H   UNL     1      -2.789  10.134  -1.788  0.00  0.00    +0.173 HD
BRANCH   4   6
ATOM      6  N   UNL     1      -2.790   9.883  -3.837  0.00  0.00    -0.246 N 
ATOM      7  H   UNL     1      -2.755   9.223  -4.547  0.00  0.00    +0.172 HD
BRANCH   6   8
ATOM      8  C   UNL     1      -2.874  11.194  -4.140  0.00  0.00    +0.147 C 
ATOM      9  S   UNL     1      -2.919  11.693  -5.777  0.00  0.00    -0.017 S 
BRANCH   8  10
ATOM     10  N   UNL     1      -2.923  12.111  -3.154  0.00  0.00    -0.323 N 
ATOM     11  H   UNL     1      -2.898  11.828  -2.226  0.00  0.00    +0.148 HD
BRANCH  10  12
ATOM     12  C   UNL     1      -3.014  13.536  -3.482  0.00  0.00    +0.066 C 
ATOM     13  C   UNL     1      -3.662  14.287  -2.318  0.00  0.00    +0.027 C 
ATOM     14  C   UNL     1      -1.611  14.092  -3.732  0.00  0.00    +0.027 C 
ENDBRANCH  10  12
ENDBRANCH   8  10
ENDBRANCH   6   8
ENDBRANCH   4   6
ENDBRANCH   1   2
BRANCH   1  15
ATOM     15  N   UNL     1      -2.022   6.351  -0.717  0.00  0.00    -0.303 N 
ATOM     16  C   UNL     1      -1.343   5.913   0.361  0.00  0.00    +0.220 C 
ATOM     17  O   UNL     1      -1.141   6.659   1.296  0.00  0.00    -0.275 OA
ATOM     18  H   UNL     1      -2.183   5.754  -1.464  0.00  0.00    +0.149 HD
BRANCH  16  19
ATOM     19  C   UNL     1      -0.834   4.495   0.406  0.00  0.00    +0.048 C 
ATOM     20  C   UNL     1       0.131   4.262  -0.758  0.00  0.00    +0.019 C 
ATOM     21  C   UNL     1       0.647   2.823  -0.713  0.00  0.00    -0.009 C 
ATOM     22  C   UNL     1       1.378   2.585   0.610  0.00  0.00    +0.007 C 
ATOM     23  C   UNL     1       0.413   2.817   1.774  0.00  0.00    -0.009 C 
ATOM     24  C   UNL     1      -0.103   4.257   1.729  0.00  0.00    +0.019 C 
ATOM     25  C   UNL     1      -0.766   1.849   1.661  0.00  0.00    +0.007 C 
ATOM     26  C   UNL     1      -1.496   2.087   0.338  0.00  0.00    -0.009 C 
ATOM     27  C   UNL     1      -0.531   1.854  -0.826  0.00  0.00    +0.007 C 
ATOM     28  C   UNL     1      -2.013   3.526   0.293  0.00  0.00    +0.019 C 
ENDBRANCH  16  19
ENDBRANCH   1  15
BRANCH   1  30
ATOM     29  C   UNL     1      -4.835   6.800  -0.692  0.00  0.00    +0.009 C 
ATOM     30  C   UNL     1      -3.873   7.807  -0.057  0.00  0.00    +0.012 C 
ATOM     31  C   UNL     1      -3.698   7.479   1.427  0.00  0.00    +0.009 C 
ENDBRANCH   1  30
TORSDOF 8
