REMARK  Name = ZINC36019803
REMARK  13 active torsions:
REMARK  status: ('A' for Active; 'I' for Inactive)
REMARK    1  A    between atoms: C_1  and  C_2
REMARK    2  A    between atoms: C_2  and  C_3
REMARK    3  A    between atoms: C_3  and  N_4
REMARK    4  A    between atoms: N_11  and  C_14
REMARK    5  A    between atoms: C_14  and  C_15
REMARK    6  A    between atoms: C_16  and  C_33
REMARK    7  A    between atoms: C_17  and  C_26
REMARK    8  A    between atoms: N_22  and  C_23
REMARK    9  A    between atoms: C_23  and  C_24
REMARK   10  A    between atoms: C_30  and  C_32
REMARK   11  A    between atoms: C_33  and  O_35
REMARK   12  A    between atoms: O_35  and  C_36
REMARK   13  A    between atoms: C_36  and  C_37
REMARK                            x       y       z     vdW  Elec       q    Type
REMARK                         _______ _______ _______ _____ _____    ______ ____
ROOT
ATOM      1  C   UNL     1      -0.112  -6.952  -6.631  0.00  0.00    +0.011 C 
ATOM      2  C   UNL     1      -0.133  -8.056  -7.409  0.00  0.00    +0.076 C 
ATOM      3  C   UNL     1       0.903  -8.163  -8.509  0.00  0.00    +0.143 C 
ATOM      4  N   UNL     1       1.855  -7.046  -8.640  0.00  0.00    -0.288 N 
ATOM      5  C   UNL     1       1.749  -6.010  -7.785  0.00  0.00    +0.307 C 
ATOM      6  O   UNL     1       2.530  -5.084  -7.885  0.00  0.00    -0.252 OA
ATOM      7  N   UNL     1       0.809  -5.965  -6.833  0.00  0.00    -0.257 N 
ATOM      8  H   UNL     1       2.542  -7.057  -9.325  0.00  0.00    +0.151 HD
ENDROOT
BRANCH   3   9
ATOM      9  C   UNL     1       1.696  -9.424  -8.280  0.00  0.00    -0.022 A 
ATOM     10  C   UNL     1       2.708  -9.442  -7.338  0.00  0.00    +0.006 A 
ATOM     11  C   UNL     1       3.435 -10.598  -7.127  0.00  0.00    +0.001 A 
ATOM     12  C   UNL     1       3.150 -11.737  -7.858  0.00  0.00    +0.003 A 
ATOM     13  C   UNL     1       2.138 -11.719  -8.799  0.00  0.00    -0.050 A 
ATOM     14  C   UNL     1       1.408 -10.563  -9.006  0.00  0.00    +0.009 A 
ATOM     15  C   UNL     1       1.828 -12.960  -9.596  0.00  0.00    +0.044 C 
ENDBRANCH   3   9
BRANCH   2  16
ATOM     16  C   UNL     1      -1.090  -9.077  -7.204  0.00  0.00    +0.339 C 
ATOM     17  O   UNL     1      -1.988  -8.917  -6.400  0.00  0.00    -0.245 OA
BRANCH  16  18
ATOM     18  O   UNL     1      -1.006 -10.230  -7.901  0.00  0.00    -0.462 OA
BRANCH  18  19
ATOM     19  C   UNL     1      -2.006 -11.218  -7.644  0.00  0.00    +0.229 C 
ATOM     20  C   UNL     1      -1.748 -12.445  -8.520  0.00  0.00    +0.048 C 
ENDBRANCH  18  19
ENDBRANCH  16  18
ENDBRANCH   2  16
BRANCH   1  21
ATOM     21  C   UNL     1      -1.126  -6.806  -5.525  0.00  0.00    -0.026 C 
BRANCH  21  29
ATOM     22  N   UNL     1      -5.943  -7.439  -7.854  0.00  0.00    -0.299 N 
ATOM     23  C   UNL     1      -6.054  -6.441  -6.956  0.00  0.00    +0.302 C 
ATOM     24  O   UNL     1      -7.061  -6.338  -6.282  0.00  0.00    -0.253 OA
ATOM     25  N   UNL     1      -5.049  -5.555  -6.805  0.00  0.00    -0.287 N 
ATOM     26  C   UNL     1      -5.145  -4.546  -5.731  0.00  0.00    +0.107 C 
ATOM     27  C   UNL     1      -3.791  -4.362  -5.021  0.00  0.00    +0.000 C 
ATOM     28  C   UNL     1      -3.124  -5.709  -4.853  0.00  0.00    -0.077 C 
ATOM     29  N   UNL     1      -2.228  -5.948  -5.982  0.00  0.00    +0.384 N 
ATOM     30  C   UNL     1      -2.833  -6.559  -7.103  0.00  0.00    -0.059 C 
ATOM     31  C   UNL     1      -3.911  -5.631  -7.697  0.00  0.00    +0.091 C 
ATOM     32  H   UNL     1      -5.172  -7.479  -8.442  0.00  0.00    +0.150 HD
ATOM     33  H   UNL     1      -1.839  -5.064  -6.272  0.00  0.00    -0.081 HD
BRANCH  22  34
ATOM     34  C   UNL     1      -6.986  -8.464  -7.943  0.00  0.00    +0.105 C 
BRANCH  34  36
ATOM     35  C   UNL     1      -7.707 -10.543  -9.127  0.00  0.00    +0.005 C 
ATOM     36  C   UNL     1      -6.618  -9.472  -9.034  0.00  0.00    +0.015 C 
ENDBRANCH  34  36
ENDBRANCH  22  34
ENDBRANCH  21  29
ENDBRANCH   1  21
BRANCH   7  37
ATOM     37  C   UNL     1       0.769  -4.792  -5.955  0.00  0.00    +0.141 C 
BRANCH  37  38
ATOM     38  C   UNL     1       1.734  -4.987  -4.814  0.00  0.00    -0.015 C 
ATOM     39  C   UNL     1       2.656  -4.087  -4.575  0.00  0.00    +0.005 C 
ENDBRANCH  37  38
ENDBRANCH   7  37
TORSDOF 10
