REMARK  Name = ZINC62273362
REMARK  5 active torsions:
REMARK  status: ('A' for Active; 'I' for Inactive)
REMARK    1  A    between atoms: C_1  and  C_2
REMARK    2  A    between atoms: C_2  and  C_4
REMARK    3  A    between atoms: C_2  and  N_7
REMARK    4  A    between atoms: C_8  and  C_15
REMARK    5  A    between atoms: C_9  and  C_12
REMARK                            x       y       z     vdW  Elec       q    Type
REMARK                         _______ _______ _______ _____ _____    ______ ____
ROOT
ATOM      1  N   UNL     1       0.688  -0.476  -1.203  0.00  0.00    -0.232 N 
ATOM      2  C   UNL     1       0.164  -1.252  -2.172  0.00  0.00    +0.103 A 
ATOM      3  C   UNL     1       1.159  -1.446  -3.105  0.00  0.00    +0.199 A 
ATOM      4  N   UNL     1       2.259  -0.792  -2.689  0.00  0.00    -0.122 NA
ATOM      5  N   UNL     1       2.013  -0.203  -1.571  0.00  0.00    -0.064 NA
ENDROOT
BRANCH   2   6
ATOM      6  C   UNL     1      -1.239  -1.800  -2.226  0.00  0.00    +0.169 C 
ATOM      7  C   UNL     1      -2.074  -1.038  -3.287  0.00  0.00    +0.040 C 
ATOM      8  C   UNL     1      -3.151  -2.102  -3.633  0.00  0.00    +0.031 C 
ATOM      9  C   UNL     1      -2.362  -3.423  -3.501  0.00  0.00    +0.161 C 
ATOM     10  O   UNL     1      -1.224  -3.166  -2.668  0.00  0.00    -0.370 OA
ENDBRANCH   2   6
BRANCH   3  11
ATOM     11  C   UNL     1       1.040  -2.234  -4.342  0.00  0.00    +0.408 C 
ATOM     12  O   UNL     1      -0.016  -2.787  -4.616  0.00  0.00    -0.239 OA
ATOM     13  O   UNL     1       1.998  -2.336  -5.097  0.00  0.00    -0.239 OA
ENDBRANCH   3  11
BRANCH   1  15
ATOM     14  C   UNL     1      -0.019   1.526   0.010  0.00  0.00    +0.045 C 
ATOM     15  C   UNL     1       0.002  -0.004   0.002  0.00  0.00    +0.219 C 
BRANCH  15  16
ATOM     16  C   UNL     1       0.731  -0.503   1.223  0.00  0.00    +0.380 C 
ATOM     17  O   UNL     1       0.321  -0.220   2.336  0.00  0.00    -0.244 OA
ATOM     18  O   UNL     1       1.730  -1.190   1.098  0.00  0.00    -0.244 OA
ENDBRANCH  15  16
ENDBRANCH   1  15
TORSDOF 4
