REMARK  Name = ZINC06669933
REMARK  6 active torsions:
REMARK  status: ('A' for Active; 'I' for Inactive)
REMARK    1  A    between atoms: C_1  and  C_2
REMARK    2  A    between atoms: C_8  and  C_10
REMARK    3  A    between atoms: N_12  and  C_13
REMARK    4  A    between atoms: C_14  and  C_24
REMARK    5  A    between atoms: C_20  and  C_22
REMARK    6  A    between atoms: C_20  and  C_23
REMARK                            x       y       z     vdW  Elec       q    Type
REMARK                         _______ _______ _______ _____ _____    ______ ____
ROOT
ATOM      1  C   UNL     1       4.646  -4.994   2.404  0.00  0.00    +0.085 A 
ATOM      2  C   UNL     1       5.762  -5.802   2.572  0.00  0.00    +0.069 A 
ATOM      3  C   UNL     1       6.199  -6.049   3.931  0.00  0.00    -0.018 A 
ATOM      4  C   UNL     1       5.442  -5.446   4.877  0.00  0.00    +0.021 A 
ATOM      5  S   UNL     1       4.200  -4.577   3.969  0.00  0.00    -0.075 S 
ATOM      6  C   UNL     1       5.656  -5.526   6.356  0.00  0.00    +0.203 C 
ATOM      7  O   UNL     1       6.583  -6.595   6.608  0.00  0.00    -0.368 OA
ATOM      8  C   UNL     1       7.752  -6.548   5.786  0.00  0.00    +0.068 C 
ATOM      9  C   UNL     1       7.395  -6.899   4.338  0.00  0.00    +0.071 C 
ATOM     10  C   UNL     1       8.782  -7.550   6.311  0.00  0.00    +0.041 C 
ATOM     11  C   UNL     1       8.349  -5.140   5.834  0.00  0.00    +0.041 C 
ENDROOT
BRANCH   2  12
ATOM     12  C   UNL     1       6.468  -6.380   1.424  0.00  0.00    +0.244 C 
ATOM     13  O   UNL     1       7.383  -5.770   0.902  0.00  0.00    -0.270 OA
ATOM     14  N   UNL     1       6.104  -7.586   0.947  0.00  0.00    -0.325 N 
ATOM     15  H   UNL     1       5.375  -8.072   1.363  0.00  0.00    +0.145 HD
ATOM     16  H   UNL     1       6.572  -7.969   0.187  0.00  0.00    +0.145 HD
ENDBRANCH   2  12
BRANCH   1  19
ATOM     17  C   UNL     1       2.958  -3.814   1.240  0.00  0.00    +0.304 C 
ATOM     18  O   UNL     1       2.511  -3.425   2.300  0.00  0.00    -0.265 OA
ATOM     19  N   UNL     1       4.041  -4.615   1.218  0.00  0.00    -0.272 N 
ATOM     20  H   UNL     1       4.397  -4.926   0.371  0.00  0.00    +0.156 HD
BRANCH  17  28
ATOM     21  C   UNL     1      -0.843   1.028   0.349  0.00  0.00    +0.007 C 
ATOM     22  C   UNL     1      -0.554  -0.464   0.176  0.00  0.00    -0.011 C 
ATOM     23  C   UNL     1       0.316  -0.675  -1.065  0.00  0.00    +0.022 C 
ATOM     24  C   UNL     1       0.574  -2.173  -1.255  0.00  0.00    +0.108 C 
ATOM     25  N   UNL     1       1.148  -2.715  -0.015  0.00  0.00    -0.294 N 
ATOM     26  C   UNL     1       0.437  -2.490   1.250  0.00  0.00    +0.108 C 
ATOM     27  C   UNL     1       0.181  -0.988   1.412  0.00  0.00    +0.022 C 
ATOM     28  C   UNL     1       2.305  -3.405  -0.040  0.00  0.00    +0.302 C 
ATOM     29  O   UNL     1       2.818  -3.694  -1.101  0.00  0.00    -0.265 OA
ENDBRANCH  17  28
ENDBRANCH   1  19
TORSDOF 3
