REMARK  Name = ZINC15946385
REMARK  6 active torsions:
REMARK  status: ('A' for Active; 'I' for Inactive)
REMARK    1  A    between atoms: C_1  and  C_2
REMARK    2  A    between atoms: C_2  and  C_3
REMARK    3  A    between atoms: C_2  and  N_4
REMARK    4  A    between atoms: C_12  and  O_29
REMARK    5  A    between atoms: C_14  and  C_17
REMARK    6  A    between atoms: C_20  and  C_22
REMARK                            x       y       z     vdW  Elec       q    Type
REMARK                         _______ _______ _______ _____ _____    ______ ____
ROOT
ATOM      1  N   UNL     1       0.637  -0.213  -1.306  0.00  0.00    +0.384 N 
ATOM      2  C   UNL     1       0.579  -1.639  -1.655  0.00  0.00    -0.073 C 
ATOM      3  C   UNL     1       0.945  -1.837  -3.130  0.00  0.00    +0.018 C 
ATOM      4  C   UNL     1       2.273  -1.135  -3.381  0.00  0.00    -0.027 A 
ATOM      5  C   UNL     1       2.729  -0.213  -2.500  0.00  0.00    -0.021 A 
ATOM      6  S   UNL     1       4.272   0.330  -3.175  0.00  0.00    -0.080 S 
ATOM      7  C   UNL     1       4.318  -0.607  -4.543  0.00  0.00    +0.080 A 
ATOM      8  C   UNL     1       3.138  -1.362  -4.520  0.00  0.00    +0.067 A 
ATOM      9  C   UNL     1       2.902  -2.296  -5.652  0.00  0.00    +0.220 C 
ATOM     10  N   UNL     1       3.902  -2.541  -6.455  0.00  0.00    -0.220 NA
ATOM     11  C   UNL     1       5.250  -2.013  -6.282  0.00  0.00    +0.260 C 
ATOM     12  N   UNL     1       5.240  -0.729  -5.557  0.00  0.00    -0.311 N 
ATOM     13  C   UNL     1       2.044   0.224  -1.244  0.00  0.00    -0.035 C 
ATOM     14  H   UNL     1       5.851  -0.009  -5.783  0.00  0.00    +0.149 HD
ATOM     15  H   UNL     1       0.149   0.324  -2.006  0.00  0.00    -0.081 HD
ENDROOT
BRANCH  11  16
ATOM     16  C   UNL     1       6.072  -3.008  -5.505  0.00  0.00    +0.148 A 
ATOM     17  C   UNL     1       5.909  -4.345  -5.522  0.00  0.00    +0.049 A 
ATOM     18  C   UNL     1       6.882  -4.891  -4.660  0.00  0.00    +0.050 A 
ATOM     19  C   UNL     1       7.591  -3.845  -4.158  0.00  0.00    +0.135 A 
ATOM     20  O   UNL     1       7.093  -2.710  -4.684  0.00  0.00    -0.456 OA
BRANCH  19  21
ATOM     21  C   UNL     1       8.718  -3.939  -3.207  0.00  0.00    +0.017 A 
ATOM     22  C   UNL     1       9.145  -5.186  -2.746  0.00  0.00    +0.013 A 
ATOM     23  C   UNL     1      10.197  -5.266  -1.859  0.00  0.00    +0.021 A 
ATOM     24  C   UNL     1      10.830  -4.114  -1.423  0.00  0.00    +0.041 A 
ATOM     25  C   UNL     1      10.411  -2.874  -1.876  0.00  0.00    +0.021 A 
ATOM     26  C   UNL     1       9.363  -2.781  -2.769  0.00  0.00    +0.013 A 
ATOM     27 CL   UNL     1      12.153  -4.224  -0.305  0.00  0.00    -0.084 Cl
ENDBRANCH  19  21
ENDBRANCH  11  16
BRANCH   1  29
ATOM     28  C   UNL     1       0.150   1.462   0.412  0.00  0.00    -0.014 C 
ATOM     29  C   UNL     1       0.002  -0.004   0.002  0.00  0.00    -0.074 C 
ATOM     30  C   UNL     1      -1.483  -0.360  -0.089  0.00  0.00    -0.014 C 
ENDBRANCH   1  29
BRANCH   9  31
ATOM     31  O   UNL     1       1.693  -2.872  -5.844  0.00  0.00    -0.492 OA
ATOM     32  H   UNL     1       1.655  -3.461  -6.610  0.00  0.00    +0.294 HD
ENDBRANCH   9  31
TORSDOF 4
