REMARK  Name = ZINC11912659
REMARK  11 active torsions:
REMARK  status: ('A' for Active; 'I' for Inactive)
REMARK    1  A    between atoms: C_1  and  C_2
REMARK    2  A    between atoms: C_2  and  N_3
REMARK    3  A    between atoms: N_3  and  C_4
REMARK    4  A    between atoms: C_4  and  C_5
REMARK    5  A    between atoms: C_6  and  C_8
REMARK    6  A    between atoms: C_14  and  C_15
REMARK    7  A    between atoms: C_14  and  N_75
REMARK    8  A    between atoms: C_18  and  C_23
REMARK    9  A    between atoms: N_25  and  C_26
REMARK   10  A    between atoms: C_26  and  C_27
REMARK   11  A    between atoms: N_36  and  C_37
REMARK                            x       y       z     vdW  Elec       q    Type
REMARK                         _______ _______ _______ _____ _____    ______ ____
ROOT
ATOM      1  C   UNL     1      -5.739   2.937  -6.537  0.00  0.00    +0.003 A 
ATOM      2  C   UNL     1      -5.724   2.755  -7.882  0.00  0.00    +0.020 A 
ATOM      3  C   UNL     1      -6.266   3.724  -8.726  0.00  0.00    +0.020 A 
ATOM      4  C   UNL     1      -6.819   4.873  -8.166  0.00  0.00    +0.101 A 
ATOM      5  C   UNL     1      -6.811   5.018  -6.754  0.00  0.00    +0.261 A 
ATOM      6  O   UNL     1      -7.289   6.014  -6.239  0.00  0.00    -0.267 OA
ATOM      7  N   UNL     1      -6.279   4.050  -5.985  0.00  0.00    -0.327 N 
ATOM      8  H   UNL     1      -6.280   4.152  -5.021  0.00  0.00    +0.169 HD
ENDROOT
BRANCH   4   9
ATOM      9  C   UNL     1      -7.401   5.918  -9.022  0.00  0.00    +0.250 C 
ATOM     10  O   UNL     1      -7.506   5.734 -10.220  0.00  0.00    -0.270 OA
ATOM     11  N   UNL     1      -7.818   7.079  -8.480  0.00  0.00    -0.307 N 
ATOM     12  H   UNL     1      -7.673   7.254  -7.537  0.00  0.00    +0.149 HD
BRANCH  11  13
ATOM     13  C   UNL     1      -8.491   8.078  -9.314  0.00  0.00    +0.139 C 
BRANCH  13  14
ATOM     14  C   UNL     1      -8.852   9.274  -8.473  0.00  0.00    -0.030 A 
ATOM     15  C   UNL     1     -10.079   9.328  -7.835  0.00  0.00    +0.007 A 
ATOM     16  C   UNL     1     -10.407  10.422  -7.065  0.00  0.00    +0.024 A 
ATOM     17  C   UNL     1      -9.513  11.486  -6.931  0.00  0.00    +0.033 A 
ATOM     18  C   UNL     1      -8.287  11.427  -7.571  0.00  0.00    -0.026 A 
ATOM     19  C   UNL     1      -7.963  10.322  -8.341  0.00  0.00    +0.010 A 
ATOM     20  C   UNL     1      -7.270  12.534  -7.452  0.00  0.00    +0.038 C 
ATOM     21  C   UNL     1      -7.943  13.796  -6.907  0.00  0.00    +0.024 C 
ATOM     22  C   UNL     1      -8.790  13.393  -5.694  0.00  0.00    +0.105 C 
ATOM     23  N   UNL     1      -9.912  12.574  -6.156  0.00  0.00    -0.333 N 
ATOM     24  C   UNL     1     -10.746  12.138  -5.028  0.00  0.00    +0.129 C 
ENDBRANCH  13  14
ENDBRANCH  11  13
ENDBRANCH   4   9
BRANCH   1  25
ATOM     25  C   UNL     1      -5.148   1.879  -5.641  0.00  0.00    -0.025 C 
BRANCH  25  31
ATOM     26  C   UNL     1      -2.393   2.178  -3.092  0.00  0.00    +0.059 C 
ATOM     27  C   UNL     1      -1.236   2.514  -4.037  0.00  0.00    +0.009 C 
ATOM     28  C   UNL     1      -1.749   3.425  -5.155  0.00  0.00    -0.018 C 
ATOM     29  C   UNL     1      -2.894   2.725  -5.891  0.00  0.00    -0.078 C 
ATOM     30  C   UNL     1      -3.520   1.515  -3.887  0.00  0.00    -0.066 C 
ATOM     31  N   UNL     1      -3.985   2.452  -4.932  0.00  0.00    +0.384 N 
ATOM     32  H   UNL     1      -4.266   3.333  -4.488  0.00  0.00    -0.081 HD
BRANCH  26  34
ATOM     33  N   UNL     1      -1.127   1.690  -1.023  0.00  0.00    -0.302 N 
ATOM     34  C   UNL     1      -1.910   1.234  -2.021  0.00  0.00    +0.217 C 
ATOM     35  O   UNL     1      -2.225   0.063  -2.057  0.00  0.00    -0.275 OA
BRANCH  33  37
ATOM     36  C   UNL     1      -1.633   0.706   1.158  0.00  0.00    +0.024 C 
ATOM     37  C   UNL     1      -0.633   0.767   0.002  0.00  0.00    +0.104 C 
ENDBRANCH  33  37
BRANCH  33  38
ATOM     38  C   UNL     1      -0.771   3.110  -0.963  0.00  0.00    +0.104 C 
ATOM     39  C   UNL     1       0.677   3.292  -1.422  0.00  0.00    +0.024 C 
ENDBRANCH  33  38
ENDBRANCH  26  34
ENDBRANCH  25  31
ENDBRANCH   1  25
TORSDOF 8
