REMARK  Name = ZINC01075099
REMARK  8 active torsions:
REMARK  status: ('A' for Active; 'I' for Inactive)
REMARK    1  A    between atoms: C_8  and  C_32
REMARK    2  A    between atoms: N_9  and  C_10
REMARK    3  A    between atoms: C_10  and  C_11
REMARK    4  A    between atoms: N_13  and  N_14
REMARK    5  A    between atoms: C_15  and  C_16
REMARK    6  A    between atoms: C_19  and  C_21
REMARK    7  A    between atoms: C_24  and  O_27
REMARK    8  A    between atoms: O_27  and  C_28
REMARK                            x       y       z     vdW  Elec       q    Type
REMARK                         _______ _______ _______ _____ _____    ______ ____
ROOT
ATOM      1  C   UNL     1       1.170   3.362   0.009  0.00  0.00    +0.252 C 
ATOM      2  O   UNL     1       0.111   3.954   0.022  0.00  0.00    -0.272 OA
ATOM      3  N   UNL     1       1.188   2.015   0.002  0.00  0.00    -0.205 N 
ATOM      4  H   UNL     1       2.035   1.541  -0.009  0.00  0.00    +0.177 HD
ENDROOT
BRANCH   3   5
ATOM      5  N   UNL     1      -0.016   1.298   0.009  0.00  0.00    -0.185 NA
ATOM      6  C   UNL     1       0.002  -0.004   0.002  0.00  0.00    +0.176 C 
BRANCH   6   7
ATOM      7  C   UNL     1      -1.256  -0.753   0.010  0.00  0.00    +0.148 A 
ATOM      8  C   UNL     1      -1.380  -2.125  -0.002  0.00  0.00    +0.051 A 
ATOM      9  C   UNL     1      -2.752  -2.407   0.015  0.00  0.00    +0.050 A 
ATOM     10  C   UNL     1      -3.407  -1.211   0.027  0.00  0.00    +0.136 A 
ATOM     11  O   UNL     1      -2.495  -0.220   0.024  0.00  0.00    -0.454 OA
BRANCH  10  12
ATOM     12  C   UNL     1      -4.872  -1.031   0.041  0.00  0.00    +0.018 A 
ATOM     13  C   UNL     1      -5.714  -2.146   0.037  0.00  0.00    +0.015 A 
ATOM     14  C   UNL     1      -7.082  -1.974   0.054  0.00  0.00    +0.046 A 
ATOM     15  C   UNL     1      -7.622  -0.695   0.067  0.00  0.00    +0.130 A 
ATOM     16  C   UNL     1      -6.789   0.416   0.066  0.00  0.00    +0.046 A 
ATOM     17  C   UNL     1      -5.420   0.254   0.053  0.00  0.00    +0.015 A 
BRANCH  15  18
ATOM     18  O   UNL     1      -8.971  -0.530   0.079  0.00  0.00    -0.406 OA
BRANCH  18  19
ATOM     19  C   UNL     1      -9.770  -1.715   0.079  0.00  0.00    +0.575 C 
ATOM     20  F   UNL     1      -9.474  -2.477   1.214  0.00  0.00    -0.133 F 
ATOM     21  F   UNL     1     -11.124  -1.364   0.092  0.00  0.00    -0.133 F 
ATOM     22  F   UNL     1      -9.493  -2.463  -1.070  0.00  0.00    -0.133 F 
ENDBRANCH  18  19
ENDBRANCH  15  18
ENDBRANCH  10  12
ENDBRANCH   6   7
ENDBRANCH   3   5
BRANCH   1  23
ATOM     23  C   UNL     1       2.465   4.133   0.001  0.00  0.00    +0.221 C 
BRANCH  23  32
ATOM     24  C   UNL     1       1.572   8.484  -2.842  0.00  0.00    +0.002 A 
ATOM     25  C   UNL     1       1.822   7.209  -3.330  0.00  0.00    +0.002 A 
ATOM     26  C   UNL     1       2.039   6.159  -2.464  0.00  0.00    +0.028 A 
ATOM     27  C   UNL     1       2.012   6.380  -1.094  0.00  0.00    +0.070 A 
ATOM     28  C   UNL     1       1.753   7.671  -0.599  0.00  0.00    +0.090 A 
ATOM     29  C   UNL     1       1.536   8.721  -1.498  0.00  0.00    +0.030 A 
ATOM     30  N   UNL     1       1.780   7.594   0.753  0.00  0.00    -0.226 NA
ATOM     31  C   UNL     1       2.029   6.361   1.119  0.00  0.00    +0.168 A 
ATOM     32  N   UNL     1       2.177   5.570   0.011  0.00  0.00    -0.313 N 
BRANCH  31  33
ATOM     33  C   UNL     1       2.134   5.893   2.518  0.00  0.00    +0.190 A 
ATOM     34  C   UNL     1       1.996   6.673   3.770  0.00  0.00    +0.191 A 
ATOM     35  N   UNL     1       2.180   5.762   4.696  0.00  0.00    -0.033 NA
ATOM     36  O   UNL     1       2.389   4.693   4.174  0.00  0.00    -0.240 OA
ATOM     37  N   UNL     1       2.381   4.680   2.965  0.00  0.00    -0.044 NA
ATOM     38  N   UNL     1       1.733   8.028   3.925  0.00  0.00    -0.339 N 
ATOM     39  H   UNL     1       1.615   8.591   3.144  0.00  0.00    +0.144 HD
ATOM     40  H   UNL     1       1.668   8.412   4.813  0.00  0.00    +0.144 HD
ENDBRANCH  31  33
ENDBRANCH  23  32
ENDBRANCH   1  23
TORSDOF 8
