REMARK  Name = ZINC15064233
REMARK  7 active torsions:
REMARK  status: ('A' for Active; 'I' for Inactive)
REMARK    1  A    between atoms: C_10  and  C_11
REMARK    2  A    between atoms: C_11  and  N_57
REMARK    3  A    between atoms: C_17  and  C_19
REMARK    4  A    between atoms: C_19  and  C_20
REMARK    5  A    between atoms: N_22  and  C_23
REMARK    6  A    between atoms: C_23  and  C_24
REMARK    7  A    between atoms: C_24  and  C_25
REMARK                            x       y       z     vdW  Elec       q    Type
REMARK                         _______ _______ _______ _____ _____    ______ ____
ROOT
ATOM      1  C   UNL     1       4.146   3.604  -3.073  0.00  0.00    -0.058 C 
ATOM      2  C   UNL     1       4.652   2.939  -4.355  0.00  0.00    +0.085 C 
ATOM      3  N   UNL     1       5.942   2.300  -4.110  0.00  0.00    -0.318 N 
ATOM      4  C   UNL     1       6.388   2.008  -2.884  0.00  0.00    +0.200 C 
ATOM      5  O   UNL     1       7.458   1.448  -2.773  0.00  0.00    -0.278 OA
ATOM      6  C   UNL     1       5.619   2.345  -1.638  0.00  0.00    +0.028 C 
ATOM      7  H   UNL     1       6.500   2.076  -4.872  0.00  0.00    +0.149 HD
ATOM      8  N   UNL     1       4.210   2.607  -1.985  0.00  0.00    +0.391 N 
ATOM      9  H   UNL     1       3.774   1.734  -2.304  0.00  0.00    -0.080 HD
ENDROOT
BRANCH   8  10
ATOM     10  C   UNL     1       3.479   3.104  -0.797  0.00  0.00    -0.041 C 
BRANCH  10  20
ATOM     11  C   UNL     1      -0.867   0.559  -1.709  0.00  0.00    +0.001 A 
ATOM     12  C   UNL     1       0.423   0.192  -1.329  0.00  0.00    +0.001 A 
ATOM     13  C   UNL     1       1.396   1.128  -1.161  0.00  0.00    +0.009 A 
ATOM     14  C   UNL     1       1.098   2.486  -1.367  0.00  0.00    -0.017 A 
ATOM     15  C   UNL     1      -0.215   2.859  -1.748  0.00  0.00    -0.018 A 
ATOM     16  C   UNL     1      -1.194   1.864  -1.912  0.00  0.00    +0.008 A 
ATOM     17  C   UNL     1      -0.513   4.217  -1.954  0.00  0.00    +0.008 A 
ATOM     18  C   UNL     1       0.461   5.153  -1.785  0.00  0.00    +0.001 A 
ATOM     19  C   UNL     1       1.752   4.786  -1.410  0.00  0.00    +0.002 A 
ATOM     20  C   UNL     1       2.077   3.481  -1.202  0.00  0.00    -0.056 A 
ENDBRANCH  10  20
ENDBRANCH   8  10
BRANCH   6  21
ATOM     21  C   UNL     1       5.680   1.163  -0.668  0.00  0.00    +0.089 C 
BRANCH  21  22
ATOM     22  C   UNL     1       5.011  -0.035  -1.293  0.00  0.00    +0.212 C 
ATOM     23  O   UNL     1       4.447   0.075  -2.361  0.00  0.00    -0.276 OA
ATOM     24  N   UNL     1       5.040  -1.227  -0.665  0.00  0.00    -0.315 N 
ATOM     25  H   UNL     1       5.491  -1.314   0.189  0.00  0.00    +0.149 HD
BRANCH  24  26
ATOM     26  C   UNL     1       4.389  -2.390  -1.272  0.00  0.00    +0.109 C 
BRANCH  26  27
ATOM     27  C   UNL     1       4.568  -3.607  -0.362  0.00  0.00    +0.054 C 
BRANCH  27  28
ATOM     28  C   UNL     1       3.899  -4.804  -0.987  0.00  0.00    -0.045 A 
ATOM     29  C   UNL     1       2.575  -5.083  -0.703  0.00  0.00    +0.004 A 
ATOM     30  C   UNL     1       1.960  -6.178  -1.279  0.00  0.00    +0.002 A 
ATOM     31  C   UNL     1       2.671  -7.002  -2.132  0.00  0.00    +0.020 A 
ATOM     32  C   UNL     1       3.997  -6.726  -2.412  0.00  0.00    +0.041 A 
ATOM     33  C   UNL     1       4.611  -5.627  -1.839  0.00  0.00    +0.023 A 
ATOM     34 CL   UNL     1       4.891  -7.761  -3.483  0.00  0.00    -0.084 Cl
ENDBRANCH  27  28
ENDBRANCH  26  27
ENDBRANCH  24  26
ENDBRANCH  21  22
ENDBRANCH   6  21
TORSDOF 7
