REMARK  Name = ZINC14668209
REMARK  9 active torsions:
REMARK  status: ('A' for Active; 'I' for Inactive)
REMARK    1  A    between atoms: C_1  and  O_2
REMARK    2  A    between atoms: O_2  and  C_3
REMARK    3  A    between atoms: C_6  and  C_9
REMARK    4  A    between atoms: C_9  and  C_10
REMARK    5  A    between atoms: C_10  and  C_11
REMARK    6  A    between atoms: N_13  and  C_14
REMARK    7  A    between atoms: C_17  and  S_20
REMARK    8  A    between atoms: S_20  and  C_23
REMARK    9  A    between atoms: C_26  and  N_29
REMARK                            x       y       z     vdW  Elec       q    Type
REMARK                         _______ _______ _______ _____ _____    ______ ____
ROOT
ATOM      1  C   UNL     1       1.158  -6.261  -2.596  0.00  0.00    +0.033 A 
ATOM      2  C   UNL     1       1.087  -6.912  -1.371  0.00  0.00    +0.025 A 
ATOM      3  C   UNL     1       1.008  -8.290  -1.327  0.00  0.00    +0.029 A 
ATOM      4  C   UNL     1       1.012  -9.022  -2.500  0.00  0.00    +0.094 A 
ATOM      5  C   UNL     1       1.088  -8.378  -3.721  0.00  0.00    +0.029 A 
ATOM      6  C   UNL     1       1.161  -6.999  -3.772  0.00  0.00    +0.025 A 
ENDROOT
BRANCH   1   9
ATOM      7  C   UNL     1       0.629  -4.192  -3.645  0.00  0.00    +0.218 C 
ATOM      8  O   UNL     1       0.095  -4.800  -4.548  0.00  0.00    -0.275 OA
ATOM      9  N   UNL     1       1.231  -4.865  -2.644  0.00  0.00    -0.285 N 
ATOM     10  H   UNL     1       1.716  -4.380  -1.958  0.00  0.00    +0.155 HD
BRANCH   7  11
ATOM     11  C   UNL     1       0.619  -2.685  -3.641  0.00  0.00    +0.101 C 
BRANCH  11  12
ATOM     12  C   UNL     1      -0.124  -2.178  -4.879  0.00  0.00    +0.044 C 
BRANCH  12  16
ATOM     13  C   UNL     1      -0.153   2.096  -4.870  0.00  0.00    +0.120 A 
ATOM     14  C   UNL     1       0.883   1.409  -5.486  0.00  0.00    +0.046 A 
ATOM     15  C   UNL     1       0.890   0.028  -5.488  0.00  0.00    +0.007 A 
ATOM     16  C   UNL     1      -0.134  -0.670  -4.875  0.00  0.00    -0.047 A 
ATOM     17  C   UNL     1      -1.168   0.011  -4.260  0.00  0.00    +0.007 A 
ATOM     18  C   UNL     1      -1.180   1.393  -4.256  0.00  0.00    +0.046 A 
BRANCH  13  20
ATOM     19  C   UNL     1      -1.260   4.095  -4.213  0.00  0.00    +0.277 C 
ATOM     20  O   UNL     1      -0.162   3.455  -4.867  0.00  0.00    -0.495 OA
ENDBRANCH  13  20
ENDBRANCH  12  16
ENDBRANCH  11  12
ENDBRANCH   7  11
ENDBRANCH   1   9
BRANCH   4  21
ATOM     21  S   UNL     1       0.919 -10.781  -2.439  0.00  0.00    +0.025 S 
ATOM     22  O   UNL     1       0.306 -11.112  -1.200  0.00  0.00    -0.164 OA
ATOM     23  O   UNL     1       0.389 -11.203  -3.688  0.00  0.00    -0.164 OA
BRANCH  21  24
ATOM     24  C   UNL     1       2.571 -11.388  -2.362  0.00  0.00    +0.094 A 
ATOM     25  C   UNL     1       3.257 -11.675  -3.527  0.00  0.00    +0.029 A 
ATOM     26  C   UNL     1       4.555 -12.147  -3.467  0.00  0.00    +0.034 A 
ATOM     27  C   UNL     1       5.163 -12.341  -2.241  0.00  0.00    +0.126 A 
ATOM     28  C   UNL     1       4.476 -12.059  -1.075  0.00  0.00    +0.034 A 
ATOM     29  C   UNL     1       3.179 -11.582  -1.136  0.00  0.00    +0.029 A 
BRANCH  27  30
ATOM     30  N   UNL     1       6.551 -12.851  -2.176  0.00  0.00    +0.056 N 
ATOM     31  O   UNL     1       7.088 -13.021  -1.096  0.00  0.00    -0.126 OA
ATOM     32  O   UNL     1       7.157 -13.100  -3.203  0.00  0.00    -0.126 OA
ENDBRANCH  27  30
ENDBRANCH  21  24
ENDBRANCH   4  21
TORSDOF 8
