REMARK  Name = ZINC12891206
REMARK  8 active torsions:
REMARK  status: ('A' for Active; 'I' for Inactive)
REMARK    1  A    between atoms: C_1  and  C_2
REMARK    2  A    between atoms: C_9  and  C_14
REMARK    3  A    between atoms: C_14  and  O_16
REMARK    4  A    between atoms: O_16  and  C_17
REMARK    5  A    between atoms: C_17  and  C_18
REMARK    6  A    between atoms: N_20  and  C_21
REMARK    7  A    between atoms: C_21  and  C_23
REMARK    8  A    between atoms: C_21  and  C_24
REMARK                            x       y       z     vdW  Elec       q    Type
REMARK                         _______ _______ _______ _____ _____    ______ ____
ROOT
ATOM      1  O   UNL     1      -1.360  -0.507   0.012  0.00  0.00    -0.452 OA
ENDROOT
BRANCH   1   2
ATOM      2  C   UNL     1      -1.519  -1.845   0.007  0.00  0.00    +0.340 C 
ATOM      3  O   UNL     1      -0.545  -2.572  -0.007  0.00  0.00    -0.245 OA
BRANCH   2  11
ATOM      4  C   UNL     1      -7.978  -6.711  -0.611  0.00  0.00    +0.029 C 
ATOM      5  C   UNL     1      -6.789  -5.781  -0.863  0.00  0.00    +0.134 C 
ATOM      6  C   UNL     1      -5.526  -6.431  -0.367  0.00  0.00    +0.230 C 
ATOM      7  O   UNL     1      -5.488  -7.642  -0.315  0.00  0.00    -0.274 OA
ATOM      8  N   UNL     1      -4.450  -5.751   0.017  0.00  0.00    -0.284 N 
ATOM      9  C   UNL     1      -4.306  -4.365   0.018  0.00  0.00    +0.048 A 
ATOM     10  C   UNL     1      -3.035  -3.814   0.011  0.00  0.00    +0.039 A 
ATOM     11  C   UNL     1      -2.872  -2.427   0.017  0.00  0.00    +0.061 A 
ATOM     12  C   UNL     1      -3.992  -1.589   0.037  0.00  0.00    +0.016 A 
ATOM     13  C   UNL     1      -5.256  -2.136   0.040  0.00  0.00    +0.017 A 
ATOM     14  C   UNL     1      -5.417  -3.515   0.032  0.00  0.00    +0.030 A 
ATOM     15  S   UNL     1      -7.036  -4.219   0.036  0.00  0.00    -0.111 S 
ATOM     16  H   UNL     1      -3.691  -6.270   0.327  0.00  0.00    +0.155 HD
ENDBRANCH   2  11
ENDBRANCH   1   2
BRANCH   1  17
ATOM     17  C   UNL     1       0.002  -0.004   0.002  0.00  0.00    +0.328 C 
BRANCH  17  18
ATOM     18  C   UNL     1      -0.018   1.503   0.010  0.00  0.00    +0.251 C 
ATOM     19  O   UNL     1      -1.077   2.095   0.018  0.00  0.00    -0.272 OA
ATOM     20  N   UNL     1       1.139   2.192   0.003  0.00  0.00    -0.303 N 
ATOM     21  H   UNL     1       1.986   1.719  -0.008  0.00  0.00    +0.149 HD
BRANCH  20  22
ATOM     22  C   UNL     1       1.120   3.657   0.011  0.00  0.00    +0.136 C 
ATOM     23  C   UNL     1       0.973   4.173  -1.422  0.00  0.00    +0.036 C 
BRANCH  22  24
ATOM     24  C   UNL     1       2.406   4.174   0.602  0.00  0.00    +0.126 A 
ATOM     25  C   UNL     1       2.502   5.220   1.434  0.00  0.00    +0.055 A 
ATOM     26  C   UNL     1       3.929   5.360   1.752  0.00  0.00    +0.020 A 
ATOM     27  C   UNL     1       4.670   6.235   2.545  0.00  0.00    +0.011 A 
ATOM     28  C   UNL     1       6.026   6.089   2.630  0.00  0.00    +0.001 A 
ATOM     29  C   UNL     1       6.669   5.077   1.932  0.00  0.00    +0.004 A 
ATOM     30  C   UNL     1       5.953   4.202   1.143  0.00  0.00    +0.047 A 
ATOM     31  C   UNL     1       4.574   4.332   1.043  0.00  0.00    +0.135 A 
ATOM     32  O   UNL     1       3.623   3.648   0.376  0.00  0.00    -0.458 OA
ENDBRANCH  22  24
ENDBRANCH  20  22
ENDBRANCH  17  18
ENDBRANCH   1  17
TORSDOF 6
