REMARK  Name = ZINC39677678
REMARK  6 active torsions:
REMARK  status: ('A' for Active; 'I' for Inactive)
REMARK    1  A    between atoms: C_1  and  C_2
REMARK    2  A    between atoms: C_7  and  C_10
REMARK    3  A    between atoms: C_14  and  C_23
REMARK    4  A    between atoms: N_25  and  C_26
REMARK    5  A    between atoms: C_26  and  C_27
REMARK    6  A    between atoms: C_30  and  C_32
REMARK                            x       y       z     vdW  Elec       q    Type
REMARK                         _______ _______ _______ _____ _____    ______ ____
ROOT
ATOM      1  C   UNL     1      -4.228  -2.547   2.212  0.00  0.00    +0.219 C 
ATOM      2  O   UNL     1      -4.622  -1.780   3.064  0.00  0.00    -0.275 OA
ATOM      3  N   UNL     1      -4.560  -3.852   2.273  0.00  0.00    -0.300 N 
ATOM      4  C   UNL     1      -4.087  -4.951   1.399  0.00  0.00    +0.121 C 
ATOM      5  C   UNL     1      -3.884  -6.149   2.354  0.00  0.00    +0.100 C 
ATOM      6  C   UNL     1      -4.802  -5.855   3.553  0.00  0.00    -0.004 C 
ATOM      7  C   UNL     1      -5.475  -4.512   3.235  0.00  0.00    +0.115 C 
ATOM      8  C   UNL     1      -3.978  -5.736   4.832  0.00  0.00    -0.010 C 
ATOM      9  C   UNL     1      -4.918  -5.500   6.018  0.00  0.00    -0.082 C 
ATOM     10  N   UNL     1      -5.864  -6.617   6.124  0.00  0.00    +0.379 N 
ATOM     11  C   UNL     1      -6.715  -6.668   4.929  0.00  0.00    -0.082 C 
ATOM     12  C   UNL     1      -5.852  -6.952   3.697  0.00  0.00    -0.010 C 
ATOM     13  H   UNL     1      -5.353  -7.483   6.208  0.00  0.00    -0.086 HD
ATOM     14  H   UNL     1      -6.442  -6.490   6.942  0.00  0.00    -0.086 HD
ENDROOT
BRANCH   1  21
ATOM     15  C   UNL     1      -1.244   2.148  -0.664  0.00  0.00    +0.109 C 
ATOM     16  C   UNL     1      -0.710   0.821  -0.191  0.00  0.00    +0.212 C 
ATOM     17  O   UNL     1       0.460   0.711   0.110  0.00  0.00    -0.276 OA
ATOM     18  N   UNL     1      -1.532  -0.243  -0.101  0.00  0.00    -0.302 N 
ATOM     19  C   UNL     1      -2.950  -0.126  -0.466  0.00  0.00    +0.108 C 
ATOM     20  C   UNL     1      -3.804  -0.624   0.704  0.00  0.00    +0.032 C 
ATOM     21  C   UNL     1      -3.367  -2.041   1.083  0.00  0.00    +0.078 C 
ATOM     22  C   UNL     1      -1.903  -2.023   1.526  0.00  0.00    +0.032 C 
ATOM     23  C   UNL     1      -1.026  -1.543   0.360  0.00  0.00    +0.108 C 
ENDBRANCH   1  21
BRANCH   5  24
ATOM     24  C   UNL     1      -4.293  -7.433   1.680  0.00  0.00    +0.218 C 
ATOM     25  O   UNL     1      -5.110  -7.414   0.784  0.00  0.00    -0.275 OA
ATOM     26  N   UNL     1      -3.751  -8.603   2.073  0.00  0.00    -0.310 N 
ATOM     27  H   UNL     1      -3.098  -8.618   2.789  0.00  0.00    +0.149 HD
BRANCH  26  28
ATOM     28  C   UNL     1      -4.149  -9.851   1.417  0.00  0.00    +0.146 C 
BRANCH  28  29
ATOM     29  C   UNL     1      -3.403 -11.004   2.038  0.00  0.00    +0.007 A 
ATOM     30  C   UNL     1      -3.760 -11.784   3.091  0.00  0.00    +0.013 A 
ATOM     31  C   UNL     1      -2.915 -12.794   3.494  0.00  0.00    +0.018 A 
ATOM     32  C   UNL     1      -1.739 -12.979   2.816  0.00  0.00    +0.038 A 
ATOM     33  S   UNL     1      -1.827 -11.702   1.572  0.00  0.00    -0.090 S 
BRANCH  32  34
ATOM     34  C   UNL     1      -0.678 -13.979   3.050  0.00  0.00    +0.078 A 
ATOM     35  C   UNL     1       0.456 -13.990   2.235  0.00  0.00    +0.029 A 
ATOM     36  C   UNL     1       1.440 -14.932   2.466  0.00  0.00    +0.004 A 
ATOM     37  C   UNL     1       1.262 -15.836   3.506  0.00  0.00    +0.020 A 
ATOM     38  C   UNL     1       0.116 -15.770   4.274  0.00  0.00    +0.111 A 
ATOM     39  N   UNL     1      -0.807 -14.859   4.037  0.00  0.00    -0.254 NA
ENDBRANCH  32  34
ENDBRANCH  28  29
ENDBRANCH  26  28
ENDBRANCH   5  24
TORSDOF 5
