REMARK  Name = ZINC20937937
REMARK  10 active torsions:
REMARK  status: ('A' for Active; 'I' for Inactive)
REMARK    1  A    between atoms: C_1  and  C_2
REMARK    2  A    between atoms: C_2  and  C_3
REMARK    3  A    between atoms: C_3  and  C_4
REMARK    4  A    between atoms: C_3  and  C_5
REMARK    5  A    between atoms: C_3  and  C_6
REMARK    6  A    between atoms: N_14  and  C_18
REMARK    7  A    between atoms: C_18  and  C_19
REMARK    8  A    between atoms: N_21  and  C_22
REMARK    9  A    between atoms: C_22  and  C_23
REMARK   10  A    between atoms: C_23  and  N_29
REMARK                            x       y       z     vdW  Elec       q    Type
REMARK                         _______ _______ _______ _____ _____    ______ ____
ROOT
ATOM      1  C   UNL     1       0.155  -3.556   1.240  0.00  0.00    -0.005 C 
ATOM      2  C   UNL     1       0.810  -3.997  -0.071  0.00  0.00    +0.006 C 
ATOM      3  C   UNL     1       0.538  -5.486  -0.299  0.00  0.00    +0.035 C 
ATOM      4  C   UNL     1      -0.966  -5.728  -0.357  0.00  0.00    +0.113 C 
ATOM      5  C   UNL     1      -1.637  -5.269   0.933  0.00  0.00    +0.035 C 
ATOM      6  C   UNL     1      -1.356  -3.781   1.157  0.00  0.00    +0.006 C 
ATOM      7  C   UNL     1      -1.255  -7.190  -0.611  0.00  0.00    +0.247 C 
ATOM      8  O   UNL     1      -0.951  -8.130   0.091  0.00  0.00    -0.273 OA
ATOM      9  N   UNL     1      -1.923  -7.227  -1.782  0.00  0.00    -0.215 N 
ATOM     10  C   UNL     1      -2.091  -6.002  -2.294  0.00  0.00    +0.310 C 
ATOM     11  O   UNL     1      -2.663  -5.779  -3.342  0.00  0.00    -0.252 OA
ATOM     12  N   UNL     1      -1.554  -5.043  -1.515  0.00  0.00    -0.285 N 
ATOM     13  H   UNL     1      -1.491  -3.947  -1.597  0.00  0.00    +0.151 HD
ENDROOT
BRANCH   1  14
ATOM     14  C   UNL     1       0.437  -2.071   1.476  0.00  0.00    -0.032 C 
ATOM     15  C   UNL     1      -0.218  -1.629   2.787  0.00  0.00    +0.011 C 
ATOM     16  C   UNL     1      -0.138  -1.252   0.318  0.00  0.00    +0.011 C 
BRANCH  14  18
ATOM     17  C   UNL     1       2.229  -0.360   1.795  0.00  0.00    +0.004 C 
ATOM     18  C   UNL     1       1.948  -1.845   1.559  0.00  0.00    +0.003 C 
ENDBRANCH  14  18
ENDBRANCH   1  14
BRANCH   9  19
ATOM     19  C   UNL     1      -2.405  -8.457  -2.416  0.00  0.00    +0.213 C 
BRANCH  19  20
ATOM     20  C   UNL     1      -3.802  -8.756  -1.936  0.00  0.00    +0.231 C 
ATOM     21  O   UNL     1      -4.341  -8.015  -1.142  0.00  0.00    -0.274 OA
ATOM     22  N   UNL     1      -4.451  -9.847  -2.388  0.00  0.00    -0.312 N 
ATOM     23  H   UNL     1      -3.961 -10.519  -3.108  0.00  0.00    +0.149 HD
BRANCH  22  24
ATOM     24  C   UNL     1      -5.809 -10.138  -1.921  0.00  0.00    +0.126 C 
BRANCH  24  25
ATOM     25  C   UNL     1      -6.264 -11.486  -2.484  0.00  0.00    +0.038 C 
ATOM     26  C   UNL     1      -7.727 -11.727  -2.107  0.00  0.00    +0.024 C 
ATOM     27  C   UNL     1      -7.866 -11.738  -0.584  0.00  0.00    +0.002 C 
ATOM     28  C   UNL     1      -6.998 -12.854   0.001  0.00  0.00    +0.000 C 
ATOM     29  C   UNL     1      -5.535 -12.612  -0.376  0.00  0.00    +0.002 C 
ATOM     30  C   UNL     1      -5.396 -12.602  -1.900  0.00  0.00    +0.024 C 
BRANCH  25  31
ATOM     31  N   UNL     1      -6.130 -11.476  -3.947  0.00  0.00    -0.291 NA
ATOM     32  C   UNL     1      -6.911 -10.380  -4.540  0.00  0.00    +0.113 C 
ATOM     33  C   UNL     1      -6.696 -10.370  -6.056  0.00  0.00    +0.175 C 
ATOM     34  O   UNL     1      -7.059 -11.645  -6.592  0.00  0.00    -0.377 OA
ATOM     35  C   UNL     1      -6.318 -12.735  -6.037  0.00  0.00    +0.175 C 
ATOM     36  C   UNL     1      -6.529 -12.769  -4.521  0.00  0.00    +0.113 C 
ENDBRANCH  25  31
ENDBRANCH  24  25
ENDBRANCH  22  24
ENDBRANCH  19  20
ENDBRANCH   9  19
TORSDOF 7
