REMARK  Name = ZINC65220242
REMARK  10 active torsions:
REMARK  status: ('A' for Active; 'I' for Inactive)
REMARK    1  A    between atoms: C_1  and  C_2
REMARK    2  A    between atoms: C_6  and  C_8
REMARK    3  A    between atoms: C_8  and  N_9
REMARK    4  A    between atoms: N_16  and  C_19
REMARK    5  A    between atoms: C_19  and  C_20
REMARK    6  A    between atoms: N_22  and  C_23
REMARK    7  A    between atoms: C_25  and  O_31
REMARK    8  A    between atoms: C_27  and  O_29
REMARK    9  A    between atoms: O_29  and  C_30
REMARK   10  A    between atoms: O_31  and  C_32
REMARK                            x       y       z     vdW  Elec       q    Type
REMARK                         _______ _______ _______ _____ _____    ______ ____
ROOT
ATOM      1  N   UNL     1       1.439  -3.060   2.889  0.00  0.00    -0.338 N 
ATOM      2  C   UNL     1       2.164  -4.184   2.631  0.00  0.00    +0.087 A 
ATOM      3  C   UNL     1       3.395  -4.057   3.167  0.00  0.00    +0.028 A 
ATOM      4  C   UNL     1       3.462  -2.797   3.796  0.00  0.00    +0.007 A 
ATOM      5  C   UNL     1       2.219  -2.181   3.605  0.00  0.00    +0.115 A 
ATOM      6  C   UNL     1       2.012  -0.894   4.134  0.00  0.00    +0.276 A 
ATOM      7  O   UNL     1       0.935  -0.341   3.981  0.00  0.00    -0.265 OA
ATOM      8  N   UNL     1       2.995  -0.270   4.808  0.00  0.00    -0.305 N 
ATOM      9  C   UNL     1       4.217  -0.844   5.007  0.00  0.00    +0.090 A 
ATOM     10  C   UNL     1       4.494  -2.077   4.540  0.00  0.00    +0.028 A 
ENDROOT
BRANCH   1  11
ATOM     11  C   UNL     1       0.056  -2.824   2.467  0.00  0.00    +0.157 C 
BRANCH  11  17
ATOM     12  C   UNL     1       0.019   1.529  -0.001  0.00  0.00    +0.044 C 
ATOM     13  C   UNL     1       0.032   0.022  -0.013  0.00  0.00    -0.050 A 
ATOM     14  C   UNL     1       0.039  -0.659  -1.216  0.00  0.00    +0.003 A 
ATOM     15  C   UNL     1       0.051  -2.041  -1.226  0.00  0.00    +0.001 A 
ATOM     16  C   UNL     1       0.056  -2.742  -0.034  0.00  0.00    +0.005 A 
ATOM     17  C   UNL     1       0.050  -2.060   1.168  0.00  0.00    -0.028 A 
ATOM     18  C   UNL     1       0.043  -0.678   1.179  0.00  0.00    +0.008 A 
ENDBRANCH  11  17
ENDBRANCH   1  11
BRANCH   8  19
ATOM     19  C   UNL     1       2.745   1.069   5.346  0.00  0.00    +0.220 C 
BRANCH  19  20
ATOM     20  C   UNL     1       2.192   0.955   6.743  0.00  0.00    +0.237 C 
ATOM     21  O   UNL     1       2.023  -0.138   7.241  0.00  0.00    -0.274 OA
ATOM     22  N   UNL     1       1.886   2.067   7.440  0.00  0.00    -0.284 N 
ATOM     23  H   UNL     1       2.083   2.941   7.069  0.00  0.00    +0.155 HD
BRANCH  22  24
ATOM     24  C   UNL     1       1.283   1.960   8.698  0.00  0.00    +0.040 A 
ATOM     25  C   UNL     1       0.342   2.899   9.099  0.00  0.00    +0.069 A 
ATOM     26  C   UNL     1      -0.255   2.793  10.346  0.00  0.00    +0.125 A 
ATOM     27  C   UNL     1       0.088   1.750  11.193  0.00  0.00    +0.091 A 
ATOM     28  C   UNL     1       1.028   0.811  10.793  0.00  0.00    +0.125 A 
ATOM     29  C   UNL     1       1.621   0.913   9.543  0.00  0.00    +0.069 A 
BRANCH  28  30
ATOM     30  O   UNL     1       1.364  -0.210  11.623  0.00  0.00    -0.495 OA
ATOM     31  C   UNL     1       0.709  -0.256  12.893  0.00  0.00    +0.277 C 
ENDBRANCH  28  30
BRANCH  26  32
ATOM     32  O   UNL     1      -1.176   3.712  10.738  0.00  0.00    -0.495 OA
ATOM     33  C   UNL     1      -1.750   3.541  12.036  0.00  0.00    +0.277 C 
ENDBRANCH  26  32
ENDBRANCH  22  24
ENDBRANCH  19  20
ENDBRANCH   8  19
TORSDOF 7
