REMARK  Name = ZINC66605150
REMARK  7 active torsions:
REMARK  status: ('A' for Active; 'I' for Inactive)
REMARK    1  A    between atoms: C_2  and  C_3
REMARK    2  A    between atoms: C_3  and  N_4
REMARK    3  A    between atoms: N_7  and  C_8
REMARK    4  A    between atoms: C_11  and  N_14
REMARK    5  A    between atoms: C_15  and  C_17
REMARK    6  A    between atoms: C_17  and  C_18
REMARK    7  A    between atoms: C_21  and  C_23
REMARK                            x       y       z     vdW  Elec       q    Type
REMARK                         _______ _______ _______ _____ _____    ______ ____
ROOT
ATOM      1  N   UNL     1       7.231  -6.143   3.135  0.00  0.00    -0.285 N 
ATOM      2  C   UNL     1       8.419  -5.557   2.885  0.00  0.00    +0.223 C 
ATOM      3  O   UNL     1       8.457  -4.446   2.401  0.00  0.00    -0.275 OA
ATOM      4  H   UNL     1       7.200  -7.056   3.460  0.00  0.00    +0.155 HD
ENDROOT
BRANCH   1   8
ATOM      5  C   UNL     1       3.691  -4.028   2.514  0.00  0.00    +0.035 A 
ATOM      6  C   UNL     1       4.777  -3.829   1.671  0.00  0.00    +0.025 A 
ATOM      7  C   UNL     1       5.949  -4.529   1.877  0.00  0.00    +0.025 A 
ATOM      8  C   UNL     1       6.042  -5.432   2.927  0.00  0.00    +0.034 A 
ATOM      9  C   UNL     1       4.957  -5.632   3.770  0.00  0.00    +0.025 A 
ATOM     10  C   UNL     1       3.787  -4.928   3.567  0.00  0.00    +0.025 A 
BRANCH   5  14
ATOM     11  N   UNL     1       0.666  -2.158   3.161  0.00  0.00    -0.296 N 
ATOM     12  C   UNL     1       1.760  -2.921   3.357  0.00  0.00    +0.304 C 
ATOM     13  O   UNL     1       2.079  -3.249   4.484  0.00  0.00    -0.253 OA
ATOM     14  N   UNL     1       2.502  -3.318   2.304  0.00  0.00    -0.269 N 
ATOM     15  H   UNL     1       0.412  -1.896   2.263  0.00  0.00    +0.151 HD
ATOM     16  H   UNL     1       2.212  -3.113   1.402  0.00  0.00    +0.156 HD
BRANCH  11  17
ATOM     17  C   UNL     1      -0.140  -1.726   4.306  0.00  0.00    +0.132 C 
BRANCH  17  19
ATOM     18  C   UNL     1      -2.522  -1.219   4.144  0.00  0.00    +0.005 C 
ATOM     19  C   UNL     1      -1.296  -0.892   3.819  0.00  0.00    -0.016 C 
ENDBRANCH  17  19
ENDBRANCH  11  17
ENDBRANCH   5  14
ENDBRANCH   1   8
BRANCH   2  20
ATOM     20  C   UNL     1       9.700  -6.283   3.208  0.00  0.00    +0.152 C 
BRANCH  20  21
ATOM     21  C   UNL     1      10.876  -5.417   2.835  0.00  0.00    +0.058 A 
ATOM     22  C   UNL     1      11.829  -5.126   3.762  0.00  0.00    +0.071 A 
ATOM     23  S   UNL     1      12.931  -4.106   2.792  0.00  0.00    -0.074 S 
ATOM     24  C   UNL     1      12.006  -4.178   1.263  0.00  0.00    +0.128 A 
ATOM     25  N   UNL     1      10.985  -4.947   1.617  0.00  0.00    -0.242 NA
BRANCH  24  26
ATOM     26  C   UNL     1      12.302  -3.553  -0.043  0.00  0.00    +0.114 A 
ATOM     27  C   UNL     1      13.453  -2.779  -0.205  0.00  0.00    +0.141 A 
ATOM     28  N   UNL     1      13.712  -2.224  -1.374  0.00  0.00    -0.260 NA
ATOM     29  C   UNL     1      12.884  -2.400  -2.390  0.00  0.00    +0.130 A 
ATOM     30  C   UNL     1      11.741  -3.166  -2.234  0.00  0.00    +0.131 A 
ATOM     31  N   UNL     1      11.475  -3.730  -1.071  0.00  0.00    -0.250 NA
ENDBRANCH  24  26
ENDBRANCH  20  21
ENDBRANCH   2  20
TORSDOF 7
