REMARK  Name = ZINC05725209
REMARK  5 active torsions:
REMARK  status: ('A' for Active; 'I' for Inactive)
REMARK    1  A    between atoms: C_1  and  C_2
REMARK    2  A    between atoms: C_2  and  C_25
REMARK    3  A    between atoms: N_3  and  N_4
REMARK    4  A    between atoms: C_5  and  C_16
REMARK    5  A    between atoms: C_30  and  O_31
REMARK                            x       y       z     vdW  Elec       q    Type
REMARK                         _______ _______ _______ _____ _____    ______ ____
ROOT
ATOM      1  N   UNL     1       1.562   1.969   0.078  0.00  0.00    -0.163 N 
ATOM      2  C   UNL     1       0.175   1.568   0.312  0.00  0.00    +0.216 C 
ATOM      3  N   UNL     1      -0.262   2.005   1.644  0.00  0.00    -0.320 N 
ATOM      4  C   UNL     1       0.597   1.813   2.721  0.00  0.00    +0.041 A 
ATOM      5  C   UNL     1       0.127   1.608   4.006  0.00  0.00    +0.024 A 
ATOM      6  C   UNL     1       1.024   1.410   5.039  0.00  0.00    +0.002 A 
ATOM      7  C   UNL     1       2.389   1.418   4.797  0.00  0.00    +0.001 A 
ATOM      8  C   UNL     1       2.875   1.625   3.523  0.00  0.00    +0.015 A 
ATOM      9  C   UNL     1       1.982   1.827   2.473  0.00  0.00    +0.059 A 
ATOM     10  C   UNL     1       2.445   2.059   1.094  0.00  0.00    +0.270 C 
ATOM     11  O   UNL     1       3.611   2.328   0.873  0.00  0.00    -0.268 OA
ATOM     12  H   UNL     1      -1.131   2.417   1.770  0.00  0.00    +0.148 HD
ENDROOT
BRANCH   2  13
ATOM     13  C   UNL     1       0.067   0.068   0.218  0.00  0.00    -0.004 A 
ATOM     14  C   UNL     1       0.917  -0.634  -0.615  0.00  0.00    +0.011 A 
ATOM     15  C   UNL     1       0.825  -2.011  -0.701  0.00  0.00    +0.050 A 
ATOM     16  C   UNL     1      -0.129  -2.689   0.040  0.00  0.00    +0.166 A 
ATOM     17  C   UNL     1      -0.989  -1.981   0.876  0.00  0.00    +0.167 A 
ATOM     18  C   UNL     1      -0.887  -0.602   0.961  0.00  0.00    +0.056 A 
ATOM     19  O   UNL     1      -1.827  -2.867   1.490  0.00  0.00    -0.453 OA
ATOM     20  C   UNL     1      -1.742  -4.077   0.716  0.00  0.00    +0.466 C 
ATOM     21  O   UNL     1      -0.427  -4.018   0.132  0.00  0.00    -0.453 OA
ENDBRANCH   2  13
BRANCH   1  24
ATOM     22  C   UNL     1       2.131   4.594  -0.544  0.00  0.00    +0.068 C 
ATOM     23  C   UNL     1       2.317   3.479  -1.541  0.00  0.00    +0.067 C 
ATOM     24  N   UNL     1       1.981   2.265  -1.226  0.00  0.00    -0.179 NA
BRANCH  23  25
ATOM     25  C   UNL     1       2.879   3.766  -2.872  0.00  0.00    +0.039 A 
ATOM     26  C   UNL     1       3.236   5.072  -3.216  0.00  0.00    +0.013 A 
ATOM     27  C   UNL     1       3.767   5.334  -4.462  0.00  0.00    +0.001 A 
ATOM     28  C   UNL     1       3.938   4.309  -5.377  0.00  0.00    +0.004 A 
ATOM     29  C   UNL     1       3.584   3.014  -5.050  0.00  0.00    +0.046 A 
ATOM     30  C   UNL     1       3.054   2.732  -3.802  0.00  0.00    +0.126 A 
BRANCH  30  31
ATOM     31  O   UNL     1       2.707   1.459  -3.479  0.00  0.00    -0.506 OA
ATOM     32  H   UNL     1       1.792   1.234  -3.698  0.00  0.00    +0.292 HD
ENDBRANCH  30  31
ENDBRANCH  23  25
ENDBRANCH   1  24
TORSDOF 4
