REMARK  Name = ZINC12603184
REMARK  8 active torsions:
REMARK  status: ('A' for Active; 'I' for Inactive)
REMARK    1  A    between atoms: C_1  and  O_2
REMARK    2  A    between atoms: O_2  and  C_3
REMARK    3  A    between atoms: C_3  and  C_5
REMARK    4  A    between atoms: C_21  and  C_31
REMARK    5  A    between atoms: C_24  and  N_27
REMARK    6  A    between atoms: N_27  and  C_28
REMARK    7  A    between atoms: C_34  and  O_37
REMARK    8  A    between atoms: O_37  and  C_38
REMARK                            x       y       z     vdW  Elec       q    Type
REMARK                         _______ _______ _______ _____ _____    ______ ____
ROOT
ATOM      1  C   UNL     1      -1.244  -2.135   0.003  0.00  0.00    +0.172 C 
ATOM      2  C   UNL     1      -0.665  -2.663  -1.318  0.00  0.00    +0.068 C 
ATOM      3  C   UNL     1      -1.645  -2.350  -2.420  0.00  0.00    -0.016 A 
ATOM      4  C   UNL     1      -1.445  -2.356  -3.852  0.00  0.00    +0.003 A 
ATOM      5  C   UNL     1      -0.337  -2.638  -4.656  0.00  0.00    +0.010 A 
ATOM      6  C   UNL     1      -0.513  -2.541  -6.014  0.00  0.00    +0.001 A 
ATOM      7  C   UNL     1      -1.728  -2.182  -6.574  0.00  0.00    +0.002 A 
ATOM      8  C   UNL     1      -2.841  -1.898  -5.803  0.00  0.00    +0.026 A 
ATOM      9  C   UNL     1      -2.692  -1.988  -4.421  0.00  0.00    +0.047 A 
ATOM     10  N   UNL     1      -3.565  -1.779  -3.391  0.00  0.00    -0.356 N 
ATOM     11  H   UNL     1      -4.493  -1.516  -3.491  0.00  0.00    +0.166 HD
ATOM     12  C   UNL     1      -2.932  -1.996  -2.197  0.00  0.00    +0.038 A 
ATOM     13  C   UNL     1      -3.519  -1.873  -0.813  0.00  0.00    +0.103 C 
ATOM     14  N   UNL     1      -2.638  -2.571   0.134  0.00  0.00    -0.274 NA
ATOM     15  C   UNL     1      -3.127  -2.424   1.510  0.00  0.00    +0.087 C 
ATOM     16  C   UNL     1      -4.510  -3.070   1.627  0.00  0.00    +0.008 C 
ATOM     17  C   UNL     1      -5.472  -2.401   0.643  0.00  0.00    -0.068 C 
ATOM     18  C   UNL     1      -4.911  -2.507  -0.779  0.00  0.00    +0.009 C 
ENDROOT
BRANCH  15  19
ATOM     19  C   UNL     1      -2.172  -3.103   2.458  0.00  0.00    -0.030 A 
ATOM     20  C   UNL     1      -1.597  -4.311   2.111  0.00  0.00    +0.009 A 
ATOM     21  C   UNL     1      -0.722  -4.935   2.979  0.00  0.00    +0.046 A 
ATOM     22  C   UNL     1      -0.420  -4.348   4.199  0.00  0.00    +0.130 A 
ATOM     23  C   UNL     1      -0.998  -3.136   4.545  0.00  0.00    +0.046 A 
ATOM     24  C   UNL     1      -1.869  -2.513   3.672  0.00  0.00    +0.009 A 
BRANCH  22  25
ATOM     25  O   UNL     1       0.440  -4.961   5.055  0.00  0.00    -0.406 OA
BRANCH  25  26
ATOM     26  C   UNL     1       0.705  -4.299   6.293  0.00  0.00    +0.575 C 
ATOM     27  F   UNL     1      -0.490  -4.148   7.006  0.00  0.00    -0.133 F 
ATOM     28  F   UNL     1       1.604  -5.061   7.047  0.00  0.00    -0.133 F 
ATOM     29  F   UNL     1       1.259  -3.039   6.040  0.00  0.00    -0.133 F 
ENDBRANCH  25  26
ENDBRANCH  22  25
ENDBRANCH  15  19
BRANCH  17  30
ATOM     30  N   UNL     1      -5.627  -0.983   0.996  0.00  0.00    +0.383 N 
ATOM     31  H   UNL     1      -4.719  -0.544   1.033  0.00  0.00    -0.085 HD
ATOM     32  H   UNL     1      -6.195  -0.523   0.301  0.00  0.00    -0.085 HD
BRANCH  30  33
ATOM     33  C   UNL     1      -6.277  -0.874   2.309  0.00  0.00    -0.072 C 
ATOM     34  C   UNL     1      -7.652  -0.205   2.364  0.00  0.00    -0.017 C 
ATOM     35  C   UNL     1      -6.423   0.524   2.911  0.00  0.00    -0.017 C 
ENDBRANCH  30  33
ENDBRANCH  17  30
BRANCH   1  36
ATOM     36  C   UNL     1      -1.185  -0.630   0.010  0.00  0.00    +0.325 C 
ATOM     37  O   UNL     1      -2.163   0.011   0.315  0.00  0.00    -0.249 OA
BRANCH  36  39
ATOM     38  C   UNL     1      -0.063   1.428  -0.293  0.00  0.00    +0.280 C 
ATOM     39  O   UNL     1      -0.047  -0.001  -0.322  0.00  0.00    -0.467 OA
ENDBRANCH  36  39
ENDBRANCH   1  36
TORSDOF 7
