REMARK  Name = ZINC39066901
REMARK  1 active torsions:
REMARK  status: ('A' for Active; 'I' for Inactive)
REMARK    1  A    between atoms: C_3  and  C_9
REMARK                            x       y       z     vdW  Elec       q    Type
REMARK                         _______ _______ _______ _____ _____    ______ ____
ROOT
ATOM      1  C   UNL     1      -0.019   1.521   0.010  0.00  0.00    +0.010 C 
ATOM      2  C   UNL     1       1.425   2.030  -0.001  0.00  0.00    +0.026 C 
ATOM      3  C   UNL     1       1.970   1.945  -1.421  0.00  0.00    +0.167 C 
ATOM      4  S   UNL     1       1.863   0.264  -2.065  0.00  0.00    -0.073 S 
ATOM      5  C   UNL     1       0.749  -0.541  -1.169  0.00  0.00    +0.190 C 
ATOM      6  O   UNL     1       0.509  -1.685  -1.492  0.00  0.00    -0.285 OA
ATOM      7  C   UNL     1       0.002  -0.004   0.002  0.00  0.00    +0.086 C 
ENDROOT
BRANCH   3   8
ATOM      8  C   UNL     1       3.412   2.382  -1.423  0.00  0.00    +0.369 C 
ATOM      9  O   UNL     1       4.301   1.551  -1.339  0.00  0.00    -0.245 OA
ATOM     10  O   UNL     1       3.691   3.566  -1.507  0.00  0.00    -0.245 OA
ENDBRANCH   3   8
TORSDOF 1
