REMARK  Name = ZINC12498041
REMARK  9 active torsions:
REMARK  status: ('A' for Active; 'I' for Inactive)
REMARK    1  A    between atoms: C_1  and  O_2
REMARK    2  A    between atoms: O_2  and  C_3
REMARK    3  A    between atoms: C_3  and  C_5
REMARK    4  A    between atoms: C_5  and  C_34
REMARK    5  A    between atoms: C_10  and  C_12
REMARK    6  A    between atoms: N_21  and  C_24
REMARK    7  A    between atoms: C_34  and  C_35
REMARK    8  A    between atoms: C_35  and  S_36
REMARK    9  A    between atoms: S_36  and  C_37
REMARK                            x       y       z     vdW  Elec       q    Type
REMARK                         _______ _______ _______ _____ _____    ______ ____
ROOT
ATOM      1  C   UNL     1      -1.427   8.965   0.132  0.00  0.00    +0.044 C 
ATOM      2  C   UNL     1      -0.883   7.615   0.426  0.00  0.00    +0.086 C 
ATOM      3  C   UNL     1       0.505   7.676  -0.326  0.00  0.00    +0.077 C 
ATOM      4  C   UNL     1       0.986   8.993   0.233  0.00  0.00    -0.027 C 
ATOM      5  C   UNL     1       0.985   6.325   0.048  0.00  0.00    +0.229 C 
ATOM      6  O   UNL     1       2.123   5.992   0.300  0.00  0.00    -0.275 OA
ATOM      7  N   UNL     1      -0.132   5.532   0.045  0.00  0.00    -0.210 N 
ATOM      8  C   UNL     1      -1.295   6.261   0.063  0.00  0.00    +0.229 C 
ATOM      9  O   UNL     1      -2.418   5.867  -0.171  0.00  0.00    -0.275 OA
ATOM     10  N   UNL     1      -0.233   9.848   0.107  0.00  0.00    +0.395 N 
ATOM     11  H   UNL     1      -0.275  10.510   0.891  0.00  0.00    -0.083 HD
ATOM     12  H   UNL     1      -0.203  10.367  -0.778  0.00  0.00    -0.083 HD
ENDROOT
BRANCH   7  13
ATOM     13  C   UNL     1      -0.092   4.130   0.032  0.00  0.00    +0.048 A 
ATOM     14  C   UNL     1      -1.274   3.401   0.037  0.00  0.00    +0.028 A 
ATOM     15  C   UNL     1      -1.235   2.020   0.030  0.00  0.00    +0.051 A 
ATOM     16  C   UNL     1      -0.016   1.358   0.009  0.00  0.00    +0.162 A 
ATOM     17  C   UNL     1       1.168   2.085   0.002  0.00  0.00    +0.164 A 
ATOM     18  C   UNL     1       1.128   3.470   0.015  0.00  0.00    +0.073 A 
ATOM     19  O   UNL     1       2.373   1.452  -0.019  0.00  0.00    -0.485 OA
ATOM     20  C   UNL     1       2.381   0.068   0.347  0.00  0.00    +0.270 C 
ATOM     21  C   UNL     1       1.229  -0.629  -0.390  0.00  0.00    +0.270 C 
ATOM     22  O   UNL     1       0.002  -0.004   0.002  0.00  0.00    -0.485 OA
ENDBRANCH   7  13
BRANCH   4  23
ATOM     23  C   UNL     1       2.123   9.541  -0.590  0.00  0.00    -0.060 A 
ATOM     24  C   UNL     1       1.862  10.195  -1.780  0.00  0.00    +0.005 A 
ATOM     25  C   UNL     1       2.904  10.703  -2.533  0.00  0.00    +0.038 A 
ATOM     26  C   UNL     1       4.210  10.547  -2.100  0.00  0.00    +0.123 A 
ATOM     27  C   UNL     1       4.470   9.888  -0.911  0.00  0.00    +0.038 A 
ATOM     28  C   UNL     1       3.427   9.386  -0.157  0.00  0.00    +0.005 A 
ATOM     29  F   UNL     1       5.229  11.039  -2.838  0.00  0.00    -0.205 F 
ENDBRANCH   4  23
BRANCH   1  30
ATOM     30  C   UNL     1      -2.391   9.391   1.209  0.00  0.00    +0.297 C 
ATOM     31  O   UNL     1      -2.966   8.557   1.869  0.00  0.00    -0.252 OA
BRANCH  30  33
ATOM     32  C   UNL     1      -3.551  11.031   2.490  0.00  0.00    +0.280 C 
ATOM     33  O   UNL     1      -2.610  10.695   1.437  0.00  0.00    -0.469 OA
ENDBRANCH  30  33
ENDBRANCH   1  30
BRANCH   1  34
ATOM     34  C   UNL     1      -2.114   8.977  -1.236  0.00  0.00    +0.010 C 
BRANCH  34  35
ATOM     35  C   UNL     1      -2.555  10.403  -1.572  0.00  0.00    +0.068 C 
BRANCH  35  36
ATOM     36  S   UNL     1      -3.370  10.418  -3.193  0.00  0.00    -0.164 S 
ATOM     37  C   UNL     1      -3.826  12.156  -3.439  0.00  0.00    +0.084 C 
ENDBRANCH  35  36
ENDBRANCH  34  35
ENDBRANCH   1  34
TORSDOF 7
