REMARK  Name = ZINC09496840
REMARK  3 active torsions:
REMARK  status: ('A' for Active; 'I' for Inactive)
REMARK    1  A    between atoms: C_1  and  O_2
REMARK    2  A    between atoms: O_2  and  C_3
REMARK    3  A    between atoms: N_21  and  C_24
REMARK                            x       y       z     vdW  Elec       q    Type
REMARK                         _______ _______ _______ _____ _____    ______ ____
ROOT
ATOM      1  C   UNL     1      -2.386  -0.772   3.200  0.00  0.00    +0.120 A 
ATOM      2  C   UNL     1      -3.521  -0.017   3.455  0.00  0.00    +0.047 A 
ATOM      3  C   UNL     1      -3.577   1.306   3.072  0.00  0.00    +0.027 A 
ATOM      4  C   UNL     1      -2.494   1.896   2.425  0.00  0.00    +0.036 A 
ATOM      5  C   UNL     1      -1.359   1.131   2.173  0.00  0.00    -0.024 A 
ATOM      6  C   UNL     1      -1.303  -0.191   2.556  0.00  0.00    +0.050 A 
ATOM      7  C   UNL     1      -0.391   2.046   1.476  0.00  0.00    +0.053 C 
ATOM      8  C   UNL     1      -0.013   1.509   0.092  0.00  0.00    +0.089 C 
ATOM      9  C   UNL     1       1.483   1.887  -0.083  0.00  0.00    +0.074 C 
ATOM     10  C   UNL     1       1.869   2.618   1.216  0.00  0.00    -0.054 C 
ATOM     11  C   UNL     1       1.335   0.825   2.648  0.00  0.00    -0.076 C 
ATOM     12  C   UNL     1       2.874   0.920   2.672  0.00  0.00    -0.020 C 
ATOM     13  C   UNL     1       3.233   2.099   1.707  0.00  0.00    -0.016 C 
ATOM     14  C   UNL     1       2.178   0.544  -0.128  0.00  0.00    +0.228 C 
ATOM     15  O   UNL     1       3.372   0.378  -0.254  0.00  0.00    -0.275 OA
ATOM     16  N   UNL     1       1.270  -0.431  -0.008  0.00  0.00    -0.209 N 
ATOM     17  C   UNL     1       0.009  -0.003   0.120  0.00  0.00    +0.229 C 
ATOM     18  O   UNL     1      -0.964  -0.716   0.239  0.00  0.00    -0.275 OA
ATOM     19  C   UNL     1      -1.105   3.367   1.378  0.00  0.00    +0.212 C 
ATOM     20  O   UNL     1      -0.675   4.386   0.881  0.00  0.00    -0.277 OA
ATOM     21  N   UNL     1      -2.314   3.198   1.947  0.00  0.00    -0.286 N 
ATOM     22  H   UNL     1      -2.981   3.898   2.018  0.00  0.00    +0.155 HD
ATOM     23  N   UNL     1       0.893   2.153   2.175  0.00  0.00    +0.395 N 
ATOM     24  H   UNL     1       0.816   2.804   2.965  0.00  0.00    -0.079 HD
ENDROOT
BRANCH  16  25
ATOM     25  C   UNL     1       1.612  -1.791  -0.014  0.00  0.00    +0.064 A 
ATOM     26  C   UNL     1       1.892  -2.443   1.179  0.00  0.00    +0.045 A 
ATOM     27  C   UNL     1       2.228  -3.784   1.170  0.00  0.00    +0.043 A 
ATOM     28  C   UNL     1       2.287  -4.476  -0.028  0.00  0.00    +0.021 A 
ATOM     29  C   UNL     1       2.010  -3.829  -1.217  0.00  0.00    +0.023 A 
ATOM     30  C   UNL     1       1.667  -2.489  -1.214  0.00  0.00    +0.063 A 
ATOM     31 CL   UNL     1       1.312  -1.679  -2.707  0.00  0.00    -0.082 Cl
ATOM     32 CL   UNL     1       2.578  -4.600   2.661  0.00  0.00    -0.083 Cl
ENDBRANCH  16  25
BRANCH   1  34
ATOM     33  C   UNL     1      -3.486  -2.607   4.238  0.00  0.00    +0.277 C 
ATOM     34  O   UNL     1      -2.334  -2.077   3.580  0.00  0.00    -0.495 OA
ENDBRANCH   1  34
TORSDOF 2
