REMARK  Name = ZINC14649308
REMARK  10 active torsions:
REMARK  status: ('A' for Active; 'I' for Inactive)
REMARK    1  A    between atoms: C_1  and  C_2
REMARK    2  A    between atoms: C_2  and  C_3
REMARK    3  A    between atoms: C_3  and  C_4
REMARK    4  A    between atoms: C_4  and  O_5
REMARK    5  A    between atoms: O_5  and  C_6
REMARK    6  A    between atoms: C_11  and  C_12
REMARK    7  A    between atoms: N_14  and  C_15
REMARK    8  A    between atoms: C_18  and  S_21
REMARK    9  A    between atoms: S_21  and  N_24
REMARK   10  A    between atoms: C_27  and  C_30
REMARK                            x       y       z     vdW  Elec       q    Type
REMARK                         _______ _______ _______ _____ _____    ______ ____
ROOT
ATOM      1  C   UNL     1      -0.017   1.385   0.002  0.00  0.00    +0.034 A 
ATOM      2  C   UNL     1       1.091   1.953  -0.614  0.00  0.00    +0.025 A 
ATOM      3  C   UNL     1       2.293   1.273  -0.634  0.00  0.00    +0.030 A 
ATOM      4  C   UNL     1       2.394   0.028  -0.041  0.00  0.00    +0.109 A 
ATOM      5  C   UNL     1       1.293  -0.540   0.573  0.00  0.00    +0.030 A 
ATOM      6  C   UNL     1       0.089   0.135   0.597  0.00  0.00    +0.025 A 
ENDROOT
BRANCH   1   9
ATOM      7  C   UNL     1      -1.255   3.412   0.128  0.00  0.00    +0.252 C 
ATOM      8  O   UNL     1      -0.211   4.037   0.127  0.00  0.00    -0.270 OA
ATOM      9  N   UNL     1      -1.236   2.069   0.019  0.00  0.00    -0.281 N 
ATOM     10  H   UNL     1      -2.069   1.576  -0.048  0.00  0.00    +0.155 HD
BRANCH   7  16
ATOM     11  C   UNL     1      -2.564   5.521   0.363  0.00  0.00    +0.133 A 
ATOM     12  C   UNL     1      -3.779   6.182   0.476  0.00  0.00    +0.047 A 
ATOM     13  C   UNL     1      -4.959   5.465   0.477  0.00  0.00    +0.019 A 
ATOM     14  C   UNL     1      -4.940   4.084   0.365  0.00  0.00    +0.019 A 
ATOM     15  C   UNL     1      -3.742   3.412   0.246  0.00  0.00    +0.032 A 
ATOM     16  C   UNL     1      -2.541   4.125   0.249  0.00  0.00    +0.080 A 
ATOM     17 BR   UNL     1      -6.565   3.117   0.368  0.00  0.00    -0.050 Br
BRANCH  11  18
ATOM     18  O   UNL     1      -1.404   6.225   0.362  0.00  0.00    -0.491 OA
BRANCH  18  19
ATOM     19  C   UNL     1      -1.506   7.645   0.481  0.00  0.00    +0.229 C 
BRANCH  19  20
ATOM     20  C   UNL     1      -0.106   8.261   0.461  0.00  0.00    +0.041 C 
BRANCH  20  22
ATOM     21  C   UNL     1       1.186  10.397   0.569  0.00  0.00    +0.004 C 
ATOM     22  C   UNL     1      -0.215   9.781   0.589  0.00  0.00    -0.000 C 
ENDBRANCH  20  22
ENDBRANCH  19  20
ENDBRANCH  18  19
ENDBRANCH  11  18
ENDBRANCH   7  16
ENDBRANCH   1   9
BRANCH   4  23
ATOM     23  S   UNL     1       3.929  -0.837  -0.070  0.00  0.00    +0.074 S 
ATOM     24  O   UNL     1       4.945   0.144  -0.228  0.00  0.00    -0.150 OA
ATOM     25  O   UNL     1       3.906  -1.741   1.027  0.00  0.00    -0.150 OA
BRANCH  23  26
ATOM     26  N   UNL     1       3.945  -1.761  -1.444  0.00  0.00    -0.197 N 
ATOM     27  C   UNL     1       3.945  -1.149  -2.693  0.00  0.00    +0.181 A 
ATOM     28  C   UNL     1       3.958  -1.794  -3.959  0.00  0.00    +0.092 A 
ATOM     29  C   UNL     1       3.950  -0.773  -4.846  0.00  0.00    +0.136 A 
ATOM     30  O   UNL     1       3.935   0.359  -4.127  0.00  0.00    -0.358 OA
ATOM     31  N   UNL     1       3.926   0.135  -2.939  0.00  0.00    -0.062 NA
ATOM     32  C   UNL     1       3.958  -0.886  -6.348  0.00  0.00    +0.089 C 
ATOM     33  H   UNL     1       3.955  -2.728  -1.378  0.00  0.00    +0.175 HD
ENDBRANCH  23  26
ENDBRANCH   4  23
TORSDOF 8
