REMARK  Name = ZINC33058557
REMARK  11 active torsions:
REMARK  status: ('A' for Active; 'I' for Inactive)
REMARK    1  A    between atoms: C_1  and  C_2
REMARK    2  A    between atoms: C_2  and  C_3
REMARK    3  A    between atoms: C_3  and  N_4
REMARK    4  A    between atoms: C_5  and  C_7
REMARK    5  A    between atoms: C_10  and  C_13
REMARK    6  A    between atoms: C_13  and  N_14
REMARK    7  A    between atoms: C_24  and  S_25
REMARK    8  A    between atoms: S_25  and  C_26
REMARK    9  A    between atoms: C_26  and  C_27
REMARK   10  A    between atoms: N_29  and  C_30
REMARK   11  A    between atoms: C_33  and  C_36
REMARK                            x       y       z     vdW  Elec       q    Type
REMARK                         _______ _______ _______ _____ _____    ______ ____
ROOT
ATOM      1  N   UNL     1       0.037  -2.765   0.001  0.00  0.00    -0.283 N 
ATOM      2  C   UNL     1       1.240  -2.145   0.001  0.00  0.00    +0.263 A 
ATOM      3  O   UNL     1       2.278  -2.781  -0.013  0.00  0.00    -0.267 OA
ATOM      4  C   UNL     1       1.246  -0.676   0.018  0.00  0.00    +0.065 A 
ATOM      5  C   UNL     1       2.432   0.056   0.019  0.00  0.00    +0.015 A 
ATOM      6  C   UNL     1       2.381   1.422   0.036  0.00  0.00    +0.001 A 
ATOM      7  C   UNL     1       1.161   2.087   0.051  0.00  0.00    +0.002 A 
ATOM      8  C   UNL     1      -0.017   1.394   0.049  0.00  0.00    +0.028 A 
ATOM      9  C   UNL     1       0.002  -0.004   0.033  0.00  0.00    +0.079 A 
ATOM     10  N   UNL     1      -1.136  -0.726   0.031  0.00  0.00    -0.223 NA
ATOM     11  C   UNL     1      -1.118  -2.036   0.016  0.00  0.00    +0.173 A 
ENDROOT
BRANCH   1  12
ATOM     12  C   UNL     1      -0.027  -4.229  -0.015  0.00  0.00    +0.162 C 
BRANCH  12  16
ATOM     13  C   UNL     1      -0.114  -5.608  -4.062  0.00  0.00    +0.037 A 
ATOM     14  C   UNL     1       1.106  -5.434  -3.407  0.00  0.00    +0.013 A 
ATOM     15  C   UNL     1       1.127  -4.989  -2.101  0.00  0.00    +0.006 A 
ATOM     16  C   UNL     1      -0.058  -4.715  -1.441  0.00  0.00    -0.028 A 
ATOM     17  C   UNL     1      -1.271  -4.890  -2.083  0.00  0.00    +0.006 A 
ATOM     18  C   UNL     1      -1.306  -5.330  -3.390  0.00  0.00    +0.013 A 
BRANCH  13  20
ATOM     19  N   UNL     1      -1.324  -6.252  -6.091  0.00  0.00    -0.311 N 
ATOM     20  C   UNL     1      -0.144  -6.085  -5.461  0.00  0.00    +0.244 C 
ATOM     21  O   UNL     1       0.895  -6.326  -6.043  0.00  0.00    -0.270 OA
ATOM     22  H   UNL     1      -2.265  -6.033  -5.564  0.00  0.00    +0.149 HD
BRANCH  19  23
ATOM     23  C   UNL     1      -1.354  -6.724  -7.477  0.00  0.00    +0.104 C 
BRANCH  23  25
ATOM     24  C   UNL     1      -2.837  -7.319  -9.398  0.00  0.00    +0.005 C 
ATOM     25  C   UNL     1      -2.805  -6.826  -7.950  0.00  0.00    +0.015 C 
ENDBRANCH  23  25
ENDBRANCH  19  23
ENDBRANCH  13  20
ENDBRANCH  12  16
ENDBRANCH   1  12
BRANCH  11  26
ATOM     26  S   UNL     1      -2.655  -2.897   0.016  0.00  0.00    -0.078 S 
BRANCH  26  27
ATOM     27  C   UNL     1      -3.800  -1.496   0.039  0.00  0.00    +0.173 C 
BRANCH  27  28
ATOM     28  C   UNL     1      -5.218  -2.006   0.043  0.00  0.00    +0.227 C 
ATOM     29  O   UNL     1      -5.433  -3.200   0.030  0.00  0.00    -0.275 OA
ATOM     30  N   UNL     1      -6.248  -1.137   0.059  0.00  0.00    -0.285 N 
ATOM     31  H   UNL     1      -6.054  -0.057   0.147  0.00  0.00    +0.155 HD
BRANCH  30  32
ATOM     32  C   UNL     1      -7.562  -1.606  -0.036  0.00  0.00    +0.033 A 
ATOM     33  C   UNL     1      -8.520  -0.863  -0.714  0.00  0.00    +0.023 A 
ATOM     34  C   UNL     1      -9.815  -1.332  -0.810  0.00  0.00    +0.005 A 
ATOM     35  C   UNL     1     -10.162  -2.535  -0.223  0.00  0.00    -0.050 A 
ATOM     36  C   UNL     1      -9.212  -3.275   0.458  0.00  0.00    +0.005 A 
ATOM     37  C   UNL     1      -7.914  -2.814   0.553  0.00  0.00    +0.023 A 
ATOM     38  C   UNL     1     -11.578  -3.040  -0.324  0.00  0.00    +0.044 C 
ENDBRANCH  30  32
ENDBRANCH  27  28
ENDBRANCH  26  27
ENDBRANCH  11  26
TORSDOF 9
