REMARK  Name = ZINC39665793
REMARK  13 active torsions:
REMARK  status: ('A' for Active; 'I' for Inactive)
REMARK    1  A    between atoms: C_1  and  C_2
REMARK    2  A    between atoms: C_2  and  C_4
REMARK    3  A    between atoms: C_2  and  O_31
REMARK    4  A    between atoms: C_4  and  N_5
REMARK    5  A    between atoms: C_6  and  C_8
REMARK    6  A    between atoms: C_19  and  C_21
REMARK    7  A    between atoms: C_23  and  O_29
REMARK    8  A    between atoms: C_26  and  O_27
REMARK    9  A    between atoms: O_27  and  C_28
REMARK   10  A    between atoms: O_29  and  C_30
REMARK   11  A    between atoms: O_31  and  C_32
REMARK   12  A    between atoms: C_35  and  O_38
REMARK   13  A    between atoms: O_38  and  C_39
REMARK                            x       y       z     vdW  Elec       q    Type
REMARK                         _______ _______ _______ _____ _____    ______ ____
ROOT
ATOM      1  C   UNL     1       0.963  -4.605   2.166  0.00  0.00    +0.100 C 
ATOM      2  C   UNL     1      -0.538  -4.920   2.353  0.00  0.00    +0.121 C 
ATOM      3  N   UNL     1      -0.566  -6.067   3.290  0.00  0.00    -0.296 N 
ATOM      4  C   UNL     1       0.504  -5.769   4.271  0.00  0.00    +0.115 C 
ATOM      5  C   UNL     1       1.643  -5.163   3.427  0.00  0.00    -0.004 C 
ATOM      6  C   UNL     1       2.652  -6.244   3.049  0.00  0.00    -0.010 C 
ATOM      7  C   UNL     1       3.356  -6.743   4.314  0.00  0.00    -0.082 C 
ATOM      8  N   UNL     1       4.035  -5.621   4.974  0.00  0.00    +0.379 N 
ATOM      9  C   UNL     1       3.048  -4.629   5.417  0.00  0.00    -0.082 C 
ATOM     10  C   UNL     1       2.331  -4.040   4.198  0.00  0.00    -0.010 C 
ATOM     11  C   UNL     1      -1.381  -7.141   3.258  0.00  0.00    +0.250 C 
ATOM     12  O   UNL     1      -2.157  -7.287   2.333  0.00  0.00    -0.270 OA
ATOM     13  H   UNL     1       4.548  -5.963   5.773  0.00  0.00    -0.086 HD
ATOM     14  H   UNL     1       4.676  -5.189   4.325  0.00  0.00    -0.086 HD
ENDROOT
BRANCH  11  15
ATOM     15  C   UNL     1      -1.332  -8.137   4.344  0.00  0.00    +0.082 A 
ATOM     16  C   UNL     1      -1.076  -7.733   5.657  0.00  0.00    +0.062 A 
ATOM     17  C   UNL     1      -1.032  -8.672   6.670  0.00  0.00    +0.121 A 
ATOM     18  C   UNL     1      -1.240 -10.017   6.386  0.00  0.00    +0.049 A 
ATOM     19  C   UNL     1      -1.493 -10.425   5.092  0.00  0.00    +0.050 A 
ATOM     20  C   UNL     1      -1.546  -9.493   4.066  0.00  0.00    +0.132 A 
BRANCH  20  21
ATOM     21  O   UNL     1      -1.800  -9.896   2.795  0.00  0.00    -0.494 OA
ATOM     22  C   UNL     1      -2.009 -11.294   2.586  0.00  0.00    +0.277 C 
ENDBRANCH  20  21
BRANCH  17  23
ATOM     23  O   UNL     1      -0.783  -8.280   7.948  0.00  0.00    -0.495 OA
ATOM     24  C   UNL     1      -0.751  -9.302   8.946  0.00  0.00    +0.277 C 
ENDBRANCH  17  23
ENDBRANCH  11  15
BRANCH   1  26
ATOM     25  N   UNL     1       2.216  -2.632   1.357  0.00  0.00    -0.312 N 
ATOM     26  C   UNL     1       1.179  -3.117   2.068  0.00  0.00    +0.218 C 
ATOM     27  O   UNL     1       0.420  -2.356   2.629  0.00  0.00    -0.275 OA
ATOM     28  H   UNL     1       2.823  -3.240   0.907  0.00  0.00    +0.149 HD
BRANCH  25  29
ATOM     29  C   UNL     1       2.425  -1.185   1.261  0.00  0.00    +0.148 C 
BRANCH  29  31
ATOM     30  C   UNL     1       3.880   0.607   0.304  0.00  0.00    +0.053 C 
ATOM     31  C   UNL     1       3.661  -0.904   0.403  0.00  0.00    +0.187 C 
BRANCH  31  32
ATOM     32  O   UNL     1       4.806  -1.513   1.003  0.00  0.00    -0.488 OA
BRANCH  32  33
ATOM     33  C   UNL     1       5.842  -1.825   0.179  0.00  0.00    +0.121 A 
ATOM     34  C   UNL     1       5.808  -1.441  -1.153  0.00  0.00    +0.049 A 
ATOM     35  C   UNL     1       6.860  -1.758  -1.990  0.00  0.00    +0.049 A 
ATOM     36  C   UNL     1       7.951  -2.459  -1.498  0.00  0.00    +0.120 A 
ATOM     37  C   UNL     1       7.986  -2.841  -0.166  0.00  0.00    +0.049 A 
ATOM     38  C   UNL     1       6.935  -2.521   0.672  0.00  0.00    +0.049 A 
BRANCH  36  39
ATOM     39  O   UNL     1       8.987  -2.771  -2.322  0.00  0.00    -0.495 OA
ATOM     40  C   UNL     1      10.077  -3.494  -1.748  0.00  0.00    +0.277 C 
ENDBRANCH  36  39
ENDBRANCH  32  33
ENDBRANCH  31  32
ENDBRANCH  29  31
ENDBRANCH  25  29
ENDBRANCH   1  26
TORSDOF 9
