REMARK  Name = ZINC21256564
REMARK  3 active torsions:
REMARK  status: ('A' for Active; 'I' for Inactive)
REMARK    1  A    between atoms: C_1  and  C_2
REMARK    2  A    between atoms: C_7  and  C_8
REMARK    3  A    between atoms: C_13  and  C_18
REMARK                            x       y       z     vdW  Elec       q    Type
REMARK                         _______ _______ _______ _____ _____    ______ ____
ROOT
ATOM      1  C   UNL     1       2.154  -0.643   2.918  0.00  0.00    +0.136 C 
ATOM      2  C   UNL     1       1.237  -0.292   1.770  0.00  0.00    +0.036 C 
ATOM      3  C   UNL     1       1.216   0.876   1.107  0.00  0.00    +0.017 C 
ATOM      4  C   UNL     1       0.263   1.080  -0.059  0.00  0.00    +0.059 C 
ATOM      5  C   UNL     1      -1.031   0.304   0.186  0.00  0.00    +0.032 C 
ATOM      6  C   UNL     1      -0.667  -1.179   0.318  0.00  0.00    +0.088 C 
ATOM      7  C   UNL     1       0.344  -1.330   1.413  0.00  0.00    +0.163 C 
ATOM      8  O   UNL     1       0.400  -2.383   2.018  0.00  0.00    -0.292 OA
ATOM      9  N   UNL     1       2.010   1.941   1.383  0.00  0.00    -0.316 N 
ATOM     10  C   UNL     1       3.383   1.871   1.594  0.00  0.00    +0.052 A 
ATOM     11  C   UNL     1       4.293   2.472   0.742  0.00  0.00    +0.025 A 
ATOM     12  C   UNL     1       5.645   2.403   1.036  0.00  0.00    +0.002 A 
ATOM     13  C   UNL     1       6.080   1.742   2.170  0.00  0.00    +0.002 A 
ATOM     14  C   UNL     1       5.171   1.126   3.013  0.00  0.00    +0.025 A 
ATOM     15  C   UNL     1       3.820   1.175   2.711  0.00  0.00    +0.049 A 
ATOM     16  N   UNL     1       2.879   0.481   3.470  0.00  0.00    -0.331 N 
ATOM     17  H   UNL     1       1.575   2.949   1.452  0.00  0.00    +0.152 HD
ATOM     18  H   UNL     1       2.692   0.802   4.506  0.00  0.00    +0.147 HD
ENDROOT
BRANCH   1  25
ATOM     19  C   UNL     1       3.629  -2.230   4.829  0.00  0.00    +0.044 C 
ATOM     20  C   UNL     1       3.857  -2.425   3.352  0.00  0.00    -0.045 A 
ATOM     21  C   UNL     1       4.772  -3.364   2.912  0.00  0.00    +0.004 A 
ATOM     22  C   UNL     1       4.980  -3.543   1.557  0.00  0.00    +0.000 A 
ATOM     23  C   UNL     1       4.274  -2.784   0.643  0.00  0.00    +0.000 A 
ATOM     24  C   UNL     1       3.356  -1.849   1.083  0.00  0.00    +0.006 A 
ATOM     25  C   UNL     1       3.151  -1.666   2.438  0.00  0.00    -0.020 A 
ENDBRANCH   1  25
BRANCH   5  26
ATOM     26  C   UNL     1      -1.971   0.499  -0.975  0.00  0.00    -0.043 A 
ATOM     27  C   UNL     1      -1.574   0.148  -2.252  0.00  0.00    +0.007 A 
ATOM     28  C   UNL     1      -2.437   0.322  -3.317  0.00  0.00    +0.038 A 
ATOM     29  C   UNL     1      -3.697   0.857  -3.106  0.00  0.00    +0.123 A 
ATOM     30  C   UNL     1      -4.091   1.214  -1.828  0.00  0.00    +0.038 A 
ATOM     31  C   UNL     1      -3.228   1.034  -0.763  0.00  0.00    +0.007 A 
ATOM     32  F   UNL     1      -4.540   1.032  -4.147  0.00  0.00    -0.205 F 
ENDBRANCH   5  26
TORSDOF 2
