REMARK  Name = ZINC18066019
REMARK  3 active torsions:
REMARK  status: ('A' for Active; 'I' for Inactive)
REMARK    1  A    between atoms: C_4  and  C_8
REMARK    2  A    between atoms: C_11  and  C_13
REMARK    3  A    between atoms: N_14  and  C_15
REMARK                            x       y       z     vdW  Elec       q    Type
REMARK                         _______ _______ _______ _____ _____    ______ ____
ROOT
ATOM      1  C   UNL     1       3.695  -0.684  -0.038  0.00  0.00    +0.137 A 
ATOM      2  C   UNL     1       4.050  -1.702   0.799  0.00  0.00    +0.050 A 
ATOM      3  C   UNL     1       5.345  -2.093   0.445  0.00  0.00    +0.051 A 
ATOM      4  C   UNL     1       5.731  -1.287  -0.608  0.00  0.00    +0.147 A 
ATOM      5  O   UNL     1       4.712  -0.446  -0.885  0.00  0.00    -0.454 OA
ENDROOT
BRANCH   1   9
ATOM      6  C   UNL     1      -0.017   1.381   0.010  0.00  0.00    +0.021 A 
ATOM      7  C   UNL     1       1.168   2.095   0.002  0.00  0.00    +0.022 A 
ATOM      8  C   UNL     1       2.378   1.431  -0.013  0.00  0.00    +0.052 A 
ATOM      9  C   UNL     1       2.405   0.033  -0.021  0.00  0.00    +0.037 A 
ATOM     10  C   UNL     1       1.205  -0.681  -0.013  0.00  0.00    +0.033 A 
ATOM     11  C   UNL     1       0.002  -0.004   0.002  0.00  0.00    +0.042 A 
ATOM     12 CL   UNL     1      -1.491  -0.890   0.011  0.00  0.00    -0.084 Cl
ATOM     13 CL   UNL     1       3.864   2.330  -0.024  0.00  0.00    -0.083 Cl
ENDBRANCH   1   9
BRANCH   4  14
ATOM     14  C   UNL     1       6.975  -1.338  -1.282  0.00  0.00    +0.161 C 
ATOM     15  N   UNL     1       7.218  -0.514  -2.269  0.00  0.00    -0.214 NA
BRANCH  15  16
ATOM     16  C   UNL     1       8.419  -0.563  -2.920  0.00  0.00    +0.269 A 
ATOM     17  N   UNL     1       9.424  -1.409  -2.647  0.00  0.00    -0.199 NA
ATOM     18  C   UNL     1      10.423  -1.185  -3.458  0.00  0.00    +0.218 A 
ATOM     19  N   UNL     1      10.083  -0.178  -4.283  0.00  0.00    -0.263 N 
ATOM     20  H   UNL     1      10.628   0.203  -4.989  0.00  0.00    +0.190 HD
ATOM     21  N   UNL     1       8.781   0.210  -3.925  0.00  0.00    -0.132 NA
ENDBRANCH  15  16
ENDBRANCH   4  14
TORSDOF 3
