REMARK  Name = ZINC12010239
REMARK  7 active torsions:
REMARK  status: ('A' for Active; 'I' for Inactive)
REMARK    1  A    between atoms: C_1  and  C_2
REMARK    2  A    between atoms: C_2  and  C_3
REMARK    3  A    between atoms: C_2  and  O_4
REMARK    4  A    between atoms: O_4  and  C_5
REMARK    5  A    between atoms: C_8  and  C_11
REMARK    6  A    between atoms: N_13  and  C_14
REMARK    7  A    between atoms: C_16  and  C_31
REMARK                            x       y       z     vdW  Elec       q    Type
REMARK                         _______ _______ _______ _____ _____    ______ ____
ROOT
ATOM      1  C   UNL     1       1.280  -0.406  -0.214  0.00  0.00    +0.133 A 
ATOM      2  C   UNL     1       0.002  -0.004   0.002  0.00  0.00    +0.077 A 
ATOM      3  C   UNL     1      -0.025   1.405  -0.070  0.00  0.00    +0.130 A 
ATOM      4  N   UNL     1       1.197   1.828  -0.319  0.00  0.00    -0.159 NA
ATOM      5  N   UNL     1       2.038   0.712  -0.415  0.00  0.00    -0.184 N 
ATOM      6  C   UNL     1       3.396   0.737  -0.668  0.00  0.00    +0.234 A 
ATOM      7  N   UNL     1       4.020   1.932  -0.848  0.00  0.00    -0.291 N 
ATOM      8  H   UNL     1       3.517   2.759  -0.796  0.00  0.00    +0.172 HD
ATOM      9  C   UNL     1       5.345   1.957  -1.100  0.00  0.00    +0.256 A 
ATOM     10  O   UNL     1       5.923   3.018  -1.262  0.00  0.00    -0.267 OA
ATOM     11  C   UNL     1       6.053   0.737  -1.172  0.00  0.00    +0.038 A 
ATOM     12  C   UNL     1       5.379  -0.424  -0.976  0.00  0.00    +0.053 A 
ATOM     13  N   UNL     1       4.063  -0.391  -0.726  0.00  0.00    -0.217 NA
ATOM     14  C   UNL     1       6.053  -1.771  -1.012  0.00  0.00    +0.056 C 
ATOM     15  C   UNL     1       7.402  -1.678  -1.720  0.00  0.00    +0.006 C 
ATOM     16  C   UNL     1       8.200  -0.528  -1.093  0.00  0.00    +0.005 C 
ATOM     17  C   UNL     1       7.526   0.789  -1.474  0.00  0.00    +0.042 C 
ENDROOT
BRANCH   3  18
ATOM     18  C   UNL     1      -1.220   2.258   0.100  0.00  0.00    +0.155 A 
ATOM     19  C   UNL     1      -1.246   3.616   0.037  0.00  0.00    +0.051 A 
ATOM     20  C   UNL     1      -2.583   4.007   0.253  0.00  0.00    +0.042 A 
ATOM     21  C   UNL     1      -3.297   2.881   0.443  0.00  0.00    +0.196 A 
ATOM     22  O   UNL     1      -2.471   1.826   0.350  0.00  0.00    -0.461 OA
ENDBRANCH   3  18
BRANCH   1  25
ATOM     23  C   UNL     1       0.874  -2.736  -0.013  0.00  0.00    +0.249 C 
ATOM     24  O   UNL     1      -0.301  -2.502   0.192  0.00  0.00    -0.270 OA
ATOM     25  N   UNL     1       1.736  -1.722  -0.227  0.00  0.00    -0.266 N 
ATOM     26  H   UNL     1       2.673  -1.908  -0.391  0.00  0.00    +0.157 HD
BRANCH  23  30
ATOM     27  C   UNL     1       2.265  -6.748  -0.056  0.00  0.00    +0.121 A 
ATOM     28  C   UNL     1       0.921  -6.483   0.179  0.00  0.00    +0.046 A 
ATOM     29  C   UNL     1       0.466  -5.183   0.194  0.00  0.00    +0.016 A 
ATOM     30  C   UNL     1       1.357  -4.130  -0.027  0.00  0.00    +0.037 A 
ATOM     31  C   UNL     1       2.707  -4.401  -0.268  0.00  0.00    +0.016 A 
ATOM     32  C   UNL     1       3.155  -5.704  -0.276  0.00  0.00    +0.046 A 
BRANCH  27  33
ATOM     33  O   UNL     1       2.709  -8.030  -0.070  0.00  0.00    -0.489 OA
BRANCH  33  35
ATOM     34  C   UNL     1       2.256 -10.347  -0.588  0.00  0.00    +0.051 C 
ATOM     35  C   UNL     1       1.724  -9.059   0.045  0.00  0.00    +0.167 C 
ATOM     36  C   UNL     1       1.415  -9.307   1.522  0.00  0.00    +0.051 C 
ENDBRANCH  33  35
ENDBRANCH  27  33
ENDBRANCH  23  30
ENDBRANCH   1  25
TORSDOF 5
