REMARK  Name = ZINC63491681
REMARK  7 active torsions:
REMARK  status: ('A' for Active; 'I' for Inactive)
REMARK    1  A    between atoms: C_1  and  C_2
REMARK    2  A    between atoms: C_2  and  C_3
REMARK    3  A    between atoms: C_2  and  C_4
REMARK    4  A    between atoms: C_4  and  N_5
REMARK    5  A    between atoms: C_21  and  C_23
REMARK    6  A    between atoms: C_26  and  O_29
REMARK    7  A    between atoms: O_29  and  C_30
REMARK                            x       y       z     vdW  Elec       q    Type
REMARK                         _______ _______ _______ _____ _____    ______ ____
ROOT
ATOM      1  N   UNL     1      -3.318   1.622  -0.489  0.00  0.00    -0.299 N 
ATOM      2  C   UNL     1      -4.148   0.659  -0.938  0.00  0.00    +0.303 C 
ATOM      3  O   UNL     1      -4.606  -0.159  -0.164  0.00  0.00    -0.253 OA
ATOM      4  N   UNL     1      -4.469   0.603  -2.246  0.00  0.00    -0.276 N 
ATOM      5  C   UNL     1      -3.817   1.514  -3.193  0.00  0.00    +0.114 C 
ATOM      6  C   UNL     1      -3.111   0.695  -4.288  0.00  0.00    +0.052 C 
ATOM      7  C   UNL     1      -4.085  -0.370  -4.728  0.00  0.00    -0.035 C 
ATOM      8  C   UNL     1      -4.523  -0.716  -5.932  0.00  0.00    -0.001 A 
ATOM      9  C   UNL     1      -4.142  -0.265  -7.280  0.00  0.00    +0.010 A 
ATOM     10  C   UNL     1      -4.822  -0.825  -8.315  0.00  0.00    +0.001 A 
ATOM     11  C   UNL     1      -5.832  -1.777  -8.145  0.00  0.00    +0.002 A 
ATOM     12  C   UNL     1      -6.242  -2.255  -6.943  0.00  0.00    +0.026 A 
ATOM     13  C   UNL     1      -5.594  -1.747  -5.780  0.00  0.00    +0.043 A 
ATOM     14  N   UNL     1      -5.767  -2.041  -4.525  0.00  0.00    -0.375 N 
ATOM     15  C   UNL     1      -4.794  -1.285  -3.736  0.00  0.00    +0.131 C 
ATOM     16  C   UNL     1      -5.466  -0.375  -2.709  0.00  0.00    +0.134 C 
ATOM     17  H   UNL     1      -2.896   2.230  -1.116  0.00  0.00    +0.150 HD
ATOM     18  H   UNL     1      -6.429  -2.656  -4.172  0.00  0.00    +0.160 HD
ENDROOT
BRANCH  16  19
ATOM     19  C   UNL     1      -5.954  -1.197  -1.544  0.00  0.00    -0.024 A 
ATOM     20  C   UNL     1      -5.114  -2.122  -0.952  0.00  0.00    +0.009 A 
ATOM     21  C   UNL     1      -5.559  -2.877   0.116  0.00  0.00    +0.046 A 
ATOM     22  C   UNL     1      -6.850  -2.707   0.594  0.00  0.00    +0.120 A 
ATOM     23  C   UNL     1      -7.691  -1.778  -0.003  0.00  0.00    +0.046 A 
ATOM     24  C   UNL     1      -7.239  -1.022  -1.067  0.00  0.00    +0.009 A 
BRANCH  22  25
ATOM     25  O   UNL     1      -7.290  -3.449   1.643  0.00  0.00    -0.495 OA
ATOM     26  C   UNL     1      -8.631  -3.220   2.082  0.00  0.00    +0.277 C 
ENDBRANCH  22  25
ENDBRANCH  16  19
BRANCH   1  27
ATOM     27  C   UNL     1      -3.055   1.750   0.947  0.00  0.00    +0.108 C 
BRANCH  27  29
ATOM     28  C   UNL     1      -2.758   4.225   0.778  0.00  0.00    +0.009 C 
ATOM     29  C   UNL     1      -2.088   2.912   1.186  0.00  0.00    -0.000 C 
ATOM     30  C   UNL     1      -1.716   2.968   2.669  0.00  0.00    +0.009 C 
ENDBRANCH  27  29
ENDBRANCH   1  27
TORSDOF 4
