REMARK  Name = ZINC10053917
REMARK  6 active torsions:
REMARK  status: ('A' for Active; 'I' for Inactive)
REMARK    1  A    between atoms: C_3  and  C_6
REMARK    2  A    between atoms: C_6  and  C_8
REMARK    3  A    between atoms: C_6  and  N_15
REMARK    4  A    between atoms: C_16  and  C_18
REMARK    5  A    between atoms: C_18  and  N_57
REMARK    6  A    between atoms: C_22  and  C_24
REMARK                            x       y       z     vdW  Elec       q    Type
REMARK                         _______ _______ _______ _____ _____    ______ ____
ROOT
ATOM      1  N   UNL     1       5.066   3.810  -7.001  0.00  0.00    -0.306 N 
ATOM      2  C   UNL     1       5.449   2.869  -6.116  0.00  0.00    +0.197 C 
ATOM      3  O   UNL     1       5.861   1.799  -6.508  0.00  0.00    -0.278 OA
ATOM      4  H   UNL     1       4.736   4.667  -6.687  0.00  0.00    +0.150 HD
ENDROOT
BRANCH   1   5
ATOM      5  C   UNL     1       5.148   3.539  -8.439  0.00  0.00    +0.140 C 
BRANCH   5   6
ATOM      6  C   UNL     1       4.153   4.403  -9.170  0.00  0.00    -0.022 A 
ATOM      7  C   UNL     1       3.956   5.714  -8.778  0.00  0.00    +0.008 A 
ATOM      8  C   UNL     1       3.048   6.509  -9.451  0.00  0.00    +0.038 A 
ATOM      9  C   UNL     1       2.326   5.988 -10.512  0.00  0.00    +0.123 A 
ATOM     10  C   UNL     1       2.519   4.673 -10.900  0.00  0.00    +0.038 A 
ATOM     11  C   UNL     1       3.433   3.882 -10.229  0.00  0.00    +0.008 A 
ATOM     12  F   UNL     1       1.433   6.762 -11.167  0.00  0.00    -0.205 F 
ENDBRANCH   5   6
BRANCH   5  15
ATOM     13  C   UNL     1       8.561   3.646 -10.128  0.00  0.00    +0.008 A 
ATOM     14  C   UNL     1       7.299   3.171  -9.824  0.00  0.00    +0.013 A 
ATOM     15  C   UNL     1       6.538   3.849  -8.930  0.00  0.00    +0.014 A 
ATOM     16  S   UNL     1       7.609   5.209  -8.492  0.00  0.00    -0.099 S 
ATOM     17  C   UNL     1       9.001   4.776  -9.523  0.00  0.00    +0.045 A 
ENDBRANCH   5  15
ENDBRANCH   1   5
BRANCH   2  18
ATOM     18  C   UNL     1       5.365   3.148  -4.637  0.00  0.00    +0.019 C 
BRANCH  18  23
ATOM     19  C   UNL     1       7.289   1.787  -4.063  0.00  0.00    -0.077 C 
ATOM     20  C   UNL     1       7.921   1.787  -2.655  0.00  0.00    -0.020 C 
ATOM     21  C   UNL     1       6.730   1.406  -1.737  0.00  0.00    -0.013 C 
ATOM     22  C   UNL     1       5.549   2.114  -2.446  0.00  0.00    -0.037 C 
ATOM     23  N   UNL     1       5.838   1.956  -3.886  0.00  0.00    +0.390 N 
ATOM     24  H   UNL     1       5.353   1.123  -4.240  0.00  0.00    -0.080 HD
BRANCH  22  25
ATOM     25  C   UNL     1       4.248   1.436  -2.103  0.00  0.00    -0.057 A 
ATOM     26  C   UNL     1       3.927   0.224  -2.684  0.00  0.00    +0.006 A 
ATOM     27  C   UNL     1       2.734  -0.400  -2.373  0.00  0.00    +0.049 A 
ATOM     28  C   UNL     1       1.855   0.188  -1.476  0.00  0.00    +0.162 A 
ATOM     29  C   UNL     1       2.179   1.406  -0.889  0.00  0.00    +0.162 A 
ATOM     30  C   UNL     1       3.377   2.028  -1.207  0.00  0.00    +0.051 A 
ATOM     31  O   UNL     1       1.335   1.997   0.000  0.00  0.00    -0.485 OA
ATOM     32  C   UNL     1      -0.019   1.530   0.011  0.00  0.00    +0.270 C 
ATOM     33  C   UNL     1       0.002  -0.004   0.002  0.00  0.00    +0.270 C 
ATOM     34  O   UNL     1       0.682  -0.436  -1.181  0.00  0.00    -0.485 OA
ENDBRANCH  22  25
ENDBRANCH  18  23
ENDBRANCH   2  18
TORSDOF 6
