REMARK  Name = ZINC18205579
REMARK  9 active torsions:
REMARK  status: ('A' for Active; 'I' for Inactive)
REMARK    1  A    between atoms: C_1  and  C_2
REMARK    2  A    between atoms: C_3  and  C_21
REMARK    3  A    between atoms: C_9  and  C_12
REMARK    4  A    between atoms: C_15  and  O_18
REMARK    5  A    between atoms: O_18  and  C_19
REMARK    6  A    between atoms: C_21  and  C_23
REMARK    7  A    between atoms: C_21  and  C_30
REMARK    8  A    between atoms: C_30  and  C_32
REMARK    9  A    between atoms: C_30  and  C_34
REMARK                            x       y       z     vdW  Elec       q    Type
REMARK                         _______ _______ _______ _____ _____    ______ ____
ROOT
ATOM      1  C   UNL     1       0.012   1.444   0.857  0.00  0.00    +0.065 C 
ATOM      2  C   UNL     1      -0.759   1.560  -0.433  0.00  0.00    +0.039 A 
ATOM      3  C   UNL     1      -0.975   2.699  -1.122  0.00  0.00    +0.048 A 
ATOM      4  C   UNL     1      -1.737   2.379  -2.270  0.00  0.00    +0.277 A 
ATOM      5  N   UNL     1      -1.967   1.050  -2.251  0.00  0.00    -0.194 N 
ATOM      6  N   UNL     1      -1.353   0.529  -1.104  0.00  0.00    -0.292 N 
ATOM      7  C   UNL     1      -2.679   0.329  -3.199  0.00  0.00    +0.196 A 
ATOM      8  N   UNL     1      -2.945  -0.964  -3.238  0.00  0.00    -0.221 NA
ATOM      9  C   UNL     1      -3.649  -1.492  -4.229  0.00  0.00    +0.080 A 
ATOM     10  C   UNL     1      -4.108  -0.683  -5.230  0.00  0.00    +0.077 A 
ATOM     11  S   UNL     1      -3.488   0.903  -4.686  0.00  0.00    -0.056 S 
ATOM     12  O   UNL     1      -2.117   3.163  -3.121  0.00  0.00    -0.265 OA
ATOM     13  H   UNL     1      -1.351  -0.403  -0.834  0.00  0.00    +0.187 HD
ENDROOT
BRANCH   9  14
ATOM     14  C   UNL     1      -3.934  -2.947  -4.252  0.00  0.00    +0.001 A 
ATOM     15  C   UNL     1      -4.670  -3.498  -5.300  0.00  0.00    +0.013 A 
ATOM     16  C   UNL     1      -4.933  -4.852  -5.319  0.00  0.00    +0.046 A 
ATOM     17  C   UNL     1      -4.467  -5.665  -4.296  0.00  0.00    +0.120 A 
ATOM     18  C   UNL     1      -3.735  -5.120  -3.250  0.00  0.00    +0.046 A 
ATOM     19  C   UNL     1      -3.463  -3.768  -3.228  0.00  0.00    +0.013 A 
BRANCH  17  20
ATOM     20  O   UNL     1      -4.729  -6.999  -4.317  0.00  0.00    -0.495 OA
ATOM     21  C   UNL     1      -4.220  -7.777  -3.232  0.00  0.00    +0.277 C 
ENDBRANCH  17  20
ENDBRANCH   9  14
BRANCH   3  22
ATOM     22  C   UNL     1      -0.490   4.072  -0.737  0.00  0.00    +0.082 C 
BRANCH  22  23
ATOM     23  C   UNL     1      -1.672   4.956  -0.432  0.00  0.00    -0.038 A 
ATOM     24  C   UNL     1      -2.472   5.417  -1.460  0.00  0.00    +0.006 A 
ATOM     25  C   UNL     1      -3.557   6.228  -1.181  0.00  0.00    +0.020 A 
ATOM     26  C   UNL     1      -3.841   6.577   0.127  0.00  0.00    +0.041 A 
ATOM     27  C   UNL     1      -3.039   6.114   1.155  0.00  0.00    +0.020 A 
ATOM     28  C   UNL     1      -1.959   5.299   0.876  0.00  0.00    +0.006 A 
ATOM     29 CL   UNL     1      -5.203   7.595   0.478  0.00  0.00    -0.084 Cl
ENDBRANCH  22  23
BRANCH  22  30
ATOM     30  C   UNL     1       0.312   4.673  -1.893  0.00  0.00    +0.189 C 
BRANCH  30  31
ATOM     31  C   UNL     1       1.494   3.790  -2.198  0.00  0.00    +0.228 C 
ATOM     32  O   UNL     1       2.620   4.232  -2.110  0.00  0.00    -0.275 OA
ATOM     33  N   UNL     1       1.300   2.508  -2.567  0.00  0.00    -0.328 N 
ATOM     34  H   UNL     1       0.400   2.155  -2.637  0.00  0.00    +0.145 HD
ATOM     35  H   UNL     1       2.061   1.940  -2.764  0.00  0.00    +0.145 HD
ENDBRANCH  30  31
BRANCH  30  36
ATOM     36  C   UNL     1       0.786   6.015  -1.516  0.00  0.00    +0.076 C 
ATOM     37  N   UNL     1       1.152   7.050  -1.226  0.00  0.00    -0.196 NA
ENDBRANCH  30  36
ENDBRANCH  22  30
ENDBRANCH   3  22
TORSDOF 7
