REMARK  Name = ZINC09176841
REMARK  9 active torsions:
REMARK  status: ('A' for Active; 'I' for Inactive)
REMARK    1  A    between atoms: C_1  and  C_2
REMARK    2  A    between atoms: C_2  and  N_3
REMARK    3  A    between atoms: C_7  and  C_9
REMARK    4  A    between atoms: C_9  and  C_11
REMARK    5  A    between atoms: C_9  and  S_12
REMARK    6  A    between atoms: S_12  and  C_13
REMARK    7  A    between atoms: C_17  and  C_20
REMARK    8  A    between atoms: N_28  and  C_29
REMARK    9  A    between atoms: C_29  and  C_30
REMARK                            x       y       z     vdW  Elec       q    Type
REMARK                         _______ _______ _______ _____ _____    ______ ____
ROOT
ATOM      1  C   UNL     1      -2.512  -0.420   2.023  0.00  0.00    +0.174 A 
ATOM      2  N   UNL     1      -2.862  -0.677   3.267  0.00  0.00    -0.216 NA
ATOM      3  C   UNL     1      -3.637   0.162   3.945  0.00  0.00    +0.117 A 
ATOM      4  C   UNL     1      -4.113   1.357   3.380  0.00  0.00    +0.080 A 
ATOM      5  C   UNL     1      -4.952   2.164   4.261  0.00  0.00    +0.004 A 
ATOM      6  C   UNL     1      -5.201   1.716   5.514  0.00  0.00    +0.056 A 
ATOM      7  S   UNL     1      -4.315   0.171   5.584  0.00  0.00    -0.076 S 
ATOM      8  C   UNL     1      -3.713   1.613   2.032  0.00  0.00    +0.264 A 
ATOM      9  O   UNL     1      -4.078   2.627   1.462  0.00  0.00    -0.267 OA
ATOM     10  N   UNL     1      -2.927   0.722   1.401  0.00  0.00    -0.283 N 
ENDROOT
BRANCH   5  11
ATOM     11  C   UNL     1      -5.521   3.450   3.793  0.00  0.00    -0.017 A 
ATOM     12  C   UNL     1      -4.697   4.404   3.196  0.00  0.00    +0.008 A 
ATOM     13  C   UNL     1      -5.234   5.597   2.756  0.00  0.00    +0.001 A 
ATOM     14  C   UNL     1      -6.584   5.852   2.917  0.00  0.00    +0.000 A 
ATOM     15  C   UNL     1      -7.405   4.912   3.514  0.00  0.00    +0.001 A 
ATOM     16  C   UNL     1      -6.881   3.713   3.952  0.00  0.00    +0.008 A 
ENDBRANCH   5  11
BRANCH   1  17
ATOM     17  S   UNL     1      -1.488  -1.561   1.153  0.00  0.00    -0.075 S 
BRANCH  17  18
ATOM     18  C   UNL     1      -1.270  -2.824   2.431  0.00  0.00    +0.137 C 
ATOM     19  C   UNL     1      -0.491  -2.231   3.607  0.00  0.00    +0.029 C 
BRANCH  18  24
ATOM     20  N   UNL     1      -0.096  -7.486   2.431  0.00  0.00    -0.299 N 
ATOM     21  C   UNL     1       0.041  -6.259   1.889  0.00  0.00    +0.306 C 
ATOM     22  O   UNL     1       0.781  -6.094   0.939  0.00  0.00    -0.252 OA
ATOM     23  N   UNL     1      -0.643  -5.217   2.401  0.00  0.00    -0.239 N 
ATOM     24  C   UNL     1      -0.506  -3.990   1.859  0.00  0.00    +0.233 C 
ATOM     25  O   UNL     1       0.232  -3.825   0.911  0.00  0.00    -0.274 OA
ATOM     26  H   UNL     1      -0.687  -7.618   3.189  0.00  0.00    +0.150 HD
ATOM     27  H   UNL     1      -1.234  -5.349   3.159  0.00  0.00    +0.159 HD
BRANCH  20  29
ATOM     28  C   UNL     1       0.314  -9.885   2.667  0.00  0.00    +0.024 C 
ATOM     29  C   UNL     1       0.647  -8.619   1.875  0.00  0.00    +0.102 C 
ENDBRANCH  20  29
ENDBRANCH  18  24
ENDBRANCH  17  18
ENDBRANCH   1  17
BRANCH  10  30
ATOM     30  C   UNL     1      -2.514   0.980   0.019  0.00  0.00    +0.162 C 
BRANCH  30  31
ATOM     31  C   UNL     1      -1.219   1.751   0.017  0.00  0.00    -0.028 A 
ATOM     32  C   UNL     1      -0.013   1.076   0.008  0.00  0.00    +0.005 A 
ATOM     33  C   UNL     1       1.175   1.783   0.000  0.00  0.00    +0.000 A 
ATOM     34  C   UNL     1       1.156   3.165   0.008  0.00  0.00    +0.000 A 
ATOM     35  C   UNL     1      -0.050   3.840   0.022  0.00  0.00    +0.000 A 
ATOM     36  C   UNL     1      -1.238   3.133   0.030  0.00  0.00    +0.005 A 
ENDBRANCH  30  31
ENDBRANCH  10  30
TORSDOF 7
