REMARK  Name = ZINC13033661
REMARK  10 active torsions:
REMARK  status: ('A' for Active; 'I' for Inactive)
REMARK    1  A    between atoms: C_1  and  C_2
REMARK    2  A    between atoms: C_2  and  C_3
REMARK    3  A    between atoms: C_2  and  C_4
REMARK    4  A    between atoms: C_2  and  N_5
REMARK    5  A    between atoms: C_6  and  C_10
REMARK    6  A    between atoms: C_10  and  N_65
REMARK    7  A    between atoms: C_11  and  C_12
REMARK    8  A    between atoms: C_11  and  N_65
REMARK    9  A    between atoms: C_21  and  C_22
REMARK   10  A    between atoms: C_21  and  N_65
REMARK                            x       y       z     vdW  Elec       q    Type
REMARK                         _______ _______ _______ _____ _____    ______ ____
ROOT
ATOM      1  N   UNL     1       6.327  -1.716   1.327  0.00  0.00    +0.390 N 
ATOM      2  H   UNL     1       6.073  -2.557   0.796  0.00  0.00    -0.080 HD
ENDROOT
BRANCH   1   3
ATOM      3  C   UNL     1       6.323  -0.552   0.415  0.00  0.00    +0.001 C 
BRANCH   3   5
ATOM      4  N   UNL     1       6.933  -1.335  -1.934  0.00  0.00    -0.226 N 
ATOM      5  C   UNL     1       7.261  -0.828  -0.732  0.00  0.00    +0.136 A 
ATOM      6  N   UNL     1       8.554  -0.615  -0.753  0.00  0.00    -0.115 NA
ATOM      7  N   UNL     1       8.998  -0.980  -1.906  0.00  0.00    -0.023 NA
ATOM      8  N   UNL     1       8.021  -1.413  -2.623  0.00  0.00    -0.043 NA
BRANCH   4  10
ATOM      9  C   UNL     1       4.689  -0.490  -2.420  0.00  0.00    +0.036 C 
ATOM     10  C   UNL     1       5.592  -1.725  -2.378  0.00  0.00    +0.059 C 
ATOM     11  C   UNL     1       5.676  -2.343  -3.775  0.00  0.00    +0.036 C 
ATOM     12  C   UNL     1       5.010  -2.750  -1.402  0.00  0.00    +0.036 C 
ENDBRANCH   4  10
ENDBRANCH   3   5
ENDBRANCH   1   3
BRANCH   1  13
ATOM     13  C   UNL     1       5.339  -1.514   2.408  0.00  0.00    -0.042 C 
BRANCH  13  14
ATOM     14  C   UNL     1       3.954  -1.549   1.813  0.00  0.00    -0.060 A 
ATOM     15  C   UNL     1       3.282  -2.752   1.703  0.00  0.00    +0.005 A 
ATOM     16  C   UNL     1       2.012  -2.789   1.158  0.00  0.00    +0.050 A 
ATOM     17  C   UNL     1       1.410  -1.620   0.721  0.00  0.00    +0.166 A 
ATOM     18  C   UNL     1       2.088  -0.409   0.833  0.00  0.00    +0.166 A 
ATOM     19  C   UNL     1       3.360  -0.379   1.380  0.00  0.00    +0.051 A 
ATOM     20  O   UNL     1       1.291   0.584   0.338  0.00  0.00    -0.453 OA
ATOM     21  C   UNL     1      -0.036   0.028   0.299  0.00  0.00    +0.466 C 
ATOM     22  O   UNL     1       0.189  -1.387   0.157  0.00  0.00    -0.453 OA
ENDBRANCH  13  14
ENDBRANCH   1  13
BRANCH   1  23
ATOM     23  C   UNL     1       7.675  -1.900   1.904  0.00  0.00    -0.036 C 
BRANCH  23  24
ATOM     24  C   UNL     1       7.781  -3.302   2.446  0.00  0.00    +0.001 A 
ATOM     25  C   UNL     1       8.283  -4.293   1.667  0.00  0.00    +0.017 A 
ATOM     26  C   UNL     1       8.377  -5.642   2.224  0.00  0.00    +0.002 A 
ATOM     27  C   UNL     1       8.891  -6.702   1.467  0.00  0.00    +0.059 A 
ATOM     28  C   UNL     1       8.963  -7.964   2.018  0.00  0.00    +0.163 A 
ATOM     29  C   UNL     1       8.526  -8.188   3.327  0.00  0.00    +0.164 A 
ATOM     30  C   UNL     1       8.016  -7.145   4.082  0.00  0.00    +0.075 A 
ATOM     31  C   UNL     1       7.936  -5.868   3.542  0.00  0.00    +0.053 A 
ATOM     32  N   UNL     1       7.429  -4.818   4.280  0.00  0.00    -0.322 N 
ATOM     33  H   UNL     1       7.125  -4.974   5.188  0.00  0.00    +0.169 HD
ATOM     34  C   UNL     1       7.352  -3.581   3.760  0.00  0.00    +0.251 A 
ATOM     35  O   UNL     1       6.899  -2.677   4.441  0.00  0.00    -0.268 OA
ATOM     36  O   UNL     1       8.598  -9.429   3.878  0.00  0.00    -0.485 OA
ATOM     37  C   UNL     1       8.764 -10.527   2.975  0.00  0.00    +0.270 C 
ATOM     38  C   UNL     1       9.868 -10.163   1.974  0.00  0.00    +0.270 C 
ATOM     39  O   UNL     1       9.463  -8.986   1.268  0.00  0.00    -0.485 OA
ENDBRANCH  23  24
ENDBRANCH   1  23
TORSDOF 7
