REMARK  Name = ZINC63530702
REMARK  8 active torsions:
REMARK  status: ('A' for Active; 'I' for Inactive)
REMARK    1  A    between atoms: C_1  and  C_2
REMARK    2  A    between atoms: C_6  and  S_25
REMARK    3  A    between atoms: C_7  and  C_12
REMARK    4  A    between atoms: N_14  and  C_15
REMARK    5  A    between atoms: C_15  and  C_16
REMARK    6  A    between atoms: C_16  and  N_17
REMARK    7  A    between atoms: C_22  and  C_24
REMARK    8  A    between atoms: S_25  and  C_26
REMARK                            x       y       z     vdW  Elec       q    Type
REMARK                         _______ _______ _______ _____ _____    ______ ____
ROOT
ATOM      1  C   UNL     1      -0.152   1.215   1.210  0.00  0.00    +0.044 C 
ATOM      2  C   UNL     1      -0.128  -0.267   0.934  0.00  0.00    -0.048 A 
ATOM      3  C   UNL     1       0.025  -0.709  -0.380  0.00  0.00    +0.004 A 
ATOM      4  C   UNL     1       0.053  -2.032  -0.686  0.00  0.00    +0.011 A 
ATOM      5  C   UNL     1      -0.073  -2.991   0.343  0.00  0.00    +0.010 A 
ATOM      6  C   UNL     1      -0.080  -4.383   0.333  0.00  0.00    +0.030 C 
ATOM      7  C   UNL     1      -0.252  -4.801   1.776  0.00  0.00    +0.204 C 
ATOM      8  N   UNL     1      -0.336  -3.559   2.550  0.00  0.00    -0.369 N 
ATOM      9  C   UNL     1      -0.234  -2.529   1.729  0.00  0.00    +0.044 A 
ATOM     10  C   UNL     1      -0.249  -1.133   1.972  0.00  0.00    +0.029 A 
ATOM     11  H   UNL     1      -0.450  -3.502   3.512  0.00  0.00    +0.161 HD
ENDROOT
BRANCH   7  12
ATOM     12  C   UNL     1      -1.519  -5.601   1.937  0.00  0.00    +0.240 C 
ATOM     13  O   UNL     1      -2.520  -5.071   2.369  0.00  0.00    -0.273 OA
ATOM     14  N   UNL     1      -1.539  -6.906   1.600  0.00  0.00    -0.315 N 
ATOM     15  H   UNL     1      -0.739  -7.330   1.254  0.00  0.00    +0.149 HD
BRANCH  14  16
ATOM     16  C   UNL     1      -2.771  -7.684   1.756  0.00  0.00    +0.086 C 
BRANCH  16  17
ATOM     17  C   UNL     1      -2.525  -9.125   1.305  0.00  0.00    -0.059 C 
BRANCH  17  18
ATOM     18  N   UNL     1      -3.760  -9.905   1.462  0.00  0.00    +0.382 N 
ATOM     19  C   UNL     1      -4.788  -9.377   0.557  0.00  0.00    -0.078 C 
ATOM     20  C   UNL     1      -6.101 -10.133   0.774  0.00  0.00    -0.019 C 
ATOM     21  C   UNL     1      -5.880 -11.620   0.486  0.00  0.00    -0.003 C 
ATOM     22  C   UNL     1      -4.754 -12.143   1.383  0.00  0.00    -0.016 C 
ATOM     23  C   UNL     1      -3.491 -11.312   1.143  0.00  0.00    -0.072 C 
ATOM     24  C   UNL     1      -2.363 -11.831   2.037  0.00  0.00    -0.013 C 
ATOM     25  H   UNL     1      -4.083  -9.832   2.415  0.00  0.00    -0.081 HD
ENDBRANCH  17  18
ENDBRANCH  16  17
ENDBRANCH  14  16
ENDBRANCH   7  12
BRANCH   6  26
ATOM     26  S   UNL     1       0.070  -5.377  -0.988  0.00  0.00    -0.091 S 
BRANCH  26  27
ATOM     27  C   UNL     1       1.631  -6.160  -0.758  0.00  0.00    +0.013 A 
ATOM     28  C   UNL     1       2.459  -5.768   0.286  0.00  0.00    +0.016 A 
ATOM     29  C   UNL     1       3.682  -6.383   0.464  0.00  0.00    +0.021 A 
ATOM     30  C   UNL     1       4.083  -7.391  -0.396  0.00  0.00    +0.041 A 
ATOM     31  C   UNL     1       3.260  -7.783  -1.438  0.00  0.00    +0.021 A 
ATOM     32  C   UNL     1       2.034  -7.175  -1.617  0.00  0.00    +0.016 A 
ATOM     33 CL   UNL     1       5.622  -8.162  -0.170  0.00  0.00    -0.084 Cl
ENDBRANCH  26  27
ENDBRANCH   6  26
TORSDOF 6
