REMARK  Name = ZINC39843499
REMARK  4 active torsions:
REMARK  status: ('A' for Active; 'I' for Inactive)
REMARK    1  A    between atoms: C_6  and  N_7
REMARK    2  A    between atoms: C_8  and  C_10
REMARK    3  A    between atoms: C_10  and  C_11
REMARK    4  A    between atoms: N_17  and  N_18
REMARK                            x       y       z     vdW  Elec       q    Type
REMARK                         _______ _______ _______ _____ _____    ______ ____
ROOT
ATOM      1  C   UNL     1      -2.181  -4.325  -0.316  0.00  0.00    +0.149 C 
ATOM      2  C   UNL     1      -3.464  -5.138  -0.398  0.00  0.00    +0.233 C 
ATOM      3  O   UNL     1      -4.293  -5.169   0.486  0.00  0.00    -0.274 OA
ATOM      4  N   UNL     1      -3.584  -5.811  -1.534  0.00  0.00    -0.263 N 
ATOM      5  C   UNL     1      -2.638  -5.761  -2.518  0.00  0.00    +0.183 C 
ATOM      6  N   UNL     1      -2.664  -6.394  -3.687  0.00  0.00    -0.126 NA
ATOM      7  S   UNL     1      -1.433  -4.736  -1.944  0.00  0.00    -0.075 S 
ATOM      8  H   UNL     1      -4.373  -6.358  -1.672  0.00  0.00    +0.157 HD
ENDROOT
BRANCH   6   9
ATOM      9  N   UNL     1      -3.662  -7.153  -3.988  0.00  0.00    -0.142 NA
ATOM     10  C   UNL     1      -3.687  -7.782  -5.152  0.00  0.00    +0.157 C 
ATOM     11  C   UNL     1      -4.744  -8.681  -5.666  0.00  0.00    +0.029 A 
ATOM     12  C   UNL     1      -5.955  -9.125  -5.144  0.00  0.00    +0.027 A 
ATOM     13  C   UNL     1      -6.744  -9.984  -5.883  0.00  0.00    +0.019 A 
ATOM     14  C   UNL     1      -6.330 -10.401  -7.138  0.00  0.00    +0.017 A 
ATOM     15  C   UNL     1      -5.131  -9.966  -7.664  0.00  0.00    +0.025 A 
ATOM     16  C   UNL     1      -4.323  -9.100  -6.935  0.00  0.00    +0.043 A 
ATOM     17  N   UNL     1      -3.092  -8.521  -7.222  0.00  0.00    -0.280 N 
ATOM     18  C   UNL     1      -2.675  -7.734  -6.215  0.00  0.00    +0.269 C 
ATOM     19  O   UNL     1      -1.638  -7.096  -6.188  0.00  0.00    -0.268 OA
ATOM     20 BR   UNL     1      -8.391 -10.593  -5.181  0.00  0.00    -0.050 Br
ATOM     21  H   UNL     1      -2.599  -8.663  -8.045  0.00  0.00    +0.155 HD
ENDBRANCH   6   9
BRANCH   1  22
ATOM     22  C   UNL     1      -2.479  -2.828  -0.204  0.00  0.00    +0.120 C 
BRANCH  22  24
ATOM     23  N   UNL     1      -1.200  -0.722   0.010  0.00  0.00    -0.285 N 
ATOM     24  C   UNL     1      -1.183  -2.065  -0.099  0.00  0.00    +0.219 C 
ATOM     25  O   UNL     1      -0.126  -2.659  -0.113  0.00  0.00    -0.275 OA
ATOM     26  H   UNL     1      -2.044  -0.252   0.098  0.00  0.00    +0.155 HD
BRANCH  23  32
ATOM     27  C   UNL     1       1.072  -0.453  -0.766  0.00  0.00    +0.025 A 
ATOM     28  C   UNL     1       2.256   0.257  -0.778  0.00  0.00    +0.022 A 
ATOM     29  C   UNL     1       2.377   1.416  -0.032  0.00  0.00    +0.041 A 
ATOM     30  C   UNL     1       1.312   1.866   0.729  0.00  0.00    +0.022 A 
ATOM     31  C   UNL     1       0.126   1.159   0.745  0.00  0.00    +0.025 A 
ATOM     32  C   UNL     1       0.002  -0.004  -0.004  0.00  0.00    +0.033 A 
ATOM     33 CL   UNL     1       3.867   2.306  -0.048  0.00  0.00    -0.084 Cl
ENDBRANCH  23  32
ENDBRANCH  22  24
ENDBRANCH   1  22
TORSDOF 4
