REMARK  Name = ZINC20100731
REMARK  16 active torsions:
REMARK  status: ('A' for Active; 'I' for Inactive)
REMARK    1  A    between atoms: C_1  and  C_2
REMARK    2  A    between atoms: C_6  and  C_38
REMARK    3  A    between atoms: C_7  and  N_8
REMARK    4  A    between atoms: C_9  and  C_11
REMARK    5  A    between atoms: C_11  and  S_12
REMARK    6  A    between atoms: S_12  and  C_13
REMARK    7  A    between atoms: C_14  and  C_36
REMARK    8  A    between atoms: C_15  and  C_27
REMARK    9  A    between atoms: C_17  and  C_21
REMARK   10  A    between atoms: C_18  and  C_20
REMARK   11  A    between atoms: C_21  and  O_23
REMARK   12  A    between atoms: O_23  and  C_24
REMARK   13  A    between atoms: C_24  and  C_25
REMARK   14  A    between atoms: C_30  and  O_35
REMARK   15  A    between atoms: C_31  and  O_33
REMARK   16  A    between atoms: O_33  and  C_34
REMARK                            x       y       z     vdW  Elec       q    Type
REMARK                         _______ _______ _______ _____ _____    ______ ____
ROOT
ATOM      1  C   UNL     1       3.700   2.423   1.586  0.00  0.00    +0.080 C 
ATOM      2  C   UNL     1       4.836   2.165   2.288  0.00  0.00    +0.069 C 
ATOM      3  C   UNL     1       6.066   3.011   2.119  0.00  0.00    +0.100 C 
ATOM      4  C   UNL     1       5.730   4.312   1.447  0.00  0.00    +0.066 C 
ATOM      5  C   UNL     1       4.572   4.487   0.787  0.00  0.00    +0.016 C 
ATOM      6  N   UNL     1       3.646   3.485   0.710  0.00  0.00    -0.312 N 
ATOM      7  C   UNL     1       4.291   5.810   0.122  0.00  0.00    +0.061 C 
ATOM      8  H   UNL     1       2.856   3.528  -0.054  0.00  0.00    +0.152 HD
ENDROOT
BRANCH   3   9
ATOM      9  C   UNL     1       7.074   2.267   1.282  0.00  0.00    -0.031 A 
ATOM     10  C   UNL     1       6.761   1.906  -0.016  0.00  0.00    +0.008 A 
ATOM     11  C   UNL     1       7.683   1.224  -0.788  0.00  0.00    +0.049 A 
ATOM     12  C   UNL     1       8.923   0.899  -0.261  0.00  0.00    +0.158 A 
ATOM     13  C   UNL     1       9.237   1.261   1.045  0.00  0.00    +0.162 A 
ATOM     14  C   UNL     1       8.311   1.950   1.812  0.00  0.00    +0.054 A 
BRANCH  13  15
ATOM     15  O   UNL     1      10.453   0.944   1.567  0.00  0.00    -0.491 OA
ATOM     16  C   UNL     1      10.706   1.348   2.914  0.00  0.00    +0.277 C 
ENDBRANCH  13  15
BRANCH  12  17
ATOM     17  O   UNL     1       9.831   0.228  -1.019  0.00  0.00    -0.503 OA
ATOM     18  H   UNL     1      10.815  -0.029  -0.600  0.00  0.00    +0.292 HD
ENDBRANCH  12  17
ENDBRANCH   3   9
BRANCH   4  19
ATOM     19  C   UNL     1       6.655   5.378   1.509  0.00  0.00    +0.338 C 
ATOM     20  O   UNL     1       6.399   6.438   0.970  0.00  0.00    -0.245 OA
BRANCH  19  21
ATOM     21  O   UNL     1       7.823   5.220   2.167  0.00  0.00    -0.457 OA
BRANCH  21  22
ATOM     22  C   UNL     1       8.711   6.340   2.190  0.00  0.00    +0.259 C 
BRANCH  22  23
ATOM     23  C   UNL     1       9.953   5.980   2.964  0.00  0.00    +0.006 C 
ATOM     24  C   UNL     1      11.134   6.297   2.493  0.00  0.00    +0.007 C 
ENDBRANCH  22  23
ENDBRANCH  21  22
ENDBRANCH  19  21
ENDBRANCH   4  19
BRANCH   2  25
ATOM     25  C   UNL     1       4.861   1.064   3.203  0.00  0.00    +0.098 C 
ATOM     26  N   UNL     1       4.881   0.190   3.928  0.00  0.00    -0.191 NA
ENDBRANCH   2  25
BRANCH   1  27
ATOM     27  S   UNL     1       2.285   1.395   1.802  0.00  0.00    -0.100 S 
BRANCH  27  28
ATOM     28  C   UNL     1       1.134   2.201   0.661  0.00  0.00    +0.171 C 
BRANCH  28  30
ATOM     29  N   UNL     1      -1.199   1.892  -0.101  0.00  0.00    -0.284 N 
ATOM     30  C   UNL     1      -0.184   1.471   0.680  0.00  0.00    +0.227 C 
ATOM     31  O   UNL     1      -0.331   0.502   1.395  0.00  0.00    -0.275 OA
ATOM     32  H   UNL     1      -1.086   2.805  -0.704  0.00  0.00    +0.155 HD
BRANCH  29  39
ATOM     33  C   UNL     1      -1.062  -0.896  -0.653  0.00  0.00    +0.045 C 
ATOM     34  C   UNL     1      -2.374  -0.195  -0.411  0.00  0.00    -0.029 A 
ATOM     35  C   UNL     1      -3.556  -0.908  -0.448  0.00  0.00    +0.005 A 
ATOM     36  C   UNL     1      -4.761  -0.265  -0.232  0.00  0.00    +0.001 A 
ATOM     37  C   UNL     1      -4.786   1.094   0.027  0.00  0.00    +0.005 A 
ATOM     38  C   UNL     1      -3.607   1.812   0.071  0.00  0.00    -0.029 A 
ATOM     39  C   UNL     1      -2.395   1.168  -0.145  0.00  0.00    +0.039 A 
ATOM     40  C   UNL     1      -3.635   3.291   0.354  0.00  0.00    +0.045 C 
ENDBRANCH  29  39
ENDBRANCH  28  30
ENDBRANCH  27  28
ENDBRANCH   1  27
TORSDOF 12
