REMARK  Name = ZINC50350705
REMARK  3 active torsions:
REMARK  status: ('A' for Active; 'I' for Inactive)
REMARK    1  A    between atoms: C_4  and  C_7
REMARK    2  A    between atoms: C_13  and  S_15
REMARK    3  A    between atoms: S_15  and  N_18
REMARK                            x       y       z     vdW  Elec       q    Type
REMARK                         _______ _______ _______ _____ _____    ______ ____
ROOT
ATOM      1  C   UNL     1       2.877  -0.457  -2.424  0.00  0.00    +0.018 C 
ATOM      2  C   UNL     1       3.008  -1.981  -2.372  0.00  0.00    +0.006 C 
ATOM      3  C   UNL     1       3.632  -2.484  -3.675  0.00  0.00    +0.000 C 
ATOM      4  C   UNL     1       5.017  -1.858  -3.852  0.00  0.00    +0.002 C 
ATOM      5  C   UNL     1       4.886  -0.335  -3.904  0.00  0.00    +0.028 C 
ATOM      6  C   UNL     1       4.262   0.168  -2.601  0.00  0.00    +0.151 C 
ENDROOT
BRANCH   1  10
ATOM      7  C   UNL     1       1.065  -0.477   1.506  0.00  0.00    +0.000 C 
ATOM      8  C   UNL     1       0.214  -0.014   0.321  0.00  0.00    +0.000 C 
ATOM      9  C   UNL     1       0.838  -0.517  -0.982  0.00  0.00    +0.004 C 
ATOM     10  C   UNL     1       2.253   0.046  -1.120  0.00  0.00    -0.006 C 
ATOM     11  C   UNL     1       3.104  -0.417   0.064  0.00  0.00    +0.004 C 
ATOM     12  C   UNL     1       2.480   0.086   1.367  0.00  0.00    +0.000 C 
ENDBRANCH   1  10
BRANCH   6  13
ATOM     13  S   UNL     1       4.107   1.974  -2.662  0.00  0.00    +0.030 S 
ATOM     14  O   UNL     1       3.315   2.360  -3.777  0.00  0.00    -0.158 OA
ATOM     15  O   UNL     1       3.831   2.486  -1.366  0.00  0.00    -0.158 OA
BRANCH  13  16
ATOM     16  N   UNL     1       5.630   2.521  -3.017  0.00  0.00    -0.208 NA
ATOM     17  H   UNL     1       6.355   1.889  -3.139  0.00  0.00    +0.144 HD
ATOM     18  H   UNL     1       5.796   3.473  -3.102  0.00  0.00    +0.144 HD
ENDBRANCH  13  16
ENDBRANCH   6  13
TORSDOF 3
