REMARK  Name = ZINC02192303
REMARK  7 active torsions:
REMARK  status: ('A' for Active; 'I' for Inactive)
REMARK    1  A    between atoms: C_4  and  C_7
REMARK    2  A    between atoms: C_7  and  N_42
REMARK    3  A    between atoms: C_8  and  C_26
REMARK    4  A    between atoms: C_8  and  N_42
REMARK    5  A    between atoms: N_11  and  C_15
REMARK    6  A    between atoms: C_18  and  O_21
REMARK    7  A    between atoms: O_21  and  C_22
REMARK                            x       y       z     vdW  Elec       q    Type
REMARK                         _______ _______ _______ _____ _____    ______ ____
ROOT
ATOM      1  C   UNL     1       4.044   5.069  -1.404  0.00  0.00    +0.177 C 
ATOM      2  C   UNL     1       3.488   6.256  -0.642  0.00  0.00    +0.242 C 
ATOM      3  O   UNL     1       3.072   6.265   0.497  0.00  0.00    -0.274 OA
ATOM      4  N   UNL     1       3.552   7.298  -1.494  0.00  0.00    -0.194 N 
ATOM      5  C   UNL     1       4.065   6.939  -2.676  0.00  0.00    +0.312 C 
ATOM      6  O   UNL     1       4.221   7.706  -3.606  0.00  0.00    -0.252 OA
ATOM      7  N   UNL     1       4.388   5.634  -2.720  0.00  0.00    -0.294 N 
ATOM      8  H   UNL     1       4.773   5.157  -3.473  0.00  0.00    +0.149 HD
ENDROOT
BRANCH   4   9
ATOM      9  C   UNL     1       3.130   8.600  -1.180  0.00  0.00    +0.046 A 
ATOM     10  C   UNL     1       2.510   8.855   0.035  0.00  0.00    +0.027 A 
ATOM     11  C   UNL     1       2.099  10.136   0.345  0.00  0.00    +0.048 A 
ATOM     12  C   UNL     1       2.298  11.167  -0.562  0.00  0.00    +0.130 A 
ATOM     13  C   UNL     1       2.914  10.912  -1.778  0.00  0.00    +0.048 A 
ATOM     14  C   UNL     1       3.329   9.632  -2.087  0.00  0.00    +0.027 A 
BRANCH  12  15
ATOM     15  O   UNL     1       1.890  12.428  -0.258  0.00  0.00    -0.406 OA
BRANCH  15  16
ATOM     16  C   UNL     1       1.263  12.618   1.012  0.00  0.00    +0.575 C 
ATOM     17  F   UNL     1       2.152  12.256   2.030  0.00  0.00    -0.133 F 
ATOM     18  F   UNL     1       0.908  13.964   1.160  0.00  0.00    -0.133 F 
ATOM     19  F   UNL     1       0.116  11.822   1.090  0.00  0.00    -0.133 F 
ENDBRANCH  15  16
ENDBRANCH  12  15
ENDBRANCH   4   9
BRANCH   1  20
ATOM     20  C   UNL     1       5.292   4.518  -0.712  0.00  0.00    +0.404 C 
ATOM     21  F   UNL     1       5.739   3.381  -1.394  0.00  0.00    -0.170 F 
ATOM     22  F   UNL     1       6.297   5.491  -0.717  0.00  0.00    -0.170 F 
ATOM     23  F   UNL     1       4.980   4.176   0.609  0.00  0.00    -0.170 F 
ENDBRANCH   1  20
BRANCH   1  24
ATOM     24  N   UNL     1       3.022   4.016  -1.551  0.00  0.00    +0.408 N 
ATOM     25  H   UNL     1       2.263   4.362  -2.150  0.00  0.00    -0.081 HD
ATOM     26  H   UNL     1       3.448   3.188  -1.984  0.00  0.00    -0.081 HD
BRANCH  24  27
ATOM     27  C   UNL     1       2.472   3.648  -0.233  0.00  0.00    -0.043 C 
BRANCH  27  31
ATOM     28  C   UNL     1      -0.759   0.909  -0.784  0.00  0.00    +0.000 A 
ATOM     29  C   UNL     1       0.529   0.435  -0.628  0.00  0.00    +0.000 A 
ATOM     30  C   UNL     1       1.575   1.321  -0.452  0.00  0.00    +0.002 A 
ATOM     31  C   UNL     1       1.332   2.682  -0.426  0.00  0.00    -0.064 A 
ATOM     32  C   UNL     1       0.042   3.156  -0.577  0.00  0.00    +0.002 A 
ATOM     33  C   UNL     1      -1.004   2.270  -0.754  0.00  0.00    +0.000 A 
ENDBRANCH  27  31
ENDBRANCH  24  27
ENDBRANCH   1  24
TORSDOF 7
