REMARK  Name = ZINC44495686
REMARK  3 active torsions:
REMARK  status: ('A' for Active; 'I' for Inactive)
REMARK    1  A    between atoms: C_1  and  N_2
REMARK    2  A    between atoms: C_4  and  C_7
REMARK    3  A    between atoms: C_9  and  C_10
REMARK                            x       y       z     vdW  Elec       q    Type
REMARK                         _______ _______ _______ _____ _____    ______ ____
ROOT
ATOM      1  C   UNL     1      -1.171   0.780   1.088  0.00  0.00    +0.172 C 
ATOM      2  N   UNL     1      -0.911  -0.624   0.761  0.00  0.00    -0.274 N 
ATOM      3  C   UNL     1      -0.614  -1.104  -0.459  0.00  0.00    +0.119 A 
ATOM      4  C   UNL     1      -0.443  -2.470  -0.335  0.00  0.00    +0.059 A 
ATOM      5  C   UNL     1      -0.651  -2.794   1.026  0.00  0.00    +0.146 A 
ATOM      6  N   UNL     1      -0.923  -1.691   1.667  0.00  0.00    -0.179 NA
ENDROOT
BRANCH   4   7
ATOM      7  C   UNL     1      -0.106  -3.410  -1.416  0.00  0.00    +0.192 C 
ATOM      8  O   UNL     1      -0.785  -3.369  -2.583  0.00  0.00    -0.287 OA
ATOM      9  C   UNL     1       0.901  -4.334  -1.237  0.00  0.00    +0.094 C 
BRANCH   9  10
ATOM     10  C   UNL     1       1.685  -4.297  -0.083  0.00  0.00    +0.254 C 
ATOM     11  O   UNL     1       2.509  -5.168   0.120  0.00  0.00    -0.296 OA
ENDBRANCH   9  10
ENDBRANCH   4   7
TORSDOF 2
