REMARK  Name = ZINC24174475
REMARK  12 active torsions:
REMARK  status: ('A' for Active; 'I' for Inactive)
REMARK    1  A    between atoms: C_1  and  C_2
REMARK    2  A    between atoms: C_2  and  C_3
REMARK    3  A    between atoms: C_2  and  C_4
REMARK    4  A    between atoms: C_2  and  C_5
REMARK    5  A    between atoms: C_8  and  O_11
REMARK    6  A    between atoms: O_11  and  C_12
REMARK    7  A    between atoms: C_12  and  C_13
REMARK    8  A    between atoms: C_16  and  S_19
REMARK    9  A    between atoms: N_17  and  N_18
REMARK   10  A    between atoms: S_19  and  C_20
REMARK   11  A    between atoms: C_20  and  C_21
REMARK   12  A    between atoms: N_23  and  C_24
REMARK                            x       y       z     vdW  Elec       q    Type
REMARK                         _______ _______ _______ _____ _____    ______ ____
ROOT
ATOM      1  C   UNL     1       2.039   0.586  -0.039  0.00  0.00    +0.189 A 
ATOM      2  N   UNL     1       1.216  -0.425  -0.041  0.00  0.00    -0.128 NA
ATOM      3  N   UNL     1       0.002  -0.004  -0.020  0.00  0.00    -0.121 NA
ATOM      4  C   UNL     1      -0.016   1.308  -0.004  0.00  0.00    +0.209 A 
ATOM      5  N   UNL     1       1.284   1.726  -0.015  0.00  0.00    -0.225 N 
ENDROOT
BRANCH   5   6
ATOM      6  N   UNL     1       1.737   3.015  -0.005  0.00  0.00    -0.295 N 
ATOM      7  H   UNL     1       1.020   3.849   0.014  0.00  0.00    +0.163 HD
ATOM      8  H   UNL     1       2.818   3.218  -0.016  0.00  0.00    +0.163 HD
ENDBRANCH   5   6
BRANCH   1   9
ATOM      9  C   UNL     1       3.544   0.512  -0.059  0.00  0.00    +0.306 C 
BRANCH   9  10
ATOM     10  O   UNL     1       4.003   0.504  -1.412  0.00  0.00    -0.484 OA
BRANCH  10  14
ATOM     11  C   UNL     1       8.081   0.309  -2.006  0.00  0.00    -0.042 A 
ATOM     12  C   UNL     1       7.227   0.364  -3.092  0.00  0.00    +0.008 A 
ATOM     13  C   UNL     1       5.861   0.429  -2.896  0.00  0.00    +0.046 A 
ATOM     14  C   UNL     1       5.346   0.440  -1.607  0.00  0.00    +0.121 A 
ATOM     15  C   UNL     1       6.205   0.391  -0.519  0.00  0.00    +0.046 A 
ATOM     16  C   UNL     1       7.570   0.320  -0.721  0.00  0.00    +0.008 A 
BRANCH  11  18
ATOM     17  C   UNL     1      10.033   1.475  -2.996  0.00  0.00    +0.015 C 
ATOM     18  C   UNL     1       9.570   0.238  -2.223  0.00  0.00    -0.013 C 
ATOM     19  C   UNL     1      10.281   0.188  -0.869  0.00  0.00    +0.015 C 
ATOM     20  C   UNL     1       9.909  -1.020  -3.024  0.00  0.00    +0.015 C 
ENDBRANCH  11  18
ENDBRANCH  10  14
ENDBRANCH   9  10
ENDBRANCH   1   9
BRANCH   4  21
ATOM     21  S   UNL     1      -1.446   2.337   0.020  0.00  0.00    -0.075 S 
BRANCH  21  22
ATOM     22  C   UNL     1      -2.742   1.073   0.015  0.00  0.00    +0.173 C 
BRANCH  22  23
ATOM     23  C   UNL     1      -4.094   1.739   0.034  0.00  0.00    +0.227 C 
ATOM     24  O   UNL     1      -4.173   2.949   0.050  0.00  0.00    -0.275 OA
ATOM     25  N   UNL     1      -5.214   0.990   0.035  0.00  0.00    -0.285 N 
ATOM     26  H   UNL     1      -5.144  -0.104  -0.056  0.00  0.00    +0.155 HD
BRANCH  25  27
ATOM     27  C   UNL     1      -6.466   1.604   0.150  0.00  0.00    +0.033 A 
ATOM     28  C   UNL     1      -7.490   0.972   0.844  0.00  0.00    +0.024 A 
ATOM     29  C   UNL     1      -8.723   1.583   0.960  0.00  0.00    +0.017 A 
ATOM     30  C   UNL     1      -8.943   2.819   0.378  0.00  0.00    +0.018 A 
ATOM     31  C   UNL     1      -7.926   3.448  -0.319  0.00  0.00    +0.017 A 
ATOM     32  C   UNL     1      -6.689   2.844  -0.434  0.00  0.00    +0.024 A 
ATOM     33 BR   UNL     1     -10.634   3.649   0.534  0.00  0.00    -0.050 Br
ENDBRANCH  25  27
ENDBRANCH  22  23
ENDBRANCH  21  22
ENDBRANCH   4  21
TORSDOF 9
