REMARK  Name = ZINC23399424
REMARK  3 active torsions:
REMARK  status: ('A' for Active; 'I' for Inactive)
REMARK    1  A    between atoms: C_4  and  C_7
REMARK    2  A    between atoms: C_7  and  C_13
REMARK    3  A    between atoms: C_19  and  C_21
REMARK                            x       y       z     vdW  Elec       q    Type
REMARK                         _______ _______ _______ _____ _____    ______ ____
ROOT
ATOM      1  C   UNL     1       3.290   3.501  -1.174  0.00  0.00    +0.121 A 
ATOM      2  N   UNL     1       4.496   4.069  -1.369  0.00  0.00    -0.310 N 
ATOM      3  H   UNL     1       4.858   4.843  -0.675  0.00  0.00    +0.170 HD
ATOM      4  C   UNL     1       5.259   3.688  -2.416  0.00  0.00    +0.252 A 
ATOM      5  O   UNL     1       6.353   4.194  -2.606  0.00  0.00    -0.268 OA
ATOM      6  C   UNL     1       4.764   2.694  -3.285  0.00  0.00    +0.093 A 
ATOM      7  C   UNL     1       3.537   2.159  -3.032  0.00  0.00    +0.051 A 
ATOM      8  N   UNL     1       2.834   2.576  -1.977  0.00  0.00    -0.237 NA
ENDROOT
BRANCH   7   9
ATOM      9  C   UNL     1       2.977   1.095  -3.940  0.00  0.00    +0.034 C 
ATOM     10  C   UNL     1       1.656   1.581  -4.544  0.00  0.00    -0.010 C 
ATOM     11  C   UNL     1       1.062   0.473  -5.416  0.00  0.00    -0.082 C 
ATOM     12  N   UNL     1       0.835  -0.726  -4.600  0.00  0.00    +0.379 N 
ATOM     13  C   UNL     1       2.096  -1.239  -4.048  0.00  0.00    -0.082 C 
ATOM     14  C   UNL     1       2.721  -0.182  -3.134  0.00  0.00    -0.010 C 
ATOM     15  H   UNL     1       0.161  -0.480  -3.766  0.00  0.00    -0.086 HD
ATOM     16  H   UNL     1       0.379  -1.512  -5.220  0.00  0.00    -0.086 HD
ENDBRANCH   7   9
BRANCH   1  17
ATOM     17  C   UNL     1       2.451   3.937  -0.001  0.00  0.00    +0.058 C 
ATOM     18  C   UNL     1       3.214   3.671   1.301  0.00  0.00    +0.047 C 
ATOM     19  C   UNL     1       2.385   4.191   2.482  0.00  0.00    +0.161 C 
ATOM     20  O   UNL     1       2.118   5.583   2.300  0.00  0.00    -0.380 OA
ATOM     21  C   UNL     1       1.367   5.884   1.122  0.00  0.00    +0.161 C 
ATOM     22  C   UNL     1       2.154   5.435  -0.112  0.00  0.00    +0.047 C 
BRANCH  17  26
ATOM     23  C   UNL     1      -1.217   1.747   0.020  0.00  0.00    +0.000 A 
ATOM     24  C   UNL     1      -0.274   1.526   1.007  0.00  0.00    +0.000 A 
ATOM     25  C   UNL     1       0.913   2.233   0.999  0.00  0.00    +0.004 A 
ATOM     26  C   UNL     1       1.156   3.165   0.008  0.00  0.00    -0.034 A 
ATOM     27  C   UNL     1       0.211   3.390  -0.976  0.00  0.00    +0.004 A 
ATOM     28  C   UNL     1      -0.976   2.683  -0.969  0.00  0.00    +0.000 A 
ENDBRANCH  17  26
ENDBRANCH   1  17
TORSDOF 3
