REMARK  Name = ZINC02889012
REMARK  3 active torsions:
REMARK  status: ('A' for Active; 'I' for Inactive)
REMARK    1  A    between atoms: N_20  and  C_21
REMARK    2  A    between atoms: C_21  and  C_22
REMARK    3  A    between atoms: C_22  and  O_23
REMARK                            x       y       z     vdW  Elec       q    Type
REMARK                         _______ _______ _______ _____ _____    ______ ____
ROOT
ATOM      1  C   UNL     1      -0.017   1.374   0.010  0.00  0.00    +0.001 A 
ATOM      2  C   UNL     1       1.167   2.100   0.002  0.00  0.00    +0.001 A 
ATOM      3  C   UNL     1       2.385   1.456  -0.013  0.00  0.00    +0.012 A 
ATOM      4  C   UNL     1       2.426   0.063  -0.021  0.00  0.00    +0.030 A 
ATOM      5  C   UNL     1       1.224  -0.675  -0.013  0.00  0.00    +0.027 A 
ATOM      6  C   UNL     1       0.002  -0.004   0.002  0.00  0.00    +0.012 A 
ATOM      7  C   UNL     1       1.298  -2.142  -0.021  0.00  0.00    +0.148 A 
ATOM      8  N   UNL     1       2.458  -2.738  -0.035  0.00  0.00    -0.146 NA
ATOM      9  N   UNL     1       3.670  -2.040  -0.043  0.00  0.00    -0.176 N 
ATOM     10  C   UNL     1       3.703  -0.672  -0.037  0.00  0.00    +0.166 A 
ATOM     11  N   UNL     1       4.831   0.010  -0.044  0.00  0.00    -0.227 NA
ATOM     12  C   UNL     1       6.030  -0.593  -0.059  0.00  0.00    +0.079 A 
ATOM     13  C   UNL     1       7.223   0.139  -0.066  0.00  0.00    +0.028 A 
ATOM     14  C   UNL     1       8.419  -0.519  -0.080  0.00  0.00    +0.002 A 
ATOM     15  C   UNL     1       8.472  -1.908  -0.089  0.00  0.00    +0.001 A 
ATOM     16  C   UNL     1       7.325  -2.652  -0.082  0.00  0.00    +0.015 A 
ATOM     17  C   UNL     1       6.088  -2.007  -0.067  0.00  0.00    +0.067 A 
ATOM     18  C   UNL     1       4.825  -2.749  -0.058  0.00  0.00    +0.282 A 
ATOM     19  O   UNL     1       4.814  -3.967  -0.063  0.00  0.00    -0.265 OA
ATOM     20  N   UNL     1       0.133  -2.895  -0.014  0.00  0.00    -0.325 N 
ATOM     21  H   UNL     1      -0.730  -2.452  -0.003  0.00  0.00    +0.148 HD
ENDROOT
BRANCH  20  22
ATOM     22  C   UNL     1       0.206  -4.358  -0.022  0.00  0.00    +0.130 C 
BRANCH  22  23
ATOM     23  C   UNL     1      -1.210  -4.939  -0.011  0.00  0.00    +0.174 C 
BRANCH  23  24
ATOM     24  O   UNL     1      -1.878  -4.587  -1.224  0.00  0.00    -0.393 OA
ATOM     25  H   UNL     1      -2.783  -4.923  -1.286  0.00  0.00    +0.209 HD
ENDBRANCH  23  24
ENDBRANCH  22  23
ENDBRANCH  20  22
TORSDOF 3
