REMARK  Name = ZINC13704036
REMARK  17 active torsions:
REMARK  status: ('A' for Active; 'I' for Inactive)
REMARK    1  A    between atoms: C_1  and  C_2
REMARK    2  A    between atoms: C_5  and  C_29
REMARK    3  A    between atoms: C_6  and  C_9
REMARK    4  A    between atoms: C_7  and  O_8
REMARK    5  A    between atoms: N_10  and  C_11
REMARK    6  A    between atoms: C_11  and  C_12
REMARK    7  A    between atoms: C_12  and  C_13
REMARK    8  A    between atoms: C_13  and  C_14
REMARK    9  A    between atoms: C_14  and  C_15
REMARK   10  A    between atoms: C_15  and  C_16
REMARK   11  A    between atoms: C_16  and  N_17
REMARK   12  A    between atoms: C_18  and  C_19
REMARK   13  A    between atoms: C_20  and  O_28
REMARK   14  A    between atoms: C_21  and  C_27
REMARK   15  A    between atoms: C_24  and  C_25
REMARK   16  A    between atoms: C_25  and  O_26
REMARK   17  A    between atoms: C_29  and  O_30
REMARK                            x       y       z     vdW  Elec       q    Type
REMARK                         _______ _______ _______ _____ _____    ______ ____
ROOT
ATOM      1  C   UNL     1      -1.578   1.228   4.817  0.00  0.00    +0.002 C 
ENDROOT
BRANCH   1   2
ATOM      2  C   UNL     1      -1.559  -0.301   4.803  0.00  0.00    +0.021 C 
BRANCH   2   3
ATOM      3  C   UNL     1      -0.220  -0.790   4.247  0.00  0.00    +0.112 C 
BRANCH   3   5
ATOM      4  C   UNL     1      -0.154  -2.801   2.957  0.00  0.00    +0.090 C 
ATOM      5  N   UNL     1      -0.245  -2.249   4.123  0.00  0.00    -0.390 N 
ATOM      6  H   UNL     1      -0.332  -2.802   4.916  0.00  0.00    +0.159 HD
BRANCH   4  12
ATOM      7  C   UNL     1       2.743   0.466   0.502  0.00  0.00    +0.069 C 
ATOM      8  C   UNL     1       1.516  -0.406   0.579  0.00  0.00    +0.080 A 
ATOM      9  N   UNL     1       0.675  -0.436  -0.435  0.00  0.00    -0.256 NA
ATOM     10  C   UNL     1      -0.414  -1.181  -0.422  0.00  0.00    +0.117 A 
ATOM     11  C   UNL     1      -0.724  -1.970   0.667  0.00  0.00    +0.008 A 
ATOM     12  C   UNL     1       0.137  -1.973   1.770  0.00  0.00    +0.041 A 
ATOM     13  C   UNL     1       1.288  -1.171   1.714  0.00  0.00    +0.147 A 
BRANCH  13  14
ATOM     14  O   UNL     1       2.160  -1.139   2.753  0.00  0.00    -0.504 OA
ATOM     15  H   UNL     1       1.930  -0.500   3.441  0.00  0.00    +0.292 HD
ENDBRANCH  13  14
BRANCH  11  16
ATOM     16  C   UNL     1      -1.972  -2.815   0.668  0.00  0.00    +0.193 C 
BRANCH  16  17
ATOM     17  O   UNL     1      -2.671  -2.632  -0.565  0.00  0.00    -0.390 OA
ATOM     18  H   UNL     1      -3.487  -3.148  -0.634  0.00  0.00    +0.210 HD
ENDBRANCH  16  17
ENDBRANCH  11  16
ENDBRANCH   4  12
ENDBRANCH   3   5
ENDBRANCH   2   3
ENDBRANCH   1   2
BRANCH   1  19
ATOM     19  C   UNL     1      -2.864   1.717   5.486  0.00  0.00    +0.002 C 
BRANCH  19  20
ATOM     20  C   UNL     1      -2.883   3.246   5.499  0.00  0.00    +0.021 C 
BRANCH  20  21
ATOM     21  C   UNL     1      -4.169   3.735   6.169  0.00  0.00    +0.112 C 
BRANCH  21  22
ATOM     22  N   UNL     1      -4.188   5.199   6.181  0.00  0.00    -0.390 N 
ATOM     23  C   UNL     1      -5.127   5.840   5.564  0.00  0.00    +0.090 C 
ATOM     24  H   UNL     1      -3.496   5.689   6.652  0.00  0.00    +0.159 HD
BRANCH  23  25
ATOM     25  C   UNL     1      -6.264   5.101   4.981  0.00  0.00    +0.041 A 
ATOM     26  C   UNL     1      -7.058   4.255   5.773  0.00  0.00    +0.147 A 
ATOM     27  C   UNL     1      -8.116   3.582   5.180  0.00  0.00    +0.080 A 
ATOM     28  N   UNL     1      -8.376   3.730   3.897  0.00  0.00    -0.256 NA
ATOM     29  C   UNL     1      -7.654   4.515   3.121  0.00  0.00    +0.117 A 
ATOM     30  C   UNL     1      -6.586   5.228   3.625  0.00  0.00    +0.008 A 
ATOM     31  C   UNL     1      -8.979   2.669   6.013  0.00  0.00    +0.069 C 
BRANCH  26  32
ATOM     32  O   UNL     1      -6.793   4.098   7.095  0.00  0.00    -0.504 OA
ATOM     33  H   UNL     1      -7.309   4.678   7.671  0.00  0.00    +0.292 HD
ENDBRANCH  26  32
BRANCH  30  34
ATOM     34  C   UNL     1      -5.774   6.126   2.728  0.00  0.00    +0.193 C 
BRANCH  34  35
ATOM     35  O   UNL     1      -6.305   6.079   1.402  0.00  0.00    -0.390 OA
ATOM     36  H   UNL     1      -5.830   6.635   0.768  0.00  0.00    +0.210 HD
ENDBRANCH  34  35
ENDBRANCH  30  34
ENDBRANCH  23  25
ENDBRANCH  21  22
ENDBRANCH  20  21
ENDBRANCH  19  20
ENDBRANCH   1  19
TORSDOF 15
