REMARK  Name = ZINC63374723
REMARK  6 active torsions:
REMARK  status: ('A' for Active; 'I' for Inactive)
REMARK    1  A    between atoms: C_1  and  C_2
REMARK    2  A    between atoms: C_5  and  C_35
REMARK    3  A    between atoms: C_6  and  N_8
REMARK    4  A    between atoms: C_11  and  C_18
REMARK    5  A    between atoms: C_25  and  O_30
REMARK    6  A    between atoms: O_30  and  C_31
REMARK                            x       y       z     vdW  Elec       q    Type
REMARK                         _______ _______ _______ _____ _____    ______ ____
ROOT
ATOM      1  N   UNL     1       0.051  -2.798   2.394  0.00  0.00    -0.228 N 
ATOM      2  C   UNL     1       1.228  -3.117   2.969  0.00  0.00    +0.270 A 
ATOM      3  O   UNL     1       2.277  -2.790   2.440  0.00  0.00    -0.267 OA
ATOM      4  C   UNL     1       1.238  -3.828   4.181  0.00  0.00    +0.101 A 
ATOM      5  C   UNL     1       0.051  -4.182   4.751  0.00  0.00    +0.263 A 
ATOM      6  N   UNL     1      -1.124  -3.837   4.133  0.00  0.00    -0.274 N 
ATOM      7  H   UNL     1      -1.971  -4.087   4.535  0.00  0.00    +0.173 HD
ATOM      8  C   UNL     1      -1.110  -3.151   2.976  0.00  0.00    +0.337 A 
ATOM      9  O   UNL     1      -2.162  -2.850   2.445  0.00  0.00    -0.246 OA
ATOM     10  O   UNL     1       0.033  -4.866   5.915  0.00  0.00    -0.267 OA
ENDROOT
BRANCH   4  11
ATOM     11  C   UNL     1       2.542  -4.196   4.840  0.00  0.00    +0.121 C 
ATOM     12  C   UNL     1       3.283  -2.925   5.263  0.00  0.00    +0.128 C 
ATOM     13  C   UNL     1       4.652  -3.374   5.759  0.00  0.00    -0.035 C 
ATOM     14  C   UNL     1       4.793  -2.872   6.977  0.00  0.00    +0.003 A 
ATOM     15  C   UNL     1       5.918  -2.887   7.925  0.00  0.00    +0.055 A 
ATOM     16  C   UNL     1       5.716  -2.274   9.123  0.00  0.00    +0.121 A 
ATOM     17  C   UNL     1       4.518  -1.645   9.490  0.00  0.00    +0.047 A 
ATOM     18  C   UNL     1       3.421  -1.567   8.694  0.00  0.00    +0.029 A 
ATOM     19  C   UNL     1       3.519  -2.190   7.367  0.00  0.00    +0.043 A 
ATOM     20  N   UNL     1       2.639  -2.247   6.388  0.00  0.00    -0.376 N 
ATOM     21  C   UNL     1       5.524  -4.300   4.946  0.00  0.00    +0.048 C 
ATOM     22  C   UNL     1       4.617  -5.458   4.492  0.00  0.00    +0.086 C 
ATOM     23  N   UNL     1       3.389  -4.931   3.888  0.00  0.00    -0.307 NA
ATOM     24  H   UNL     1       2.868  -5.664   3.431  0.00  0.00    +0.123 HD
ATOM     25  H   UNL     1       1.731  -1.908   6.402  0.00  0.00    +0.160 HD
BRANCH  16  26
ATOM     26  O   UNL     1       6.738  -2.272  10.020  0.00  0.00    -0.495 OA
ATOM     27  C   UNL     1       6.503  -1.623  11.271  0.00  0.00    +0.277 C 
ENDBRANCH  16  26
ENDBRANCH   4  11
BRANCH   1  33
ATOM     28  C   UNL     1      -0.018   1.503   0.010  0.00  0.00    +0.044 C 
ATOM     29  C   UNL     1       0.002  -0.004   0.002  0.00  0.00    -0.048 A 
ATOM     30  C   UNL     1       0.006  -0.688  -1.200  0.00  0.00    +0.004 A 
ATOM     31  C   UNL     1       0.024  -2.071  -1.212  0.00  0.00    +0.005 A 
ATOM     32  C   UNL     1       0.039  -2.773  -0.022  0.00  0.00    -0.026 A 
ATOM     33  C   UNL     1       0.036  -2.089   1.186  0.00  0.00    +0.058 A 
ATOM     34  C   UNL     1       0.023  -0.700   1.194  0.00  0.00    +0.030 A 
ATOM     35  C   UNL     1       0.059  -4.279  -0.036  0.00  0.00    +0.046 C 
ENDBRANCH   1  33
TORSDOF 3
