REMARK  Name = ZINC00666129
REMARK  8 active torsions:
REMARK  status: ('A' for Active; 'I' for Inactive)
REMARK    1  A    between atoms: C_1  and  C_2
REMARK    2  A    between atoms: C_2  and  C_3
REMARK    3  A    between atoms: C_8  and  N_9
REMARK    4  A    between atoms: C_10  and  C_12
REMARK    5  A    between atoms: N_15  and  S_28
REMARK    6  A    between atoms: N_18  and  S_19
REMARK    7  A    between atoms: S_19  and  C_22
REMARK    8  A    between atoms: S_28  and  C_31
REMARK                            x       y       z     vdW  Elec       q    Type
REMARK                         _______ _______ _______ _____ _____    ______ ____
ROOT
ATOM      1  C   UNL     1      -4.452   1.998  -0.073  0.00  0.00    +0.181 C 
ATOM      2  C   UNL     1      -4.653   2.882   1.164  0.00  0.00    +0.139 C 
ATOM      3  N   UNL     1      -6.090   2.949   1.465  0.00  0.00    -0.173 NA
ATOM      4  C   UNL     1      -6.832   1.695   1.659  0.00  0.00    +0.126 C 
ATOM      5  C   UNL     1      -6.631   0.810   0.422  0.00  0.00    +0.127 C 
ATOM      6  N   UNL     1      -5.194   0.744   0.121  0.00  0.00    -0.162 NA
ENDROOT
BRANCH   1   8
ATOM      7  N   UNL     1      -2.375   1.972  -1.415  0.00  0.00    -0.284 N 
ATOM      8  C   UNL     1      -2.986   1.696  -0.246  0.00  0.00    +0.237 C 
ATOM      9  O   UNL     1      -2.356   1.204   0.666  0.00  0.00    -0.274 OA
ATOM     10  H   UNL     1      -2.854   2.446  -2.113  0.00  0.00    +0.155 HD
BRANCH   7  16
ATOM     11  C   UNL     1      -0.290   2.179  -2.617  0.00  0.00    -0.026 A 
ATOM     12  C   UNL     1       1.017   1.782  -2.823  0.00  0.00    +0.005 A 
ATOM     13  C   UNL     1       1.570   0.787  -2.038  0.00  0.00    +0.000 A 
ATOM     14  C   UNL     1       0.817   0.185  -1.046  0.00  0.00    +0.002 A 
ATOM     15  C   UNL     1      -0.490   0.577  -0.836  0.00  0.00    +0.023 A 
ATOM     16  C   UNL     1      -1.049   1.577  -1.622  0.00  0.00    +0.037 A 
BRANCH  11  18
ATOM     17  C   UNL     1      -0.756   4.610  -2.758  0.00  0.00    +0.009 C 
ATOM     18  C   UNL     1      -0.892   3.264  -3.472  0.00  0.00    +0.033 C 
ENDBRANCH  11  18
ENDBRANCH   7  16
ENDBRANCH   1   8
BRANCH   6  19
ATOM     19  S   UNL     1      -4.425  -0.718   0.002  0.00  0.00    +0.062 S 
ATOM     20  O   UNL     1      -5.386  -1.645  -0.483  0.00  0.00    -0.153 OA
ATOM     21  O   UNL     1      -3.195  -0.476  -0.667  0.00  0.00    -0.153 OA
BRANCH  19  22
ATOM     22  C   UNL     1      -4.016  -1.226   1.639  0.00  0.00    +0.106 A 
ATOM     23  C   UNL     1      -2.737  -1.028   2.125  0.00  0.00    +0.028 A 
ATOM     24  C   UNL     1      -2.418  -1.422   3.411  0.00  0.00    +0.002 A 
ATOM     25  C   UNL     1      -3.375  -2.023   4.207  0.00  0.00    +0.000 A 
ATOM     26  C   UNL     1      -4.652  -2.226   3.719  0.00  0.00    +0.002 A 
ATOM     27  C   UNL     1      -4.973  -1.827   2.435  0.00  0.00    +0.028 A 
ENDBRANCH  19  22
ENDBRANCH   6  19
BRANCH   3  28
ATOM     28  S   UNL     1      -6.859   4.410   1.584  0.00  0.00    +0.061 S 
ATOM     29  O   UNL     1      -6.089   5.337   0.831  0.00  0.00    -0.153 OA
ATOM     30  O   UNL     1      -8.234   4.168   1.318  0.00  0.00    -0.153 OA
BRANCH  28  31
ATOM     31  C   UNL     1      -6.754   4.919   3.268  0.00  0.00    +0.105 A 
ATOM     32  C   UNL     1      -7.746   4.561   4.161  0.00  0.00    +0.028 A 
ATOM     33  C   UNL     1      -7.661   4.956   5.483  0.00  0.00    +0.002 A 
ATOM     34  C   UNL     1      -6.589   5.717   5.910  0.00  0.00    +0.000 A 
ATOM     35  C   UNL     1      -5.599   6.079   5.015  0.00  0.00    +0.002 A 
ATOM     36  C   UNL     1      -5.682   5.680   3.694  0.00  0.00    +0.028 A 
ENDBRANCH  28  31
ENDBRANCH   3  28
TORSDOF 7
