REMARK  Name = ZINC31797091
REMARK  10 active torsions:
REMARK  status: ('A' for Active; 'I' for Inactive)
REMARK    1  A    between atoms: C_1  and  C_2
REMARK    2  A    between atoms: C_5  and  N_8
REMARK    3  A    between atoms: C_10  and  C_15
REMARK    4  A    between atoms: N_17  and  C_18
REMARK    5  A    between atoms: C_18  and  C_19
REMARK    6  A    between atoms: C_19  and  C_20
REMARK    7  A    between atoms: C_20  and  C_21
REMARK    8  A    between atoms: C_22  and  C_34
REMARK    9  A    between atoms: C_23  and  N_33
REMARK   10  A    between atoms: N_24  and  C_26
REMARK                            x       y       z     vdW  Elec       q    Type
REMARK                         _______ _______ _______ _____ _____    ______ ____
ROOT
ATOM      1  C   UNL     1      -0.780   1.550   1.278  0.00  0.00    +0.025 C 
ENDROOT
BRANCH   1   2
ATOM      2  C   UNL     1      -0.056   1.056   0.024  0.00  0.00    +0.104 C 
BRANCH   2   5
ATOM      3  C   UNL     1      -0.285   1.240  -2.395  0.00  0.00    +0.218 C 
ATOM      4  O   UNL     1       0.704   0.549  -2.512  0.00  0.00    -0.275 OA
ATOM      5  N   UNL     1      -0.748   1.551  -1.168  0.00  0.00    -0.315 N 
ATOM      6  H   UNL     1      -1.646   2.178  -1.062  0.00  0.00    +0.149 HD
BRANCH   3   9
ATOM      7  N   UNL     1      -1.183  -0.053  -5.191  0.00  0.00    -0.271 N 
ATOM      8  C   UNL     1      -0.388   1.147  -4.906  0.00  0.00    +0.127 C 
ATOM      9  C   UNL     1      -0.998   1.750  -3.621  0.00  0.00    +0.101 C 
ATOM     10  C   UNL     1      -2.448   1.217  -3.680  0.00  0.00    +0.110 C 
ATOM     11  C   UNL     1      -2.348  -0.037  -4.521  0.00  0.00    +0.221 C 
ATOM     12  O   UNL     1      -3.196  -0.902  -4.581  0.00  0.00    -0.275 OA
BRANCH   7  17
ATOM     13  C   UNL     1       0.448  -4.222  -8.676  0.00  0.00    +0.044 C 
ATOM     14  C   UNL     1       0.014  -3.114  -7.750  0.00  0.00    -0.050 A 
ATOM     15  C   UNL     1       0.780  -1.969  -7.639  0.00  0.00    +0.005 A 
ATOM     16  C   UNL     1       0.386  -0.952  -6.792  0.00  0.00    +0.024 A 
ATOM     17  C   UNL     1      -0.781  -1.081  -6.051  0.00  0.00    +0.036 A 
ATOM     18  C   UNL     1      -1.546  -2.235  -6.160  0.00  0.00    +0.024 A 
ATOM     19  C   UNL     1      -1.149  -3.246  -7.014  0.00  0.00    +0.005 A 
ENDBRANCH   7  17
ENDBRANCH   3   9
ENDBRANCH   2   5
ENDBRANCH   1   2
BRANCH   1  20
ATOM     20  C   UNL     1      -0.057   1.032   2.522  0.00  0.00    +0.060 C 
BRANCH  20  21
ATOM     21  C   UNL     1      -0.771   1.519   3.757  0.00  0.00    +0.083 A 
ATOM     22  C   UNL     1      -1.821   0.848   4.427  0.00  0.00    +0.114 A 
ATOM     23  C   UNL     1      -2.187   1.643   5.510  0.00  0.00    +0.138 A 
ATOM     24  N   UNL     1      -1.392   2.737   5.486  0.00  0.00    -0.217 N 
ATOM     25  N   UNL     1      -0.524   2.629   4.395  0.00  0.00    -0.168 NA
BRANCH  24  26
ATOM     26  C   UNL     1      -1.429   3.797   6.404  0.00  0.00    +0.068 A 
ATOM     27  C   UNL     1      -2.641   4.207   6.943  0.00  0.00    +0.030 A 
ATOM     28  C   UNL     1      -2.675   5.248   7.850  0.00  0.00    +0.040 A 
ATOM     29  C   UNL     1      -1.502   5.889   8.213  0.00  0.00    +0.124 A 
ATOM     30  C   UNL     1      -0.294   5.485   7.672  0.00  0.00    +0.040 A 
ATOM     31  C   UNL     1      -0.255   4.441   6.768  0.00  0.00    +0.030 A 
ATOM     32  F   UNL     1      -1.538   6.911   9.097  0.00  0.00    -0.205 F 
ENDBRANCH  24  26
BRANCH  23  33
ATOM     33  N   UNL     1      -3.175   1.366   6.435  0.00  0.00    -0.342 N 
ATOM     34  H   UNL     1      -3.377   2.073   7.253  0.00  0.00    +0.144 HD
ATOM     35  H   UNL     1      -3.761   0.438   6.352  0.00  0.00    +0.144 HD
ENDBRANCH  23  33
BRANCH  22  36
ATOM     36  C   UNL     1      -2.398  -0.410   4.060  0.00  0.00    +0.104 C 
ATOM     37  N   UNL     1      -2.855  -1.409   3.770  0.00  0.00    -0.191 NA
ENDBRANCH  22  36
ENDBRANCH  20  21
ENDBRANCH   1  20
TORSDOF 9
