REMARK  Name = ZINC09442837
REMARK  7 active torsions:
REMARK  status: ('A' for Active; 'I' for Inactive)
REMARK    1  A    between atoms: C_1  and  C_2
REMARK    2  A    between atoms: N_4  and  C_5
REMARK    3  A    between atoms: C_5  and  C_7
REMARK    4  A    between atoms: C_5  and  C_18
REMARK    5  A    between atoms: C_7  and  C_8
REMARK    6  A    between atoms: N_20  and  C_21
REMARK    7  A    between atoms: C_25  and  C_27
REMARK                            x       y       z     vdW  Elec       q    Type
REMARK                         _______ _______ _______ _____ _____    ______ ____
ROOT
ATOM      1  C   UNL     1      -5.379  -5.001  -0.142  0.00  0.00    +0.238 C 
ATOM      2  O   UNL     1      -4.600  -5.860   0.213  0.00  0.00    -0.273 OA
ATOM      3  N   UNL     1      -4.963  -3.725  -0.269  0.00  0.00    -0.284 N 
ATOM      4  H   UNL     1      -5.602  -3.026  -0.476  0.00  0.00    +0.155 HD
ENDROOT
BRANCH   3   5
ATOM      5  C   UNL     1      -3.610  -3.410  -0.101  0.00  0.00    +0.034 A 
ATOM      6  C   UNL     1      -2.631  -4.308  -0.512  0.00  0.00    +0.023 A 
ATOM      7  C   UNL     1      -1.294  -4.002  -0.347  0.00  0.00    +0.002 A 
ATOM      8  C   UNL     1      -0.921  -2.802   0.226  0.00  0.00    +0.012 A 
ATOM      9  C   UNL     1      -1.896  -1.895   0.641  0.00  0.00    +0.021 A 
ATOM     10  C   UNL     1      -3.246  -2.206   0.480  0.00  0.00    +0.035 A 
BRANCH   9  11
ATOM     11  C   UNL     1      -1.499  -0.609   1.256  0.00  0.00    +0.164 A 
ATOM     12  N   UNL     1      -0.334  -0.324   1.798  0.00  0.00    -0.129 NA
ATOM     13  N   UNL     1      -0.339   0.889   2.227  0.00  0.00    -0.134 NA
ATOM     14  C   UNL     1      -1.493   1.443   1.982  0.00  0.00    +0.134 A 
ATOM     15  N   UNL     1      -2.271   0.511   1.370  0.00  0.00    -0.311 N 
ATOM     16  C   UNL     1      -3.657   0.682   0.935  0.00  0.00    +0.125 C 
ATOM     17  C   UNL     1      -3.908   2.158   0.609  0.00  0.00    +0.022 C 
ATOM     18  C   UNL     1      -4.372   2.891   1.867  0.00  0.00    +0.002 C 
ATOM     19  C   UNL     1      -3.298   2.833   2.949  0.00  0.00    +0.008 C 
ATOM     20  C   UNL     1      -1.911   2.856   2.299  0.00  0.00    +0.076 C 
ENDBRANCH   9  11
ENDBRANCH   3   5
BRANCH   1  21
ATOM     21  C   UNL     1      -6.811  -5.361  -0.443  0.00  0.00    +0.163 C 
BRANCH  21  25
ATOM     22  C   UNL     1      -6.647  -9.161  -0.014  0.00  0.00    +0.109 C 
ATOM     23  C   UNL     1      -6.546  -7.681   0.251  0.00  0.00    +0.211 C 
ATOM     24  O   UNL     1      -6.137  -7.284   1.321  0.00  0.00    -0.276 OA
ATOM     25  N   UNL     1      -6.910  -6.799  -0.701  0.00  0.00    -0.304 N 
ATOM     26  H   UNL     1      -7.237  -7.117  -1.557  0.00  0.00    +0.149 HD
ENDBRANCH  21  25
BRANCH  21  27
ATOM     27  C   UNL     1      -7.691  -4.996   0.754  0.00  0.00    +0.069 C 
BRANCH  27  28
ATOM     28  C   UNL     1      -9.137  -5.240   0.408  0.00  0.00    -0.020 A 
ATOM     29  C   UNL     1     -10.012  -4.333  -0.051  0.00  0.00    +0.087 A 
ATOM     30  N   UNL     1     -11.231  -4.921  -0.255  0.00  0.00    -0.360 N 
ATOM     31  H   UNL     1     -12.021  -4.466  -0.586  0.00  0.00    +0.165 HD
ATOM     32  C   UNL     1     -11.170  -6.254   0.085  0.00  0.00    +0.047 A 
ATOM     33  C   UNL     1      -9.855  -6.512   0.516  0.00  0.00    +0.003 A 
ATOM     34  C   UNL     1      -9.497  -7.797   0.927  0.00  0.00    +0.010 A 
ATOM     35  C   UNL     1     -10.426  -8.799   0.909  0.00  0.00    +0.001 A 
ATOM     36  C   UNL     1     -11.724  -8.549   0.486  0.00  0.00    +0.002 A 
ATOM     37  C   UNL     1     -12.099  -7.289   0.076  0.00  0.00    +0.026 A 
ENDBRANCH  27  28
ENDBRANCH  21  27
ENDBRANCH   1  21
TORSDOF 6
