REMARK  Name = ZINC41584995
REMARK  9 active torsions:
REMARK  status: ('A' for Active; 'I' for Inactive)
REMARK    1  A    between atoms: C_1  and  C_2
REMARK    2  A    between atoms: C_4  and  O_38
REMARK    3  A    between atoms: C_5  and  C_21
REMARK    4  A    between atoms: C_11  and  C_12
REMARK    5  A    between atoms: C_16  and  O_18
REMARK    6  A    between atoms: O_18  and  C_19
REMARK    7  A    between atoms: C_21  and  N_22
REMARK    8  A    between atoms: N_25  and  C_28
REMARK    9  A    between atoms: C_28  and  C_29
REMARK                            x       y       z     vdW  Elec       q    Type
REMARK                         _______ _______ _______ _____ _____    ______ ____
ROOT
ATOM      1  C   UNL     1      -0.082   1.509   0.016  0.00  0.00    +0.045 C 
ATOM      2  C   UNL     1      -0.072   0.003   0.006  0.00  0.00    -0.033 A 
ATOM      3  C   UNL     1      -0.095  -0.674  -1.181  0.00  0.00    +0.050 A 
ATOM      4  C   UNL     1      -0.087  -2.066  -1.193  0.00  0.00    +0.122 A 
ATOM      5  C   UNL     1      -0.055  -2.781  -0.006  0.00  0.00    +0.020 A 
ATOM      6  C   UNL     1      -0.031  -2.109   1.209  0.00  0.00    +0.145 A 
ATOM      7  C   UNL     1      -0.034  -0.704   1.208  0.00  0.00    +0.071 A 
ATOM      8  C   UNL     1       0.002  -0.288   2.622  0.00  0.00    +0.232 C 
ATOM      9  O   UNL     1       0.006   0.847   3.065  0.00  0.00    -0.283 OA
ATOM     10  C   UNL     1       0.030  -1.551   3.378  0.00  0.00    +0.176 C 
ATOM     11  C   UNL     1       0.067  -1.676   4.727  0.00  0.00    +0.058 C 
ATOM     12  O   UNL     1       0.000  -2.564   2.481  0.00  0.00    -0.451 OA
ENDROOT
BRANCH  11  13
ATOM     13  C   UNL     1      -0.020  -3.007   5.344  0.00  0.00    -0.018 A 
ATOM     14  C   UNL     1      -0.118  -3.133   6.735  0.00  0.00    +0.008 A 
ATOM     15  C   UNL     1      -0.200  -4.384   7.309  0.00  0.00    +0.004 A 
ATOM     16  C   UNL     1      -0.186  -5.517   6.515  0.00  0.00    +0.045 A 
ATOM     17  C   UNL     1      -0.089  -5.404   5.134  0.00  0.00    +0.121 A 
ATOM     18  C   UNL     1      -0.012  -4.154   4.544  0.00  0.00    +0.053 A 
BRANCH  17  19
ATOM     19  O   UNL     1      -0.075  -6.522   4.361  0.00  0.00    -0.495 OA
ATOM     20  C   UNL     1      -0.164  -7.778   5.036  0.00  0.00    +0.277 C 
ENDBRANCH  17  19
ENDBRANCH  11  13
BRANCH   4  21
ATOM     21  O   UNL     1      -0.110  -2.728  -2.377  0.00  0.00    -0.506 OA
ATOM     22  H   UNL     1       0.766  -2.915  -2.741  0.00  0.00    +0.292 HD
ENDBRANCH   4  21
BRANCH   5  23
ATOM     23  C   UNL     1      -0.047  -4.287  -0.035  0.00  0.00    -0.035 C 
BRANCH  23  24
ATOM     24  N   UNL     1       1.341  -4.769  -0.076  0.00  0.00    +0.384 N 
ATOM     25  C   UNL     1       1.966  -4.351  -1.338  0.00  0.00    -0.063 C 
ATOM     26  C   UNL     1       3.417  -4.836  -1.373  0.00  0.00    +0.066 C 
ATOM     27  N   UNL     1       3.444  -6.301  -1.254  0.00  0.00    -0.302 NA
ATOM     28  C   UNL     1       2.799  -6.735  -0.006  0.00  0.00    +0.066 C 
ATOM     29  C   UNL     1       1.353  -6.235   0.018  0.00  0.00    -0.063 C 
ATOM     30  H   UNL     1       1.855  -4.378   0.699  0.00  0.00    -0.081 HD
BRANCH  27  31
ATOM     31  C   UNL     1       4.819  -6.811  -1.340  0.00  0.00    +0.119 C 
BRANCH  31  32
ATOM     32  C   UNL     1       4.791  -8.313  -1.462  0.00  0.00    -0.030 A 
ATOM     33  C   UNL     1       4.812  -9.097  -0.323  0.00  0.00    +0.009 A 
ATOM     34  C   UNL     1       4.786 -10.475  -0.429  0.00  0.00    +0.050 A 
ATOM     35  C   UNL     1       4.739 -11.074  -1.678  0.00  0.00    +0.166 A 
ATOM     36  C   UNL     1       4.718 -10.284  -2.825  0.00  0.00    +0.167 A 
ATOM     37  C   UNL     1       4.739  -8.903  -2.711  0.00  0.00    +0.054 A 
ATOM     38  O   UNL     1       4.673 -11.101  -3.917  0.00  0.00    -0.453 OA
ATOM     39  C   UNL     1       5.078 -12.399  -3.443  0.00  0.00    +0.466 C 
ATOM     40  O   UNL     1       4.707 -12.386  -2.052  0.00  0.00    -0.453 OA
ENDBRANCH  31  32
ENDBRANCH  27  31
ENDBRANCH  23  24
ENDBRANCH   5  23
TORSDOF 7
