REMARK  Name = ZINC39530275
REMARK  9 active torsions:
REMARK  status: ('A' for Active; 'I' for Inactive)
REMARK    1  A    between atoms: C_1  and  C_2
REMARK    2  A    between atoms: C_2  and  C_3
REMARK    3  A    between atoms: C_2  and  S_4
REMARK    4  A    between atoms: S_4  and  C_7
REMARK    5  A    between atoms: C_10  and  N_20
REMARK    6  A    between atoms: C_11  and  C_13
REMARK    7  A    between atoms: C_18  and  O_19
REMARK    8  A    between atoms: C_24  and  C_27
REMARK    9  A    between atoms: C_32  and  O_33
REMARK                            x       y       z     vdW  Elec       q    Type
REMARK                         _______ _______ _______ _____ _____    ______ ____
ROOT
ATOM      1  C   UNL     1      -1.536  -2.381   0.152  0.00  0.00    +0.089 A 
ATOM      2  C   UNL     1      -1.442  -3.156  -0.990  0.00  0.00    +0.029 A 
ATOM      3  C   UNL     1      -1.313  -4.528  -0.894  0.00  0.00    +0.025 A 
ATOM      4  C   UNL     1      -1.278  -5.137   0.353  0.00  0.00    +0.038 A 
ATOM      5  C   UNL     1      -1.373  -4.355   1.510  0.00  0.00    +0.008 A 
ATOM      6  C   UNL     1      -1.497  -2.972   1.399  0.00  0.00    +0.037 A 
ENDROOT
BRANCH   4   7
ATOM      7  N   UNL     1      -1.149  -6.522   0.453  0.00  0.00    -0.332 N 
ATOM      8  C   UNL     1      -2.334  -7.393   0.478  0.00  0.00    +0.086 C 
ATOM      9  C   UNL     1      -2.145  -8.501  -0.563  0.00  0.00    -0.063 C 
ATOM     10  N   UNL     1      -0.877  -9.197  -0.312  0.00  0.00    +0.386 N 
ATOM     11  C   UNL     1       0.248  -8.274  -0.509  0.00  0.00    -0.020 C 
ATOM     12  C   UNL     1       0.177  -7.155   0.529  0.00  0.00    +0.094 C 
ATOM     13  H   UNL     1      -0.866  -9.541   0.637  0.00  0.00    -0.085 HD
ATOM     14  H   UNL     1      -0.789  -9.974  -0.949  0.00  0.00    -0.085 HD
BRANCH  11  15
ATOM     15  C   UNL     1       1.546  -9.023  -0.355  0.00  0.00    -0.018 A 
ATOM     16  C   UNL     1       1.571 -10.233   0.311  0.00  0.00    +0.005 A 
ATOM     17  C   UNL     1       2.762 -10.921   0.453  0.00  0.00    +0.000 A 
ATOM     18  C   UNL     1       3.930 -10.401  -0.073  0.00  0.00    +0.004 A 
ATOM     19  C   UNL     1       3.910  -9.192  -0.740  0.00  0.00    +0.045 A 
ATOM     20  C   UNL     1       2.716  -8.502  -0.888  0.00  0.00    +0.118 A 
BRANCH  20  21
ATOM     21  O   UNL     1       2.692  -7.315  -1.550  0.00  0.00    -0.507 OA
ATOM     22  H   UNL     1       2.841  -6.546  -0.983  0.00  0.00    +0.292 HD
ENDBRANCH  20  21
ENDBRANCH  11  15
ENDBRANCH   4   7
BRANCH   5  23
ATOM     23  C   UNL     1      -1.337  -4.995   2.847  0.00  0.00    +0.025 A 
ATOM     24  C   UNL     1      -2.457  -4.948   3.675  0.00  0.00    +0.012 A 
ATOM     25  C   UNL     1      -2.418  -5.546   4.919  0.00  0.00    +0.001 A 
ATOM     26  C   UNL     1      -1.272  -6.192   5.346  0.00  0.00    +0.004 A 
ATOM     27  C   UNL     1      -0.156  -6.244   4.532  0.00  0.00    +0.046 A 
ATOM     28  C   UNL     1      -0.182  -5.653   3.279  0.00  0.00    +0.125 A 
BRANCH  28  29
ATOM     29  O   UNL     1       0.912  -5.709   2.476  0.00  0.00    -0.506 OA
ATOM     30  H   UNL     1       1.526  -4.971   2.596  0.00  0.00    +0.292 HD
ENDBRANCH  28  29
ENDBRANCH   5  23
BRANCH   1  31
ATOM     31  S   UNL     1      -1.700  -0.632   0.015  0.00  0.00    -0.001 S 
ATOM     32  O   UNL     1      -2.359  -0.234   1.209  0.00  0.00    -0.169 OA
ATOM     33  O   UNL     1      -2.308  -0.423  -1.252  0.00  0.00    -0.169 OA
BRANCH  31  35
ATOM     34  C   UNL     1      -0.019   1.526   0.010  0.00  0.00    +0.032 C 
ATOM     35  C   UNL     1       0.002  -0.004   0.002  0.00  0.00    +0.130 C 
ATOM     36  C   UNL     1       0.742  -0.511   1.242  0.00  0.00    +0.032 C 
ENDBRANCH  31  35
ENDBRANCH   1  31
TORSDOF 7
