REMARK  Name = ZINC02197668
REMARK  7 active torsions:
REMARK  status: ('A' for Active; 'I' for Inactive)
REMARK    1  A    between atoms: C_4  and  C_7
REMARK    2  A    between atoms: C_10  and  C_12
REMARK    3  A    between atoms: C_12  and  C_28
REMARK    4  A    between atoms: C_13  and  N_14
REMARK    5  A    between atoms: N_14  and  C_15
REMARK    6  A    between atoms: C_18  and  S_21
REMARK    7  A    between atoms: S_21  and  N_24
REMARK                            x       y       z     vdW  Elec       q    Type
REMARK                         _______ _______ _______ _____ _____    ______ ____
ROOT
ATOM      1  N   UNL     1       9.710  -0.379  -0.081  0.00  0.00    -0.319 N 
ATOM      2  H   UNL     1       9.836   0.583  -0.072  0.00  0.00    +0.152 HD
ENDROOT
BRANCH   1   3
ATOM      3  C   UNL     1      10.820  -1.228  -0.097  0.00  0.00    +0.031 A 
ATOM      4  C   UNL     1      10.642  -2.606  -0.115  0.00  0.00    +0.025 A 
ATOM      5  C   UNL     1      11.740  -3.442  -0.132  0.00  0.00    +0.031 A 
ATOM      6  C   UNL     1      13.017  -2.910  -0.130  0.00  0.00    +0.113 A 
ATOM      7  C   UNL     1      13.198  -1.539  -0.113  0.00  0.00    +0.031 A 
ATOM      8  C   UNL     1      12.103  -0.696  -0.102  0.00  0.00    +0.025 A 
BRANCH   6   9
ATOM      9  S   UNL     1      14.416  -3.981  -0.151  0.00  0.00    +0.102 S 
ATOM     10  O   UNL     1      15.498  -3.246   0.404  0.00  0.00    -0.146 OA
ATOM     11  O   UNL     1      13.984  -5.224   0.385  0.00  0.00    -0.146 OA
BRANCH   9  12
ATOM     12  N   UNL     1      14.797  -4.257  -1.739  0.00  0.00    -0.093 NA
ATOM     13  C   UNL     1      15.805  -5.026  -2.043  0.00  0.00    +0.212 C 
ATOM     14  N   UNL     1      16.551  -5.607  -1.045  0.00  0.00    -0.369 N 
ATOM     15  N   UNL     1      16.121  -5.256  -3.361  0.00  0.00    -0.369 N 
ATOM     16  H   UNL     1      16.328  -5.445  -0.115  0.00  0.00    +0.159 HD
ATOM     17  H   UNL     1      15.595  -4.846  -4.064  0.00  0.00    +0.159 HD
ATOM     18  H   UNL     1      16.871  -5.828  -3.587  0.00  0.00    +0.159 HD
ATOM     19  H   UNL     1      17.301  -6.179  -1.271  0.00  0.00    +0.159 HD
ENDBRANCH   9  12
ENDBRANCH   6   9
ENDBRANCH   1   3
BRANCH   1  21
ATOM     20  C   UNL     1       7.367  -0.074  -0.060  0.00  0.00    +0.098 C 
ATOM     21  C   UNL     1       8.449  -0.903  -0.076  0.00  0.00    +0.093 C 
BRANCH  20  25
ATOM     22  C   UNL     1       3.698  -0.688  -0.037  0.00  0.00    +0.079 A 
ATOM     23  C   UNL     1       3.727  -2.057  -0.050  0.00  0.00    +0.075 A 
ATOM     24  S   UNL     1       5.490  -2.353  -0.067  0.00  0.00    -0.074 S 
ATOM     25  C   UNL     1       6.004  -0.641  -0.055  0.00  0.00    +0.120 A 
ATOM     26  N   UNL     1       4.836  -0.015  -0.046  0.00  0.00    -0.238 NA
BRANCH  22  30
ATOM     27  C   UNL     1      -0.017   1.379   0.010  0.00  0.00    +0.000 A 
ATOM     28  C   UNL     1       1.169   2.092   0.002  0.00  0.00    +0.001 A 
ATOM     29  C   UNL     1       2.377   1.426  -0.013  0.00  0.00    +0.010 A 
ATOM     30  C   UNL     1       2.402   0.033  -0.021  0.00  0.00    +0.001 A 
ATOM     31  C   UNL     1       1.205  -0.680  -0.013  0.00  0.00    +0.010 A 
ATOM     32  C   UNL     1       0.002  -0.004   0.002  0.00  0.00    +0.001 A 
ENDBRANCH  22  30
ENDBRANCH  20  25
BRANCH  20  33
ATOM     33  C   UNL     1       7.552   1.345  -0.048  0.00  0.00    +0.103 C 
ATOM     34  N   UNL     1       7.699   2.472  -0.038  0.00  0.00    -0.191 NA
ENDBRANCH  20  33
ENDBRANCH   1  21
TORSDOF 7
