REMARK  Name = ZINC08845463
REMARK  12 active torsions:
REMARK  status: ('A' for Active; 'I' for Inactive)
REMARK    1  A    between atoms: C_1  and  C_2
REMARK    2  A    between atoms: C_2  and  C_3
REMARK    3  A    between atoms: C_3  and  C_4
REMARK    4  A    between atoms: C_4  and  O_5
REMARK    5  A    between atoms: O_5  and  C_6
REMARK    6  A    between atoms: C_9  and  C_14
REMARK    7  A    between atoms: C_11  and  O_12
REMARK    8  A    between atoms: O_12  and  C_13
REMARK    9  A    between atoms: C_17  and  C_32
REMARK   10  A    between atoms: N_24  and  C_25
REMARK   11  A    between atoms: C_25  and  C_26
REMARK   12  A    between atoms: C_37  and  O_38
REMARK                            x       y       z     vdW  Elec       q    Type
REMARK                         _______ _______ _______ _____ _____    ______ ____
ROOT
ATOM      1  C   UNL     1       1.831  -7.708  -2.745  0.00  0.00    +0.142 C 
ATOM      2  C   UNL     1       3.026  -8.435  -2.192  0.00  0.00    +0.035 A 
ATOM      3  C   UNL     1       4.419  -8.566  -2.167  0.00  0.00    +0.102 A 
ATOM      4  N   UNL     1       4.707  -9.548  -1.336  0.00  0.00    -0.173 NA
ATOM      5  N   UNL     1       3.635 -10.050  -0.835  0.00  0.00    -0.272 N 
ATOM      6  H   UNL     1       3.607 -10.782  -0.199  0.00  0.00    +0.189 HD
ATOM      7  C   UNL     1       2.541  -9.398  -1.329  0.00  0.00    +0.126 A 
ATOM      8  C   UNL     1       1.077  -9.313  -1.310  0.00  0.00    +0.266 C 
ATOM      9  O   UNL     1       0.348 -10.027  -0.647  0.00  0.00    -0.268 OA
ATOM     10  N   UNL     1       0.652  -8.334  -2.131  0.00  0.00    -0.281 N 
ENDROOT
BRANCH   1  14
ATOM     11  C   UNL     1       2.012  -3.564  -1.703  0.00  0.00    +0.162 A 
ATOM     12  C   UNL     1       2.170  -3.958  -3.022  0.00  0.00    +0.050 A 
ATOM     13  C   UNL     1       2.111  -5.298  -3.356  0.00  0.00    +0.009 A 
ATOM     14  C   UNL     1       1.894  -6.248  -2.376  0.00  0.00    -0.019 A 
ATOM     15  C   UNL     1       1.735  -5.863  -1.058  0.00  0.00    +0.055 A 
ATOM     16  C   UNL     1       1.799  -4.522  -0.716  0.00  0.00    +0.162 A 
BRANCH  16  17
ATOM     17  O   UNL     1       1.648  -4.141   0.581  0.00  0.00    -0.491 OA
ATOM     18  C   UNL     1       1.432  -5.178   1.540  0.00  0.00    +0.277 C 
ENDBRANCH  16  17
BRANCH  11  19
ATOM     19  O   UNL     1       2.070  -2.247  -1.373  0.00  0.00    -0.488 OA
BRANCH  19  20
ATOM     20  C   UNL     1       2.291  -1.320  -2.438  0.00  0.00    +0.229 C 
BRANCH  20  21
ATOM     21  C   UNL     1       2.325   0.103  -1.877  0.00  0.00    +0.041 C 
BRANCH  21  23
ATOM     22  C   UNL     1       2.597   2.518  -2.457  0.00  0.00    +0.004 C 
ATOM     23  C   UNL     1       2.562   1.095  -3.018  0.00  0.00    -0.000 C 
ENDBRANCH  21  23
ENDBRANCH  20  21
ENDBRANCH  19  20
ENDBRANCH  11  19
ENDBRANCH   1  14
BRANCH   3  24
ATOM     24  C   UNL     1       5.392  -7.750  -2.934  0.00  0.00    +0.044 A 
ATOM     25  C   UNL     1       4.942  -6.823  -3.872  0.00  0.00    +0.014 A 
ATOM     26  C   UNL     1       5.851  -6.066  -4.583  0.00  0.00    +0.001 A 
ATOM     27  C   UNL     1       7.209  -6.225  -4.368  0.00  0.00    +0.004 A 
ATOM     28  C   UNL     1       7.666  -7.141  -3.440  0.00  0.00    +0.046 A 
ATOM     29  C   UNL     1       6.764  -7.903  -2.715  0.00  0.00    +0.126 A 
BRANCH  29  30
ATOM     30  O   UNL     1       7.211  -8.800  -1.798  0.00  0.00    -0.506 OA
ATOM     31  H   UNL     1       7.371  -9.684  -2.157  0.00  0.00    +0.292 HD
ENDBRANCH  29  30
ENDBRANCH   3  24
BRANCH  10  32
ATOM     32  C   UNL     1      -0.743  -7.957  -2.370  0.00  0.00    +0.145 C 
BRANCH  32  33
ATOM     33  C   UNL     1      -1.288  -8.755  -3.526  0.00  0.00    -0.012 A 
ATOM     34  C   UNL     1      -1.177  -8.278  -4.824  0.00  0.00    +0.008 A 
ATOM     35  C   UNL     1      -1.693  -9.046  -5.856  0.00  0.00    +0.020 A 
ATOM     36  C   UNL     1      -2.297 -10.254  -5.559  0.00  0.00    +0.111 A 
ATOM     37  N   UNL     1      -2.385 -10.676  -4.313  0.00  0.00    -0.263 NA
ATOM     38  C   UNL     1      -1.900  -9.974  -3.307  0.00  0.00    +0.115 A 
ENDBRANCH  32  33
ENDBRANCH  10  32
TORSDOF 10
