REMARK  Name = ZINC67409436
REMARK  9 active torsions:
REMARK  status: ('A' for Active; 'I' for Inactive)
REMARK    1  A    between atoms: C_1  and  C_2
REMARK    2  A    between atoms: C_6  and  C_7
REMARK    3  A    between atoms: N_9  and  N_10
REMARK    4  A    between atoms: N_13  and  C_14
REMARK    5  A    between atoms: C_14  and  C_16
REMARK    6  A    between atoms: C_14  and  C_17
REMARK    7  A    between atoms: C_17  and  N_18
REMARK    8  A    between atoms: C_20  and  C_27
REMARK    9  A    between atoms: C_23  and  C_26
REMARK                            x       y       z     vdW  Elec       q    Type
REMARK                         _______ _______ _______ _____ _____    ______ ____
ROOT
ATOM      1  N   UNL     1       0.508  -0.619   5.291  0.00  0.00    -0.218 N 
ATOM      2  C   UNL     1       0.421  -1.597   6.214  0.00  0.00    +0.316 C 
ATOM      3  O   UNL     1       0.495  -1.326   7.397  0.00  0.00    -0.251 OA
ATOM      4  N   UNL     1       0.253  -2.877   5.825  0.00  0.00    -0.297 N 
ATOM      5  H   UNL     1       0.630   0.302   5.571  0.00  0.00    +0.174 HD
ATOM      6  H   UNL     1       0.195  -3.094   4.882  0.00  0.00    +0.150 HD
ENDROOT
BRANCH   1   9
ATOM      7  C   UNL     1       0.511   0.046   3.005  0.00  0.00    +0.267 C 
ATOM      8  O   UNL     1       0.663   1.202   3.356  0.00  0.00    -0.268 OA
ATOM      9  N   UNL     1       0.424  -0.932   3.928  0.00  0.00    -0.229 N 
ATOM     10  H   UNL     1       0.303  -1.853   3.648  0.00  0.00    +0.173 HD
BRANCH   7  16
ATOM     11  C   UNL     1       0.673   2.053   0.628  0.00  0.00    +0.045 C 
ATOM     12  C   UNL     1       0.488   0.565   0.482  0.00  0.00    -0.031 A 
ATOM     13  C   UNL     1       0.378  -0.041  -0.746  0.00  0.00    +0.011 A 
ATOM     14  C   UNL     1       0.213  -1.385  -0.806  0.00  0.00    +0.046 A 
ATOM     15  S   UNL     1       0.201  -1.870   0.803  0.00  0.00    -0.092 S 
ATOM     16  C   UNL     1       0.422  -0.281   1.579  0.00  0.00    +0.078 A 
ENDBRANCH   7  16
ENDBRANCH   1   9
BRANCH   4  17
ATOM     17  C   UNL     1       0.158  -3.941   6.828  0.00  0.00    +0.055 C 
ATOM     18  C   UNL     1      -1.294  -4.078   7.290  0.00  0.00    +0.026 C 
BRANCH  17  19
ATOM     19  C   UNL     1       0.626  -5.262   6.216  0.00  0.00    -0.057 C 
BRANCH  19  20
ATOM     20  N   UNL     1       1.983  -5.099   5.677  0.00  0.00    +0.381 N 
ATOM     21  C   UNL     1       2.372  -6.319   4.958  0.00  0.00    -0.076 C 
ATOM     22  C   UNL     1       3.752  -6.124   4.326  0.00  0.00    -0.031 C 
ATOM     23  C   UNL     1       4.775  -5.831   5.427  0.00  0.00    +0.003 C 
ATOM     24  C   UNL     1       4.320  -4.601   6.217  0.00  0.00    -0.031 C 
ATOM     25  C   UNL     1       2.919  -4.851   6.779  0.00  0.00    -0.076 C 
ATOM     26  C   UNL     1       5.295  -4.344   7.368  0.00  0.00    +0.005 C 
ATOM     27  C   UNL     1       4.155  -7.397   3.578  0.00  0.00    +0.005 C 
ATOM     28  H   UNL     1       1.999  -4.316   5.040  0.00  0.00    -0.082 HD
ENDBRANCH  19  20
ENDBRANCH  17  19
ENDBRANCH   4  17
TORSDOF 5
