REMARK  Name = ZINC11693561
REMARK  10 active torsions:
REMARK  status: ('A' for Active; 'I' for Inactive)
REMARK    1  A    between atoms: C_1  and  C_2
REMARK    2  A    between atoms: C_2  and  C_3
REMARK    3  A    between atoms: C_6  and  S_8
REMARK    4  A    between atoms: S_8  and  N_11
REMARK    5  A    between atoms: N_11  and  C_12
REMARK    6  A    between atoms: C_14  and  C_20
REMARK    7  A    between atoms: C_17  and  O_18
REMARK    8  A    between atoms: O_18  and  C_19
REMARK    9  A    between atoms: C_27  and  O_29
REMARK   10  A    between atoms: O_29  and  C_30
REMARK                            x       y       z     vdW  Elec       q    Type
REMARK                         _______ _______ _______ _____ _____    ______ ____
ROOT
ATOM      1  C   UNL     1      -0.173   7.138   4.448  0.00  0.00    +0.090 A 
ATOM      2  C   UNL     1       1.128   6.702   4.636  0.00  0.00    +0.038 A 
ATOM      3  C   UNL     1       1.463   5.998   5.791  0.00  0.00    +0.004 A 
ATOM      4  C   UNL     1       0.487   5.726   6.747  0.00  0.00    +0.014 A 
ATOM      5  C   UNL     1      -0.810   6.157   6.554  0.00  0.00    +0.048 A 
ATOM      6  C   UNL     1      -1.145   6.862   5.408  0.00  0.00    +0.142 A 
ENDROOT
BRANCH   3   7
ATOM      7  C   UNL     1       2.857   5.534   6.000  0.00  0.00    +0.092 A 
ATOM      8  C   UNL     1       3.296   4.757   7.034  0.00  0.00    +0.143 A 
ATOM      9  N   UNL     1       4.629   4.559   6.849  0.00  0.00    -0.216 N 
ATOM     10  C   UNL     1       4.986   5.229   5.707  0.00  0.00    +0.155 A 
ATOM     11  N   UNL     1       3.904   5.810   5.209  0.00  0.00    -0.226 NA
ATOM     12  C   UNL     1       6.329   5.195   5.280  0.00  0.00    +0.053 A 
ATOM     13  C   UNL     1       7.240   4.500   6.011  0.00  0.00    +0.072 A 
ATOM     14  C   UNL     1       6.841   3.824   7.178  0.00  0.00    +0.233 A 
ATOM     15  N   UNL     1       5.593   3.854   7.577  0.00  0.00    -0.127 NA
BRANCH  14  16
ATOM     16  O   UNL     1       7.759   3.132   7.899  0.00  0.00    -0.479 OA
ATOM     17  C   UNL     1       7.293   2.467   9.075  0.00  0.00    +0.279 C 
ENDBRANCH  14  16
ENDBRANCH   3   7
BRANCH   1  18
ATOM     18  N   UNL     1      -0.513   7.849   3.291  0.00  0.00    -0.212 N 
ATOM     19  H   UNL     1      -1.169   8.562   3.336  0.00  0.00    +0.174 HD
BRANCH  18  20
ATOM     20  S   UNL     1       0.205   7.473   1.847  0.00  0.00    +0.079 S 
ATOM     21  O   UNL     1       1.608   7.519   2.067  0.00  0.00    -0.149 OA
ATOM     22  O   UNL     1      -0.438   8.263   0.856  0.00  0.00    -0.149 OA
BRANCH  20  26
ATOM     23  C   UNL     1      -0.408   3.124   1.177  0.00  0.00    -0.009 A 
ATOM     24  C   UNL     1      -1.361   3.927   0.643  0.00  0.00    +0.013 A 
ATOM     25  C   UNL     1      -1.251   5.296   0.803  0.00  0.00    +0.037 A 
ATOM     26  C   UNL     1      -0.193   5.795   1.489  0.00  0.00    +0.146 A 
ATOM     27  S   UNL     1       0.688   4.309   1.940  0.00  0.00    -0.073 S 
BRANCH  23  29
ATOM     28  C   UNL     1       0.486   1.194  -0.098  0.00  0.00    +0.009 C 
ATOM     29  C   UNL     1      -0.304   1.621   1.140  0.00  0.00    +0.039 C 
ENDBRANCH  23  29
ENDBRANCH  20  26
ENDBRANCH  18  20
ENDBRANCH   1  18
BRANCH   6  30
ATOM     30  O   UNL     1      -2.424   7.286   5.221  0.00  0.00    -0.493 OA
ATOM     31  C   UNL     1      -3.369   6.969   6.246  0.00  0.00    +0.277 C 
ENDBRANCH   6  30
TORSDOF 7
