REMARK  Name = ZINC38806381
REMARK  13 active torsions:
REMARK  status: ('A' for Active; 'I' for Inactive)
REMARK    1  A    between atoms: C_1  and  C_2
REMARK    2  A    between atoms: C_2  and  O_3
REMARK    3  A    between atoms: O_3  and  C_4
REMARK    4  A    between atoms: C_4  and  C_6
REMARK    5  A    between atoms: C_10  and  N_11
REMARK    6  A    between atoms: C_12  and  C_14
REMARK    7  A    between atoms: C_14  and  N_15
REMARK    8  A    between atoms: N_22  and  C_27
REMARK    9  A    between atoms: N_25  and  C_26
REMARK   10  A    between atoms: C_28  and  C_34
REMARK   11  A    between atoms: C_28  and  C_35
REMARK   12  A    between atoms: C_30  and  C_32
REMARK   13  A    between atoms: C_30  and  C_33
REMARK                            x       y       z     vdW  Elec       q    Type
REMARK                         _______ _______ _______ _____ _____    ______ ____
ROOT
ATOM      1  C   UNL     1      -2.843  -2.416   0.016  0.00  0.00    +0.091 A 
ATOM      2  C   UNL     1      -3.559  -2.714  -1.204  0.00  0.00    -0.024 A 
ATOM      3  C   UNL     1      -4.793  -3.237  -1.021  0.00  0.00    -0.016 A 
ATOM      4  S   UNL     1      -4.973  -3.335   0.735  0.00  0.00    -0.079 S 
ATOM      5  C   UNL     1      -3.490  -2.706   1.212  0.00  0.00    +0.086 A 
ATOM      6  C   UNL     1      -5.759  -3.623  -2.091  0.00  0.00    -0.041 C 
ATOM      7  N   UNL     1      -5.157  -3.579  -3.423  0.00  0.00    +0.389 N 
ATOM      8  C   UNL     1      -3.702  -3.613  -3.483  0.00  0.00    -0.069 C 
ATOM      9  C   UNL     1      -3.068  -2.508  -2.629  0.00  0.00    +0.024 C 
ATOM     10  C   UNL     1      -3.163  -4.974  -3.038  0.00  0.00    -0.010 C 
ATOM     11  C   UNL     1      -3.270  -3.387  -4.944  0.00  0.00    -0.010 C 
ATOM     12  C   UNL     1      -6.942  -2.636  -2.053  0.00  0.00    -0.005 C 
ATOM     13  C   UNL     1      -6.308  -5.027  -1.803  0.00  0.00    -0.005 C 
ATOM     14  H   UNL     1      -5.523  -4.360  -3.971  0.00  0.00    -0.084 HD
ATOM     15  H   UNL     1      -5.481  -2.734  -3.898  0.00  0.00    -0.084 HD
ENDROOT
BRANCH   5  16
ATOM     16  N   UNL     1      -3.017  -2.519   2.501  0.00  0.00    -0.278 N 
ATOM     17  C   UNL     1      -3.784  -2.858   3.556  0.00  0.00    +0.237 C 
ATOM     18  O   UNL     1      -4.888  -3.328   3.377  0.00  0.00    -0.273 OA
ATOM     19  H   UNL     1      -2.135  -2.143   2.644  0.00  0.00    +0.155 HD
BRANCH  17  20
ATOM     20  C   UNL     1      -3.271  -2.655   4.958  0.00  0.00    +0.219 C 
BRANCH  20  21
ATOM     21  N   UNL     1      -4.284  -3.098   5.918  0.00  0.00    -0.316 N 
ATOM     22  C   UNL     1      -5.208  -2.326   6.522  0.00  0.00    +0.202 A 
ATOM     23  N   UNL     1      -5.946  -3.060   7.316  0.00  0.00    -0.218 NA
ATOM     24  C   UNL     1      -5.539  -4.331   7.266  0.00  0.00    +0.168 A 
ATOM     25  C   UNL     1      -4.476  -4.388   6.373  0.00  0.00    +0.152 A 
ATOM     26  C   UNL     1      -3.853  -5.630   6.123  0.00  0.00    +0.282 A 
ATOM     27  O   UNL     1      -2.918  -5.705   5.347  0.00  0.00    -0.265 OA
ATOM     28  N   UNL     1      -4.305  -6.732   6.756  0.00  0.00    -0.262 N 
ATOM     29  C   UNL     1      -5.336  -6.663   7.615  0.00  0.00    +0.333 A 
ATOM     30  O   UNL     1      -5.716  -7.678   8.168  0.00  0.00    -0.246 OA
ATOM     31  N   UNL     1      -5.954  -5.498   7.887  0.00  0.00    -0.280 N 
ATOM     32  C   UNL     1      -7.075  -5.466   8.829  0.00  0.00    +0.155 C 
ATOM     33  C   UNL     1      -3.663  -8.024   6.502  0.00  0.00    +0.157 C 
ENDBRANCH  20  21
ENDBRANCH  17  20
ENDBRANCH   5  16
BRANCH   1  34
ATOM     34  C   UNL     1      -1.497  -1.838   0.006  0.00  0.00    +0.342 C 
ATOM     35  O   UNL     1      -0.523  -2.566  -0.007  0.00  0.00    -0.245 OA
BRANCH  34  36
ATOM     36  O   UNL     1      -1.339  -0.499   0.012  0.00  0.00    -0.461 OA
BRANCH  36  38
ATOM     37  C   UNL     1      -0.019   1.526   0.010  0.00  0.00    +0.048 C 
ATOM     38  C   UNL     1       0.002  -0.004   0.002  0.00  0.00    +0.229 C 
ENDBRANCH  36  38
ENDBRANCH  34  36
ENDBRANCH   1  34
TORSDOF 6
