REMARK  Name = ZINC38827378
REMARK  6 active torsions:
REMARK  status: ('A' for Active; 'I' for Inactive)
REMARK    1  A    between atoms: C_6  and  C_7
REMARK    2  A    between atoms: C_7  and  O_8
REMARK    3  A    between atoms: O_8  and  C_9
REMARK    4  A    between atoms: C_12  and  C_16
REMARK    5  A    between atoms: C_13  and  O_15
REMARK    6  A    between atoms: C_18  and  C_22
REMARK                            x       y       z     vdW  Elec       q    Type
REMARK                         _______ _______ _______ _____ _____    ______ ____
ROOT
ATOM      1  C   UNL     1      -2.875  -1.700  -1.504  0.00  0.00    +0.124 A 
ATOM      2  C   UNL     1      -3.594  -2.133  -0.399  0.00  0.00    +0.046 A 
ATOM      3  C   UNL     1      -4.772  -2.833  -0.571  0.00  0.00    +0.013 A 
ATOM      4  C   UNL     1      -5.238  -3.103  -1.844  0.00  0.00    +0.022 A 
ATOM      5  C   UNL     1      -4.523  -2.672  -2.952  0.00  0.00    +0.126 A 
ATOM      6  C   UNL     1      -3.343  -1.964  -2.781  0.00  0.00    +0.091 A 
ENDROOT
BRANCH   4   7
ATOM      7  C   UNL     1      -6.524  -3.868  -2.029  0.00  0.00    +0.164 C 
ATOM      8  C   UNL     1      -7.684  -2.918  -2.272  0.00  0.00    +0.008 C 
ATOM      9  C   UNL     1      -8.512  -3.152  -1.227  0.00  0.00    +0.139 C 
ATOM     10  N   UNL     1      -8.001  -4.092  -0.422  0.00  0.00    -0.185 NA
ATOM     11  N   UNL     1      -6.909  -4.549  -0.781  0.00  0.00    -0.297 N 
ATOM     12  H   UNL     1      -6.396  -5.234  -0.323  0.00  0.00    +0.183 HD
BRANCH   8  13
ATOM     13  C   UNL     1      -7.865  -1.968  -3.381  0.00  0.00    -0.018 A 
ATOM     14  C   UNL     1      -8.023  -2.437  -4.690  0.00  0.00    +0.010 A 
ATOM     15  C   UNL     1      -8.192  -1.541  -5.724  0.00  0.00    +0.020 A 
ATOM     16  C   UNL     1      -8.206  -0.179  -5.469  0.00  0.00    +0.041 A 
ATOM     17  C   UNL     1      -8.050   0.292  -4.176  0.00  0.00    +0.020 A 
ATOM     18  C   UNL     1      -7.886  -0.592  -3.132  0.00  0.00    +0.010 A 
ATOM     19 CL   UNL     1      -8.419   0.942  -6.778  0.00  0.00    -0.084 Cl
ENDBRANCH   8  13
ENDBRANCH   4   7
BRANCH   5  20
ATOM     20  O   UNL     1      -4.982  -2.938  -4.203  0.00  0.00    -0.506 OA
ATOM     21  H   UNL     1      -5.566  -2.256  -4.561  0.00  0.00    +0.292 HD
ENDBRANCH   5  20
BRANCH   1  22
ATOM     22  O   UNL     1      -1.715  -1.011  -1.334  0.00  0.00    -0.487 OA
BRANCH  22  23
ATOM     23  C   UNL     1      -1.293  -0.775   0.011  0.00  0.00    +0.264 C 
BRANCH  23  29
ATOM     24  C   UNL     1      -0.017   1.378   0.010  0.00  0.00    +0.008 A 
ATOM     25  C   UNL     1       1.171   2.086   0.002  0.00  0.00    +0.020 A 
ATOM     26  C   UNL     1       2.378   1.410  -0.013  0.00  0.00    +0.041 A 
ATOM     27  C   UNL     1       2.396   0.027  -0.021  0.00  0.00    +0.020 A 
ATOM     28  C   UNL     1       1.208  -0.679  -0.013  0.00  0.00    +0.008 A 
ATOM     29  C   UNL     1       0.002  -0.004   0.002  0.00  0.00    -0.010 A 
ATOM     30 CL   UNL     1       3.870   2.298  -0.023  0.00  0.00    -0.084 Cl
ENDBRANCH  23  29
ENDBRANCH  22  23
ENDBRANCH   1  22
TORSDOF 6
