REMARK  Name = ZINC20905386
REMARK  8 active torsions:
REMARK  status: ('A' for Active; 'I' for Inactive)
REMARK    1  A    between atoms: C_1  and  S_2
REMARK    2  A    between atoms: S_2  and  C_3
REMARK    3  A    between atoms: C_8  and  N_9
REMARK    4  A    between atoms: C_10  and  C_12
REMARK    5  A    between atoms: C_12  and  S_13
REMARK    6  A    between atoms: S_13  and  C_14
REMARK    7  A    between atoms: N_19  and  N_20
REMARK    8  A    between atoms: C_21  and  C_22
REMARK                            x       y       z     vdW  Elec       q    Type
REMARK                         _______ _______ _______ _____ _____    ______ ____
ROOT
ATOM      1  C   UNL     1       3.847  -4.333  -0.453  0.00  0.00    +0.211 A 
ATOM      2  N   UNL     1       2.512  -4.066  -0.340  0.00  0.00    -0.186 NA
ATOM      3  C   UNL     1       2.353  -2.708  -0.323  0.00  0.00    +0.232 A 
ATOM      4  N   UNL     1       3.539  -2.160  -0.427  0.00  0.00    -0.245 N 
ATOM      5  N   UNL     1       4.486  -3.189  -0.504  0.00  0.00    -0.144 NA
ATOM      6  N   UNL     1       1.147  -2.030  -0.219  0.00  0.00    -0.205 N 
ATOM      7  H   UNL     1       0.204  -2.592  -0.141  0.00  0.00    +0.177 HD
ATOM      8  H   UNL     1       3.639  -1.064  -0.439  0.00  0.00    +0.192 HD
ENDROOT
BRANCH   6   9
ATOM      9  N   UNL     1       1.129  -0.629  -0.214  0.00  0.00    -0.188 NA
ATOM     10  C   UNL     1      -0.001   0.006  -0.117  0.00  0.00    +0.139 C 
BRANCH  10  11
ATOM     11  C   UNL     1      -0.019   1.476  -0.111  0.00  0.00    +0.002 A 
ATOM     12  C   UNL     1      -1.224   2.171  -0.123  0.00  0.00    +0.010 A 
ATOM     13  C   UNL     1      -1.238   3.559  -0.112  0.00  0.00    +0.001 A 
ATOM     14  C   UNL     1      -0.088   4.289  -0.102  0.00  0.00    +0.008 A 
ATOM     15  C   UNL     1       1.165   3.654  -0.095  0.00  0.00    -0.017 A 
ATOM     16  C   UNL     1       1.228   2.239  -0.100  0.00  0.00    -0.009 A 
ATOM     17  C   UNL     1       2.474   1.602  -0.092  0.00  0.00    +0.009 A 
ATOM     18  C   UNL     1       3.614   2.350  -0.081  0.00  0.00    +0.001 A 
ATOM     19  C   UNL     1       3.555   3.742  -0.077  0.00  0.00    +0.001 A 
ATOM     20  C   UNL     1       2.360   4.394  -0.084  0.00  0.00    +0.008 A 
ENDBRANCH  10  11
ENDBRANCH   6   9
BRANCH   1  21
ATOM     21  S   UNL     1       4.581  -5.934  -0.519  0.00  0.00    -0.075 S 
BRANCH  21  22
ATOM     22  C   UNL     1       6.325  -5.474  -0.666  0.00  0.00    +0.173 C 
BRANCH  22  24
ATOM     23  N   UNL     1       8.508  -6.622  -0.853  0.00  0.00    -0.284 N 
ATOM     24  C   UNL     1       7.169  -6.720  -0.740  0.00  0.00    +0.228 C 
ATOM     25  O   UNL     1       6.642  -7.812  -0.698  0.00  0.00    -0.275 OA
ATOM     26  H   UNL     1       8.993  -5.636  -0.800  0.00  0.00    +0.155 HD
BRANCH  23  32
ATOM     27  C   UNL     1      10.556  -7.861  -0.476  0.00  0.00    +0.029 A 
ATOM     28  C   UNL     1      11.317  -9.006  -0.665  0.00  0.00    +0.016 A 
ATOM     29  C   UNL     1      10.813 -10.056  -1.409  0.00  0.00    +0.001 A 
ATOM     30  C   UNL     1       9.550  -9.970  -1.966  0.00  0.00    +0.002 A 
ATOM     31  C   UNL     1       8.783  -8.836  -1.779  0.00  0.00    +0.024 A 
ATOM     32  C   UNL     1       9.282  -7.775  -1.040  0.00  0.00    +0.047 A 
BRANCH  27  34
ATOM     33  C   UNL     1      12.841  -7.088   0.980  0.00  0.00    +0.090 C 
ATOM     34  S   UNL     1      11.195  -6.520   0.472  0.00  0.00    -0.127 S 
ENDBRANCH  27  34
ENDBRANCH  23  32
ENDBRANCH  22  24
ENDBRANCH  21  22
ENDBRANCH   1  21
TORSDOF 7
