REMARK  Name = ZINC12210419
REMARK  7 active torsions:
REMARK  status: ('A' for Active; 'I' for Inactive)
REMARK    1  A    between atoms: C_6  and  C_7
REMARK    2  A    between atoms: C_7  and  N_8
REMARK    3  A    between atoms: N_8  and  C_9
REMARK    4  A    between atoms: C_9  and  C_10
REMARK    5  A    between atoms: C_18  and  N_19
REMARK    6  A    between atoms: C_22  and  O_25
REMARK    7  A    between atoms: C_29  and  C_31
REMARK                            x       y       z     vdW  Elec       q    Type
REMARK                         _______ _______ _______ _____ _____    ______ ____
ROOT
ATOM      1  C   UNL     1       5.348   4.664  -2.639  0.00  0.00    +0.008 A 
ATOM      2  C   UNL     1       5.840   3.394  -2.625  0.00  0.00    +0.018 A 
ATOM      3  C   UNL     1       5.689   2.606  -3.784  0.00  0.00    -0.001 A 
ATOM      4  C   UNL     1       6.170   1.290  -3.840  0.00  0.00    +0.014 A 
ATOM      5  C   UNL     1       6.007   0.552  -4.977  0.00  0.00    -0.043 A 
ATOM      6  C   UNL     1       5.365   1.093  -6.090  0.00  0.00    -0.042 A 
ATOM      7  C   UNL     1       4.887   2.372  -6.066  0.00  0.00    +0.030 A 
ATOM      8  C   UNL     1       5.036   3.158  -4.913  0.00  0.00    +0.048 A 
ATOM      9  C   UNL     1       4.705   5.152  -3.786  0.00  0.00    +0.104 A 
ATOM     10  C   UNL     1       5.324   0.064  -7.201  0.00  0.00    +0.036 C 
ATOM     11  C   UNL     1       5.604  -1.288  -6.512  0.00  0.00    +0.009 C 
ATOM     12  C   UNL     1       6.432  -0.871  -5.279  0.00  0.00    +0.036 C 
ATOM     13  N   UNL     1       4.537   4.442  -4.929  0.00  0.00    -0.343 N 
ATOM     14  H   UNL     1       4.068   4.836  -5.754  0.00  0.00    +0.167 HD
ENDROOT
BRANCH   9  15
ATOM     15  N   UNL     1       4.204   6.444  -3.783  0.00  0.00    -0.316 N 
ATOM     16  C   UNL     1       5.191   7.394  -4.312  0.00  0.00    +0.109 C 
ATOM     17  C   UNL     1       4.661   8.821  -4.159  0.00  0.00    +0.050 C 
ATOM     18  C   UNL     1       3.340   8.954  -4.920  0.00  0.00    +0.118 C 
ATOM     19  C   UNL     1       2.344   7.922  -4.383  0.00  0.00    +0.050 C 
ATOM     20  C   UNL     1       2.941   6.521  -4.529  0.00  0.00    +0.109 C 
BRANCH  18  21
ATOM     21  O   UNL     1       2.811  10.269  -4.735  0.00  0.00    -0.392 OA
ATOM     22  H   UNL     1       3.391  10.974  -5.053  0.00  0.00    +0.210 HD
ENDBRANCH  18  21
ENDBRANCH   9  15
BRANCH   1  23
ATOM     23  C   UNL     1       5.487   5.541  -1.421  0.00  0.00    +0.146 C 
BRANCH  23  24
ATOM     24  N   UNL     1       6.315   4.861  -0.422  0.00  0.00    -0.291 N 
ATOM     25  C   UNL     1       5.743   4.047   0.487  0.00  0.00    +0.245 C 
ATOM     26  O   UNL     1       6.436   3.409   1.251  0.00  0.00    -0.273 OA
BRANCH  25  27
ATOM     27  C   UNL     1       4.242   3.930   0.554  0.00  0.00    +0.204 C 
ATOM     28  C   UNL     1       3.743   2.953  -0.529  0.00  0.00    +0.043 C 
ATOM     29  C   UNL     1       2.996   1.855   0.266  0.00  0.00    +0.031 C 
ATOM     30  C   UNL     1       2.679   2.578   1.600  0.00  0.00    +0.161 C 
ATOM     31  O   UNL     1       3.850   3.392   1.828  0.00  0.00    -0.367 OA
ENDBRANCH  25  27
BRANCH  24  32
ATOM     32  C   UNL     1       7.765   5.067  -0.411  0.00  0.00    +0.143 C 
BRANCH  32  38
ATOM     33  C   UNL     1       8.630   4.303  -2.631  0.00  0.00    +0.009 A 
ATOM     34  C   UNL     1       9.235   3.361  -3.442  0.00  0.00    +0.050 A 
ATOM     35  C   UNL     1       9.639   2.147  -2.912  0.00  0.00    +0.166 A 
ATOM     36  C   UNL     1       9.432   1.878  -1.561  0.00  0.00    +0.167 A 
ATOM     37  C   UNL     1       8.825   2.826  -0.755  0.00  0.00    +0.054 A 
ATOM     38  C   UNL     1       8.425   4.036  -1.290  0.00  0.00    -0.026 A 
ATOM     39  O   UNL     1       9.912   0.629  -1.287  0.00  0.00    -0.453 OA
ATOM     40  C   UNL     1      10.779   0.300  -2.388  0.00  0.00    +0.466 C 
ATOM     41  O   UNL     1      10.247   1.067  -3.484  0.00  0.00    -0.453 OA
ENDBRANCH  32  38
ENDBRANCH  24  32
ENDBRANCH  23  24
ENDBRANCH   1  23
TORSDOF 7
