REMARK  Name = ZINC19826113
REMARK  9 active torsions:
REMARK  status: ('A' for Active; 'I' for Inactive)
REMARK    1  A    between atoms: C_1  and  C_2
REMARK    2  A    between atoms: C_5  and  N_8
REMARK    3  A    between atoms: C_9  and  C_31
REMARK    4  A    between atoms: C_12  and  S_13
REMARK    5  A    between atoms: S_13  and  C_14
REMARK    6  A    between atoms: C_14  and  C_15
REMARK    7  A    between atoms: N_17  and  N_18
REMARK    8  A    between atoms: C_19  and  C_20
REMARK    9  A    between atoms: C_19  and  C_21
REMARK                            x       y       z     vdW  Elec       q    Type
REMARK                         _______ _______ _______ _____ _____    ______ ____
ROOT
ATOM      1  S   UNL     1       2.252  -4.555  -0.044  0.00  0.00    -0.076 S 
ENDROOT
BRANCH   1   6
ATOM      2  N   UNL     1       4.302  -6.461  -0.068  0.00  0.00    -0.270 N 
ATOM      3  C   UNL     1       5.679  -6.436  -0.086  0.00  0.00    +0.169 A 
ATOM      4  N   UNL     1       6.041  -5.174  -0.082  0.00  0.00    -0.128 NA
ATOM      5  N   UNL     1       5.002  -4.418  -0.069  0.00  0.00    -0.122 NA
ATOM      6  C   UNL     1       3.910  -5.151  -0.063  0.00  0.00    +0.197 A 
BRANCH   2  11
ATOM      7  C   UNL     1       0.956 -11.045  -0.034  0.00  0.00    +0.044 C 
ATOM      8  C   UNL     1       1.844  -9.828  -0.043  0.00  0.00    -0.050 A 
ATOM      9  C   UNL     1       1.830  -8.971  -1.128  0.00  0.00    +0.005 A 
ATOM     10  C   UNL     1       2.643  -7.855  -1.139  0.00  0.00    +0.026 A 
ATOM     11  C   UNL     1       3.475  -7.593  -0.059  0.00  0.00    +0.051 A 
ATOM     12  C   UNL     1       3.491  -8.458   1.026  0.00  0.00    +0.026 A 
ATOM     13  C   UNL     1       2.672  -9.570   1.034  0.00  0.00    +0.005 A 
ENDBRANCH   2  11
BRANCH   3  14
ATOM     14  C   UNL     1       6.580  -7.608  -0.100  0.00  0.00    +0.020 A 
ATOM     15  C   UNL     1       6.078  -8.873  -0.408  0.00  0.00    +0.011 A 
ATOM     16  C   UNL     1       6.925  -9.962  -0.424  0.00  0.00    +0.001 A 
ATOM     17  C   UNL     1       8.267  -9.804  -0.125  0.00  0.00    +0.000 A 
ATOM     18  C   UNL     1       8.769  -8.553   0.187  0.00  0.00    +0.001 A 
ATOM     19  C   UNL     1       7.934  -7.455   0.201  0.00  0.00    +0.011 A 
ENDBRANCH   3  14
ENDBRANCH   1   6
BRANCH   1  20
ATOM     20  C   UNL     1       2.558  -2.771  -0.037  0.00  0.00    +0.174 C 
BRANCH  20  21
ATOM     21  C   UNL     1       1.243  -2.036  -0.021  0.00  0.00    +0.242 C 
ATOM     22  O   UNL     1       0.201  -2.656  -0.014  0.00  0.00    -0.273 OA
ATOM     23  N   UNL     1       1.225  -0.688  -0.013  0.00  0.00    -0.206 N 
ATOM     24  H   UNL     1       2.170  -0.125  -0.019  0.00  0.00    +0.177 HD
BRANCH  23  25
ATOM     25  N   UNL     1       0.002  -0.004   0.002  0.00  0.00    -0.185 NA
ATOM     26  C   UNL     1      -0.015   1.294   0.009  0.00  0.00    +0.063 C 
ATOM     27  C   UNL     1       1.279   2.065   0.001  0.00  0.00    +0.068 C 
BRANCH  26  28
ATOM     28  C   UNL     1      -1.302   2.013   0.019  0.00  0.00    -0.002 A 
ATOM     29  C   UNL     1      -1.315   3.421   0.027  0.00  0.00    +0.010 A 
ATOM     30  C   UNL     1      -2.487   4.105   0.036  0.00  0.00    +0.009 A 
ATOM     31  C   UNL     1      -3.710   3.409   0.037  0.00  0.00    -0.018 A 
ATOM     32  C   UNL     1      -4.935   4.096   0.046  0.00  0.00    +0.008 A 
ATOM     33  C   UNL     1      -6.102   3.396   0.046  0.00  0.00    +0.001 A 
ATOM     34  C   UNL     1      -6.103   2.002   0.039  0.00  0.00    +0.001 A 
ATOM     35  C   UNL     1      -4.936   1.301   0.031  0.00  0.00    +0.008 A 
ATOM     36  C   UNL     1      -3.710   1.991   0.029  0.00  0.00    -0.017 A 
ATOM     37  C   UNL     1      -2.490   1.299   0.015  0.00  0.00    +0.018 A 
ENDBRANCH  26  28
ENDBRANCH  23  25
ENDBRANCH  20  21
ENDBRANCH   1  20
TORSDOF 7
