REMARK  Name = ZINC12069976
REMARK  6 active torsions:
REMARK  status: ('A' for Active; 'I' for Inactive)
REMARK    1  A    between atoms: C_1  and  N_2
REMARK    2  A    between atoms: C_4  and  C_20
REMARK    3  A    between atoms: N_9  and  C_14
REMARK    4  A    between atoms: N_22  and  C_23
REMARK    5  A    between atoms: C_23  and  C_24
REMARK    6  A    between atoms: C_24  and  C_25
REMARK                            x       y       z     vdW  Elec       q    Type
REMARK                         _______ _______ _______ _____ _____    ______ ____
ROOT
ATOM      1  C   UNL     1      -7.894  -3.960  -1.069  0.00  0.00    +0.149 C 
ATOM      2  N   UNL     1      -6.721  -3.727  -1.915  0.00  0.00    -0.344 N 
ATOM      3  C   UNL     1      -5.561  -3.189  -1.504  0.00  0.00    +0.101 A 
ATOM      4  C   UNL     1      -4.691  -3.126  -2.575  0.00  0.00    +0.078 A 
ATOM      5  C   UNL     1      -5.373  -3.654  -3.697  0.00  0.00    +0.086 A 
ATOM      6  C   UNL     1      -6.635  -4.027  -3.260  0.00  0.00    +0.132 A 
ATOM      7  C   UNL     1      -7.537  -4.596  -4.190  0.00  0.00    +0.285 A 
ATOM      8  O   UNL     1      -8.654  -4.929  -3.839  0.00  0.00    -0.265 OA
ATOM      9  N   UNL     1      -7.146  -4.765  -5.469  0.00  0.00    -0.227 N 
ATOM     10  C   UNL     1      -5.917  -4.402  -5.874  0.00  0.00    +0.334 A 
ATOM     11  O   UNL     1      -5.600  -4.569  -7.036  0.00  0.00    -0.246 OA
ATOM     12  N   UNL     1      -5.028  -3.857  -5.021  0.00  0.00    -0.305 N 
ATOM     13  H   UNL     1      -4.146  -3.603  -5.337  0.00  0.00    +0.170 HD
ENDROOT
BRANCH   9  14
ATOM     14  C   UNL     1      -8.037  -5.328  -6.393  0.00  0.00    +0.054 A 
ATOM     15  C   UNL     1      -8.893  -4.512  -7.120  0.00  0.00    +0.026 A 
ATOM     16  C   UNL     1      -9.767  -5.070  -8.033  0.00  0.00    +0.002 A 
ATOM     17  C   UNL     1      -9.796  -6.440  -8.216  0.00  0.00    +0.000 A 
ATOM     18  C   UNL     1      -8.948  -7.256  -7.489  0.00  0.00    +0.002 A 
ATOM     19  C   UNL     1      -8.069  -6.704  -6.579  0.00  0.00    +0.026 A 
ENDBRANCH   9  14
BRANCH   4  20
ATOM     20  C   UNL     1      -3.315  -2.603  -2.555  0.00  0.00    +0.248 C 
ATOM     21  O   UNL     1      -2.649  -2.603  -3.572  0.00  0.00    -0.270 OA
ATOM     22  N   UNL     1      -2.793  -2.123  -1.408  0.00  0.00    -0.311 N 
ATOM     23  H   UNL     1      -3.325  -2.123  -0.597  0.00  0.00    +0.149 HD
BRANCH  22  24
ATOM     24  C   UNL     1      -1.424  -1.602  -1.388  0.00  0.00    +0.109 C 
BRANCH  24  25
ATOM     25  C   UNL     1      -1.081  -1.124   0.024  0.00  0.00    +0.056 C 
BRANCH  25  26
ATOM     26  C   UNL     1       0.327  -0.588   0.045  0.00  0.00    -0.021 A 
ATOM     27  C   UNL     1       1.434  -1.265   0.390  0.00  0.00    +0.087 A 
ATOM     28  N   UNL     1       2.529  -0.451   0.288  0.00  0.00    -0.360 N 
ATOM     29  H   UNL     1       3.441  -0.717   0.486  0.00  0.00    +0.165 HD
ATOM     30  C   UNL     1       2.144   0.801  -0.136  0.00  0.00    +0.047 A 
ATOM     31  C   UNL     1       0.748   0.770  -0.307  0.00  0.00    +0.003 A 
ATOM     32  C   UNL     1       0.073   1.915  -0.732  0.00  0.00    +0.010 A 
ATOM     33  C   UNL     1       0.774   3.060  -0.989  0.00  0.00    +0.001 A 
ATOM     34  C   UNL     1       2.151   3.096  -0.821  0.00  0.00    +0.002 A 
ATOM     35  C   UNL     1       2.837   1.978  -0.399  0.00  0.00    +0.026 A 
ENDBRANCH  25  26
ENDBRANCH  24  25
ENDBRANCH  22  24
ENDBRANCH   4  20
TORSDOF 5
