REMARK  Name = ZINC22785923
REMARK  6 active torsions:
REMARK  status: ('A' for Active; 'I' for Inactive)
REMARK    1  A    between atoms: C_4  and  C_7
REMARK    2  A    between atoms: C_7  and  C_8
REMARK    3  A    between atoms: C_7  and  N_14
REMARK    4  A    between atoms: N_17  and  C_20
REMARK    5  A    between atoms: C_20  and  C_21
REMARK    6  A    between atoms: N_23  and  N_24
REMARK                            x       y       z     vdW  Elec       q    Type
REMARK                         _______ _______ _______ _____ _____    ______ ____
ROOT
ATOM      1  N   UNL     1      -0.563   1.681  -1.162  0.00  0.00    -0.295 NA
ATOM      2  C   UNL     1       0.119   1.092  -0.001  0.00  0.00    +0.067 C 
ATOM      3  C   UNL     1      -0.437   1.712   1.283  0.00  0.00    -0.063 C 
ATOM      4  N   UNL     1      -0.244   3.168   1.245  0.00  0.00    +0.387 N 
ATOM      5  C   UNL     1      -0.925   3.757   0.084  0.00  0.00    -0.063 C 
ATOM      6  C   UNL     1      -0.369   3.137  -1.200  0.00  0.00    +0.067 C 
ATOM      7  H   UNL     1       0.834   3.365   1.142  0.00  0.00    -0.081 HD
ENDROOT
BRANCH   1   8
ATOM      8  C   UNL     1      -0.109   1.057  -2.412  0.00  0.00    +0.117 C 
BRANCH   8  12
ATOM      9  C   UNL     1      -0.785  -3.157  -2.226  0.00  0.00    +0.000 A 
ATOM     10  C   UNL     1       0.412  -2.670  -2.716  0.00  0.00    +0.000 A 
ATOM     11  C   UNL     1       0.631  -1.307  -2.776  0.00  0.00    +0.005 A 
ATOM     12  C   UNL     1      -0.347  -0.430  -2.346  0.00  0.00    -0.026 A 
ATOM     13  C   UNL     1      -1.542  -0.917  -1.851  0.00  0.00    +0.005 A 
ATOM     14  C   UNL     1      -1.763  -2.280  -1.795  0.00  0.00    +0.000 A 
ENDBRANCH   8  12
BRANCH   8  15
ATOM     15  C   UNL     1      -0.876   1.638  -3.571  0.00  0.00    -0.026 A 
ATOM     16  C   UNL     1      -2.244   1.810  -3.478  0.00  0.00    +0.005 A 
ATOM     17  C   UNL     1      -2.947   2.348  -4.540  0.00  0.00    +0.000 A 
ATOM     18  C   UNL     1      -2.284   2.704  -5.699  0.00  0.00    +0.000 A 
ATOM     19  C   UNL     1      -0.916   2.527  -5.794  0.00  0.00    +0.000 A 
ATOM     20  C   UNL     1      -0.212   1.994  -4.730  0.00  0.00    +0.005 A 
ENDBRANCH   8  15
ENDBRANCH   1   8
BRANCH   4  21
ATOM     21  C   UNL     1      -0.698   3.792   2.495  0.00  0.00    +0.020 C 
BRANCH  21  22
ATOM     22  C   UNL     1       0.187   3.345   3.630  0.00  0.00    +0.213 C 
ATOM     23  O   UNL     1       1.105   2.582   3.418  0.00  0.00    -0.276 OA
ATOM     24  N   UNL     1      -0.042   3.794   4.880  0.00  0.00    -0.225 N 
ATOM     25  H   UNL     1      -0.875   4.486   5.072  0.00  0.00    +0.173 HD
BRANCH  24  26
ATOM     26  N   UNL     1       0.780   3.379   5.935  0.00  0.00    -0.137 N 
ATOM     27  C   UNL     1       1.726   4.152   6.510  0.00  0.00    +0.263 C 
ATOM     28  O   UNL     1       2.014   5.294   6.223  0.00  0.00    -0.271 OA
ATOM     29  C   UNL     1       2.349   3.293   7.587  0.00  0.00    +0.114 C 
ATOM     30  C   UNL     1       2.141   3.928   8.957  0.00  0.00    +0.035 C 
ATOM     31  C   UNL     1       2.755   3.031  10.036  0.00  0.00    +0.003 C 
ATOM     32  C   UNL     1       4.249   2.852   9.759  0.00  0.00    +0.000 C 
ATOM     33  C   UNL     1       4.440   2.192   8.392  0.00  0.00    +0.003 C 
ATOM     34  C   UNL     1       3.833   3.086   7.307  0.00  0.00    +0.035 C 
ATOM     35  N   UNL     1       1.624   2.020   7.492  0.00  0.00    -0.284 N 
ATOM     36  C   UNL     1       0.723   2.167   6.503  0.00  0.00    +0.326 C 
ATOM     37  O   UNL     1      -0.054   1.297   6.160  0.00  0.00    -0.251 OA
ATOM     38  H   UNL     1       1.878   1.191   8.169  0.00  0.00    +0.151 HD
ENDBRANCH  24  26
ENDBRANCH  21  22
ENDBRANCH   4  21
TORSDOF 6
