REMARK  Name = ZINC02660454
REMARK  11 active torsions:
REMARK  status: ('A' for Active; 'I' for Inactive)
REMARK    1  A    between atoms: C_1  and  C_2
REMARK    2  A    between atoms: C_4  and  C_8
REMARK    3  A    between atoms: C_5  and  C_7
REMARK    4  A    between atoms: N_10  and  N_11
REMARK    5  A    between atoms: C_12  and  C_14
REMARK    6  A    between atoms: C_16  and  S_21
REMARK    7  A    between atoms: S_21  and  N_24
REMARK    8  A    between atoms: N_24  and  C_25
REMARK    9  A    between atoms: C_27  and  N_33
REMARK   10  A    between atoms: C_30  and  O_31
REMARK   11  A    between atoms: O_31  and  C_32
REMARK                            x       y       z     vdW  Elec       q    Type
REMARK                         _______ _______ _______ _____ _____    ______ ____
ROOT
ATOM      1  C   UNL     1       1.399   2.175   0.216  0.00  0.00    +0.075 A 
ATOM      2  C   UNL     1       2.585   1.443   0.120  0.00  0.00    +0.044 A 
ATOM      3  C   UNL     1       2.542   0.066   0.104  0.00  0.00    +0.109 A 
ATOM      4  C   UNL     1       1.328  -0.595   0.182  0.00  0.00    +0.031 A 
ATOM      5  C   UNL     1       0.149   0.120   0.277  0.00  0.00    +0.041 A 
ATOM      6  C   UNL     1       0.175   1.502   0.294  0.00  0.00    +0.136 A 
ATOM      7  F   UNL     1      -0.978   2.201   0.381  0.00  0.00    -0.205 F 
ENDROOT
BRANCH   1   9
ATOM      8  N   UNL     1       2.618   4.296   0.158  0.00  0.00    -0.230 N 
ATOM      9  C   UNL     1       1.437   3.651   0.233  0.00  0.00    +0.263 C 
ATOM     10  O   UNL     1       0.403   4.285   0.317  0.00  0.00    -0.269 OA
ATOM     11  H   UNL     1       3.443   3.790   0.091  0.00  0.00    +0.173 HD
BRANCH   8  14
ATOM     12  C   UNL     1       3.835   6.341   0.099  0.00  0.00    +0.263 C 
ATOM     13  O   UNL     1       4.870   5.707   0.016  0.00  0.00    -0.269 OA
ATOM     14  N   UNL     1       2.654   5.696   0.175  0.00  0.00    -0.230 N 
ATOM     15  H   UNL     1       1.829   6.202   0.241  0.00  0.00    +0.173 HD
BRANCH  12  19
ATOM     16  C   UNL     1       2.452  11.249   0.267  0.00  0.00    +0.086 C 
ATOM     17  C   UNL     1       3.245   9.970   0.192  0.00  0.00    +0.103 A 
ATOM     18  C   UNL     1       2.728   8.732   0.205  0.00  0.00    +0.057 A 
ATOM     19  C   UNL     1       3.873   7.814   0.117  0.00  0.00    +0.079 A 
ATOM     20  C   UNL     1       4.978   8.611   0.049  0.00  0.00    +0.114 A 
ATOM     21  O   UNL     1       4.581   9.887   0.095  0.00  0.00    -0.464 OA
ATOM     22  C   UNL     1       6.404   8.135  -0.060  0.00  0.00    +0.087 C 
ENDBRANCH  12  19
ENDBRANCH   8  14
ENDBRANCH   1   9
BRANCH   3  23
ATOM     23  S   UNL     1       4.038  -0.858  -0.015  0.00  0.00    +0.072 S 
ATOM     24  O   UNL     1       5.074  -0.017   0.474  0.00  0.00    -0.150 OA
ATOM     25  O   UNL     1       3.771  -2.139   0.538  0.00  0.00    -0.150 OA
BRANCH  23  26
ATOM     26  N   UNL     1       4.341  -1.093  -1.627  0.00  0.00    -0.213 N 
ATOM     27  H   UNL     1       4.386  -1.993  -1.985  0.00  0.00    +0.174 HD
BRANCH  26  28
ATOM     28  C   UNL     1       4.532   0.007  -2.471  0.00  0.00    +0.092 A 
ATOM     29  C   UNL     1       5.183   1.139  -2.002  0.00  0.00    +0.061 A 
ATOM     30  C   UNL     1       5.371   2.224  -2.837  0.00  0.00    +0.128 A 
ATOM     31  C   UNL     1       4.910   2.185  -4.141  0.00  0.00    +0.036 A 
ATOM     32  C   UNL     1       4.260   1.060  -4.615  0.00  0.00    +0.050 A 
ATOM     33  C   UNL     1       4.073  -0.033  -3.785  0.00  0.00    +0.142 A 
BRANCH  30  34
ATOM     34  N   UNL     1       6.067   3.430  -2.336  0.00  0.00    +0.056 N 
ATOM     35  O   UNL     1       6.473   3.466  -1.189  0.00  0.00    -0.126 OA
ATOM     36  O   UNL     1       6.233   4.387  -3.071  0.00  0.00    -0.126 OA
ENDBRANCH  30  34
BRANCH  33  37
ATOM     37  O   UNL     1       3.438  -1.142  -4.252  0.00  0.00    -0.493 OA
ATOM     38  C   UNL     1       2.995  -1.112  -5.610  0.00  0.00    +0.277 C 
ENDBRANCH  33  37
ENDBRANCH  26  28
ENDBRANCH  23  26
ENDBRANCH   3  23
TORSDOF 8
