REMARK  Name = ZINC09562422
REMARK  7 active torsions:
REMARK  status: ('A' for Active; 'I' for Inactive)
REMARK    1  A    between atoms: C_1  and  N_2
REMARK    2  A    between atoms: N_2  and  C_3
REMARK    3  A    between atoms: N_2  and  S_4
REMARK    4  A    between atoms: S_4  and  C_7
REMARK    5  A    between atoms: C_11  and  N_13
REMARK    6  A    between atoms: C_14  and  C_16
REMARK    7  A    between atoms: C_16  and  N_17
REMARK                            x       y       z     vdW  Elec       q    Type
REMARK                         _______ _______ _______ _____ _____    ______ ____
ROOT
ATOM      1  C   UNL     1       6.325  -5.041  -1.556  0.00  0.00    +0.214 C 
ENDROOT
BRANCH   1   2
ATOM      2  N   UNL     1       7.664  -5.046  -2.150  0.00  0.00    -0.215 N 
ATOM      3  C   UNL     1       7.945  -5.516  -3.384  0.00  0.00    +0.247 C 
ATOM      4  O   UNL     1       7.168  -5.994  -4.182  0.00  0.00    -0.273 OA
ATOM      5  C   UNL     1       9.432  -5.319  -3.561  0.00  0.00    +0.117 C 
ATOM      6  C   UNL     1      10.128  -6.662  -3.766  0.00  0.00    +0.040 C 
ATOM      7  C   UNL     1       9.453  -7.387  -4.928  0.00  0.00    +0.038 C 
ATOM      8  C   UNL     1       9.350  -6.484  -6.130  0.00  0.00    -0.044 A 
ATOM      9  C   UNL     1       9.130  -7.079  -7.366  0.00  0.00    +0.004 A 
ATOM     10  C   UNL     1       9.021  -6.309  -8.505  0.00  0.00    +0.000 A 
ATOM     11  C   UNL     1       9.128  -4.933  -8.417  0.00  0.00    +0.000 A 
ATOM     12  C   UNL     1       9.348  -4.341  -7.191  0.00  0.00    +0.004 A 
ATOM     13  C   UNL     1       9.463  -5.115  -6.043  0.00  0.00    -0.042 A 
ATOM     14  C   UNL     1       9.721  -4.403  -4.740  0.00  0.00    +0.070 C 
ATOM     15  N   UNL     1       9.865  -4.702  -2.301  0.00  0.00    -0.285 N 
ATOM     16  C   UNL     1       8.760  -4.579  -1.539  0.00  0.00    +0.310 C 
ATOM     17  O   UNL     1       8.759  -4.101  -0.422  0.00  0.00    -0.252 OA
ATOM     18  H   UNL     1      10.766  -4.434  -2.064  0.00  0.00    +0.151 HD
ENDBRANCH   1   2
BRANCH   1  20
ATOM     19  N   UNL     1       4.373  -3.525  -1.462  0.00  0.00    -0.284 N 
ATOM     20  C   UNL     1       5.626  -3.752  -1.904  0.00  0.00    +0.235 C 
ATOM     21  O   UNL     1       6.190  -2.920  -2.581  0.00  0.00    -0.274 OA
ATOM     22  H   UNL     1       3.950  -4.155  -0.858  0.00  0.00    +0.155 HD
BRANCH  19  27
ATOM     23  C   UNL     1       2.109  -0.629  -1.423  0.00  0.00    +0.107 A 
ATOM     24  C   UNL     1       2.317  -0.117  -2.691  0.00  0.00    +0.028 A 
ATOM     25  C   UNL     1       3.205  -0.734  -3.551  0.00  0.00    +0.004 A 
ATOM     26  C   UNL     1       3.889  -1.864  -3.147  0.00  0.00    +0.023 A 
ATOM     27  C   UNL     1       3.683  -2.380  -1.874  0.00  0.00    +0.035 A 
ATOM     28  C   UNL     1       2.793  -1.755  -1.010  0.00  0.00    +0.051 A 
BRANCH  23  29
ATOM     29  S   UNL     1       0.975   0.162  -0.329  0.00  0.00    +0.060 S 
ATOM     30  O   UNL     1       0.557  -0.824   0.605  0.00  0.00    -0.153 OA
ATOM     31  O   UNL     1       0.057   0.877  -1.144  0.00  0.00    -0.153 OA
BRANCH  29  33
ATOM     32  C   UNL     1       1.951   2.660   0.015  0.00  0.00    +0.131 C 
ATOM     33  N   UNL     1       1.829   1.293   0.527  0.00  0.00    -0.183 NA
ATOM     34  C   UNL     1       2.461   0.927   1.797  0.00  0.00    +0.131 C 
ENDBRANCH  29  33
ENDBRANCH  23  29
ENDBRANCH  19  27
ENDBRANCH   1  20
TORSDOF 5
