REMARK  Name = ZINC08660761
REMARK  7 active torsions:
REMARK  status: ('A' for Active; 'I' for Inactive)
REMARK    1  A    between atoms: C_1  and  C_2
REMARK    2  A    between atoms: C_2  and  C_4
REMARK    3  A    between atoms: C_2  and  N_22
REMARK    4  A    between atoms: N_6  and  C_7
REMARK    5  A    between atoms: C_10  and  S_13
REMARK    6  A    between atoms: S_13  and  N_16
REMARK    7  A    between atoms: C_23  and  C_25
REMARK                            x       y       z     vdW  Elec       q    Type
REMARK                         _______ _______ _______ _____ _____    ______ ____
ROOT
ATOM      1  C   UNL     1      -3.309   7.750  -1.752  0.00  0.00    +0.237 C 
ATOM      2  O   UNL     1      -4.054   6.954  -2.285  0.00  0.00    -0.273 OA
ATOM      3  N   UNL     1      -3.531   9.073  -1.883  0.00  0.00    -0.284 N 
ATOM      4  H   UNL     1      -2.977   9.707  -1.403  0.00  0.00    +0.155 HD
ENDROOT
BRANCH   3   5
ATOM      5  C   UNL     1      -4.562   9.530  -2.711  0.00  0.00    +0.034 A 
ATOM      6  C   UNL     1      -4.408  10.711  -3.426  0.00  0.00    +0.025 A 
ATOM      7  C   UNL     1      -5.425  11.157  -4.247  0.00  0.00    +0.030 A 
ATOM      8  C   UNL     1      -6.600  10.436  -4.349  0.00  0.00    +0.109 A 
ATOM      9  C   UNL     1      -6.759   9.263  -3.633  0.00  0.00    +0.030 A 
ATOM     10  C   UNL     1      -5.744   8.809  -2.815  0.00  0.00    +0.025 A 
BRANCH   8  11
ATOM     11  S   UNL     1      -7.898  11.013  -5.391  0.00  0.00    +0.074 S 
ATOM     12  O   UNL     1      -7.293  11.845  -6.372  0.00  0.00    -0.150 OA
ATOM     13  O   UNL     1      -8.680   9.877  -5.734  0.00  0.00    -0.150 OA
BRANCH  11  14
ATOM     14  N   UNL     1      -8.866  11.993  -4.472  0.00  0.00    -0.194 N 
ATOM     15  C   UNL     1      -8.365  13.182  -3.964  0.00  0.00    +0.177 A 
ATOM     16  N   UNL     1      -7.158  13.697  -4.097  0.00  0.00    -0.232 NA
ATOM     17  C   UNL     1      -6.845  14.855  -3.545  0.00  0.00    +0.120 A 
ATOM     18  C   UNL     1      -7.791  15.504  -2.826  0.00  0.00    +0.068 A 
ATOM     19  S   UNL     1      -9.165  14.372  -2.984  0.00  0.00    -0.059 S 
ATOM     20  H   UNL     1      -9.783  11.735  -4.288  0.00  0.00    +0.176 HD
ENDBRANCH  11  14
ENDBRANCH   8  11
ENDBRANCH   3   5
BRANCH   1  22
ATOM     21  C   UNL     1      -0.838   7.793  -1.553  0.00  0.00    +0.038 C 
ATOM     22  C   UNL     1      -2.136   7.259  -0.944  0.00  0.00    +0.156 C 
BRANCH  22  23
ATOM     23  N   UNL     1      -2.114   5.794  -0.955  0.00  0.00    -0.304 N 
ATOM     24  C   UNL     1      -1.517   5.122   0.049  0.00  0.00    +0.220 C 
ATOM     25  O   UNL     1      -0.999   5.729   0.962  0.00  0.00    -0.275 OA
ATOM     26  H   UNL     1      -2.528   5.308  -1.685  0.00  0.00    +0.149 HD
BRANCH  24  27
ATOM     27  C   UNL     1      -1.494   3.615   0.038  0.00  0.00    +0.048 C 
ATOM     28  C   UNL     1      -0.769   3.125  -1.217  0.00  0.00    +0.019 C 
ATOM     29  C   UNL     1      -0.746   1.595  -1.229  0.00  0.00    -0.009 C 
ATOM     30  C   UNL     1      -0.013   1.087   0.015  0.00  0.00    +0.007 C 
ATOM     31  C   UNL     1      -0.739   1.577   1.270  0.00  0.00    -0.009 C 
ATOM     32  C   UNL     1      -0.762   3.106   1.281  0.00  0.00    +0.019 C 
ATOM     33  C   UNL     1      -2.173   1.045   1.269  0.00  0.00    +0.007 C 
ATOM     34  C   UNL     1      -2.906   1.553   0.026  0.00  0.00    -0.009 C 
ATOM     35  C   UNL     1      -2.180   1.064  -1.229  0.00  0.00    +0.007 C 
ATOM     36  C   UNL     1      -2.929   3.083   0.038  0.00  0.00    +0.019 C 
ENDBRANCH  24  27
ENDBRANCH  22  23
ENDBRANCH   1  22
TORSDOF 6
