REMARK  Name = ZINC20685173
REMARK  6 active torsions:
REMARK  status: ('A' for Active; 'I' for Inactive)
REMARK    1  A    between atoms: C_1  and  C_2
REMARK    2  A    between atoms: C_2  and  N_3
REMARK    3  A    between atoms: C_14  and  C_16
REMARK    4  A    between atoms: C_29  and  C_32
REMARK    5  A    between atoms: C_32  and  C_33
REMARK    6  A    between atoms: C_32  and  C_34
REMARK                            x       y       z     vdW  Elec       q    Type
REMARK                         _______ _______ _______ _____ _____    ______ ____
ROOT
ATOM      1  C   UNL     1      -5.296  -1.363   0.022  0.00  0.00    +0.105 C 
ATOM      2  C   UNL     1      -5.913  -1.631  -1.335  0.00  0.00    +0.029 C 
ATOM      3  C   UNL     1      -4.998  -1.578  -2.564  0.00  0.00    +0.033 C 
ATOM      4  C   UNL     1      -5.978  -1.135  -3.654  0.00  0.00    -0.030 C 
ATOM      5  C   UNL     1      -6.980  -0.452  -3.111  0.00  0.00    -0.023 C 
ATOM      6  C   UNL     1      -6.743  -0.348  -1.651  0.00  0.00    +0.049 C 
ATOM      7  C   UNL     1      -7.844  -0.300  -0.664  0.00  0.00    -0.019 A 
ATOM      8  C   UNL     1      -9.075   0.238  -0.976  0.00  0.00    +0.006 A 
ATOM      9  C   UNL     1     -10.073   0.304  -0.023  0.00  0.00    +0.001 A 
ATOM     10  C   UNL     1      -9.835  -0.175   1.252  0.00  0.00    +0.006 A 
ATOM     11  C   UNL     1      -8.611  -0.722   1.570  0.00  0.00    -0.024 A 
ATOM     12  C   UNL     1      -7.594  -0.801   0.616  0.00  0.00    +0.035 A 
ATOM     13  N   UNL     1      -6.390  -1.383   1.006  0.00  0.00    -0.336 N 
ATOM     14  H   UNL     1      -6.233  -1.843   1.993  0.00  0.00    +0.147 HD
ENDROOT
BRANCH   1  26
ATOM     15  N   UNL     1      -3.010   3.801   0.110  0.00  0.00    -0.340 N 
ATOM     16  C   UNL     1      -4.060   4.554   0.606  0.00  0.00    +0.050 A 
ATOM     17  C   UNL     1      -4.190   5.910   0.888  0.00  0.00    +0.026 A 
ATOM     18  C   UNL     1      -5.378   6.401   1.385  0.00  0.00    +0.002 A 
ATOM     19  C   UNL     1      -6.452   5.554   1.610  0.00  0.00    +0.001 A 
ATOM     20  C   UNL     1      -6.343   4.208   1.336  0.00  0.00    +0.010 A 
ATOM     21  C   UNL     1      -5.147   3.697   0.838  0.00  0.00    +0.008 A 
ATOM     22  C   UNL     1      -4.703   2.345   0.455  0.00  0.00    +0.008 A 
ATOM     23  C   UNL     1      -3.375   2.470   0.020  0.00  0.00    +0.050 A 
ATOM     24  C   UNL     1      -2.689   1.338  -0.409  0.00  0.00    +0.027 A 
ATOM     25  C   UNL     1      -3.315   0.109  -0.405  0.00  0.00    +0.007 A 
ATOM     26  C   UNL     1      -4.627  -0.013   0.025  0.00  0.00    -0.026 A 
ATOM     27  C   UNL     1      -5.322   1.097   0.454  0.00  0.00    +0.016 A 
BRANCH  15  29
ATOM     28  C   UNL     1      -0.771   4.286   0.966  0.00  0.00    +0.027 C 
ATOM     29  C   UNL     1      -1.695   4.336  -0.252  0.00  0.00    +0.119 C 
ENDBRANCH  15  29
ENDBRANCH   1  26
BRANCH  11  30
ATOM     30  C   UNL     1      -8.368  -1.242   2.963  0.00  0.00    +0.015 C 
ATOM     31  C   UNL     1      -8.542  -0.104   3.970  0.00  0.00    +0.012 C 
ATOM     32  C   UNL     1      -9.370  -2.356   3.274  0.00  0.00    +0.012 C 
ENDBRANCH  11  30
TORSDOF 3
