REMARK  Name = ZINC63374733
REMARK  6 active torsions:
REMARK  status: ('A' for Active; 'I' for Inactive)
REMARK    1  A    between atoms: C_1  and  O_2
REMARK    2  A    between atoms: O_2  and  C_3
REMARK    3  A    between atoms: C_8  and  C_9
REMARK    4  A    between atoms: C_9  and  N_10
REMARK    5  A    between atoms: C_15  and  C_32
REMARK    6  A    between atoms: C_32  and  C_33
REMARK                            x       y       z     vdW  Elec       q    Type
REMARK                         _______ _______ _______ _____ _____    ______ ____
ROOT
ATOM      1  N   UNL     1      -1.398  -2.912  -0.233  0.00  0.00    -0.237 N 
ATOM      2  C   UNL     1      -2.253  -2.027   0.292  0.00  0.00    +0.227 C 
ATOM      3  O   UNL     1      -1.944  -1.075   0.976  0.00  0.00    -0.275 OA
ATOM      4  C   UNL     1      -3.666  -2.400  -0.100  0.00  0.00    +0.107 C 
ATOM      5  C   UNL     1      -4.432  -2.865   1.157  0.00  0.00    +0.072 C 
ATOM      6  N   UNL     1      -5.130  -4.109   0.738  0.00  0.00    -0.295 NA
ATOM      7  C   UNL     1      -4.159  -4.792  -0.137  0.00  0.00    +0.136 C 
ATOM      8  C   UNL     1      -3.472  -3.677  -0.964  0.00  0.00    +0.122 C 
ATOM      9  C   UNL     1      -1.974  -3.877  -0.959  0.00  0.00    +0.229 C 
ATOM     10  O   UNL     1      -1.385  -4.774  -1.524  0.00  0.00    -0.275 OA
ATOM     11  C   UNL     1      -4.833  -5.797  -1.028  0.00  0.00    +0.003 A 
ATOM     12  C   UNL     1      -5.822  -5.705  -1.982  0.00  0.00    +0.008 A 
ATOM     13  C   UNL     1      -6.244  -6.839  -2.652  0.00  0.00    +0.000 A 
ATOM     14  C   UNL     1      -5.671  -8.064  -2.363  0.00  0.00    +0.002 A 
ATOM     15  C   UNL     1      -4.679  -8.160  -1.409  0.00  0.00    +0.023 A 
ATOM     16  C   UNL     1      -4.248  -7.023  -0.729  0.00  0.00    +0.039 A 
ATOM     17  N   UNL     1      -3.276  -6.866   0.262  0.00  0.00    -0.283 N 
ATOM     18  C   UNL     1      -3.163  -5.585   0.664  0.00  0.00    +0.243 C 
ATOM     19  O   UNL     1      -2.405  -5.155   1.507  0.00  0.00    -0.273 OA
ATOM     20  H   UNL     1      -5.362  -4.681   1.537  0.00  0.00    +0.124 HD
ATOM     21  H   UNL     1      -2.744  -7.595   0.619  0.00  0.00    +0.155 HD
ENDROOT
BRANCH   1  22
ATOM     22  C   UNL     1       0.051  -2.828  -0.033  0.00  0.00    +0.155 C 
BRANCH  22  28
ATOM     23  C   UNL     1       0.606  -0.607  -1.056  0.00  0.00    +0.125 A 
ATOM     24  C   UNL     1       1.173   0.161  -2.063  0.00  0.00    +0.046 A 
ATOM     25  C   UNL     1       1.786  -0.455  -3.136  0.00  0.00    +0.004 A 
ATOM     26  C   UNL     1       1.836  -1.835  -3.208  0.00  0.00    +0.001 A 
ATOM     27  C   UNL     1       1.271  -2.602  -2.207  0.00  0.00    +0.009 A 
ATOM     28  C   UNL     1       0.661  -1.991  -1.128  0.00  0.00    +0.012 A 
BRANCH  23  30
ATOM     29  C   UNL     1      -0.017   1.425   0.010  0.00  0.00    +0.277 C 
ATOM     30  O   UNL     1       0.002  -0.004   0.002  0.00  0.00    -0.495 OA
ENDBRANCH  23  30
ENDBRANCH  22  28
ENDBRANCH   1  22
BRANCH   5  31
ATOM     31  C   UNL     1      -5.445  -1.802   1.586  0.00  0.00    +0.052 C 
BRANCH  31  32
ATOM     32  C   UNL     1      -6.094  -2.221   2.881  0.00  0.00    -0.040 C 
ATOM     33  C   UNL     1      -5.729  -1.852   4.130  0.00  0.00    -0.001 A 
ATOM     34  C   UNL     1      -4.659  -0.986   4.638  0.00  0.00    +0.010 A 
ATOM     35  C   UNL     1      -4.540  -0.804   5.973  0.00  0.00    +0.001 A 
ATOM     36  C   UNL     1      -5.411  -1.422   6.881  0.00  0.00    +0.002 A 
ATOM     37  C   UNL     1      -6.418  -2.231   6.490  0.00  0.00    +0.026 A 
ATOM     38  C   UNL     1      -6.636  -2.492   5.109  0.00  0.00    +0.043 A 
ATOM     39  N   UNL     1      -7.527  -3.228   4.490  0.00  0.00    -0.380 N 
ATOM     40  C   UNL     1      -7.289  -3.133   3.045  0.00  0.00    +0.144 C 
ATOM     41  H   UNL     1      -8.228  -3.745   4.915  0.00  0.00    +0.160 HD
ENDBRANCH  31  32
ENDBRANCH   5  31
TORSDOF 5
