REMARK  Name = ZINC32071514
REMARK  3 active torsions:
REMARK  status: ('A' for Active; 'I' for Inactive)
REMARK    1  A    between atoms: C_4  and  C_7
REMARK    2  A    between atoms: C_11  and  C_12
REMARK    3  A    between atoms: C_17  and  O_19
REMARK                            x       y       z     vdW  Elec       q    Type
REMARK                         _______ _______ _______ _____ _____    ______ ____
ROOT
ATOM      1  C   UNL     1       3.696  -0.685  -0.038  0.00  0.00    +0.029 A 
ATOM      2  C   UNL     1       4.091  -1.473  -1.123  0.00  0.00    +0.087 A 
ATOM      3  C   UNL     1       5.326  -2.099  -1.013  0.00  0.00    +0.036 A 
ATOM      4  S   UNL     1       5.936  -1.652   0.468  0.00  0.00    -0.082 S 
ATOM      5  C   UNL     1       4.599  -0.612   1.028  0.00  0.00    +0.110 A 
ATOM      6  C   UNL     1       5.906  -2.983  -2.068  0.00  0.00    +0.115 C 
ATOM      7  C   UNL     1       4.758  -3.626  -2.849  0.00  0.00    +0.121 C 
ATOM      8  C   UNL     1       3.655  -2.636  -3.088  0.00  0.00    +0.189 C 
ATOM      9  N   UNL     1       3.353  -1.669  -2.287  0.00  0.00    -0.216 NA
ATOM     10  C   UNL     1       6.820  -2.230  -2.980  0.00  0.00    -0.006 A 
ATOM     11  C   UNL     1       6.598  -1.151  -3.810  0.00  0.00    +0.009 A 
ATOM     12  C   UNL     1       7.686  -0.680  -4.537  0.00  0.00    +0.039 A 
ATOM     13  C   UNL     1       8.932  -1.269  -4.430  0.00  0.00    +0.125 A 
ATOM     14  C   UNL     1       9.161  -2.356  -3.597  0.00  0.00    +0.062 A 
ATOM     15  C   UNL     1       8.077  -2.838  -2.863  0.00  0.00    +0.041 A 
ATOM     16  N   UNL     1       8.019  -3.893  -1.969  0.00  0.00    -0.284 N 
ATOM     17  C   UNL     1       6.781  -4.053  -1.454  0.00  0.00    +0.233 C 
ATOM     18  O   UNL     1       6.437  -4.895  -0.652  0.00  0.00    -0.274 OA
ATOM     19  F   UNL     1       9.956  -0.773  -5.157  0.00  0.00    -0.205 F 
ATOM     20  H   UNL     1       8.778  -4.451  -1.740  0.00  0.00    +0.155 HD
ENDROOT
BRANCH   1  24
ATOM     21  C   UNL     1      -0.017   1.379   0.010  0.00  0.00    +0.000 A 
ATOM     22  C   UNL     1       1.168   2.093   0.002  0.00  0.00    +0.001 A 
ATOM     23  C   UNL     1       2.377   1.429  -0.013  0.00  0.00    +0.008 A 
ATOM     24  C   UNL     1       2.403   0.034  -0.021  0.00  0.00    -0.015 A 
ATOM     25  C   UNL     1       1.204  -0.680  -0.013  0.00  0.00    +0.008 A 
ATOM     26  C   UNL     1       0.002  -0.004   0.002  0.00  0.00    +0.001 A 
ENDBRANCH   1  24
BRANCH   5  27
ATOM     27  C   UNL     1       4.480   0.102   2.243  0.00  0.00    +0.394 C 
ATOM     28  O   UNL     1       3.478   0.772   2.464  0.00  0.00    -0.240 OA
ATOM     29  O   UNL     1       5.379   0.051   3.074  0.00  0.00    -0.240 OA
ENDBRANCH   5  27
BRANCH   8  30
ATOM     30  O   UNL     1       2.927  -2.765  -4.218  0.00  0.00    -0.495 OA
ATOM     31  H   UNL     1       2.232  -2.101  -4.317  0.00  0.00    +0.293 HD
ENDBRANCH   8  30
TORSDOF 3
