REMARK  Name = ZINC35328023
REMARK  13 active torsions:
REMARK  status: ('A' for Active; 'I' for Inactive)
REMARK    1  A    between atoms: C_1  and  C_2
REMARK    2  A    between atoms: C_2  and  C_4
REMARK    3  A    between atoms: C_2  and  N_17
REMARK    4  A    between atoms: N_14  and  C_15
REMARK    5  A    between atoms: N_17  and  C_18
REMARK    6  A    between atoms: C_18  and  C_19
REMARK    7  A    between atoms: C_19  and  C_20
REMARK    8  A    between atoms: C_20  and  C_21
REMARK    9  A    between atoms: C_21  and  C_22
REMARK   10  A    between atoms: C_22  and  C_23
REMARK   11  A    between atoms: C_23  and  N_24
REMARK   12  A    between atoms: C_25  and  C_27
REMARK   13  A    between atoms: C_30  and  C_33
REMARK                            x       y       z     vdW  Elec       q    Type
REMARK                         _______ _______ _______ _____ _____    ______ ____
ROOT
ATOM      1  N   UNL     1      -0.600  -1.303   0.381  0.00  0.00    -0.288 N 
ATOM      2  C   UNL     1      -1.440  -1.246   1.434  0.00  0.00    +0.247 C 
ATOM      3  O   UNL     1      -2.275  -2.115   1.593  0.00  0.00    -0.270 OA
ENDROOT
BRANCH   2   4
ATOM      4  C   UNL     1      -1.345  -0.128   2.394  0.00  0.00    +0.037 A 
ATOM      5  C   UNL     1      -0.405   0.886   2.196  0.00  0.00    +0.013 A 
ATOM      6  C   UNL     1      -0.318   1.929   3.091  0.00  0.00    +0.009 A 
ATOM      7  C   UNL     1      -1.169   1.972   4.196  0.00  0.00    -0.018 A 
ATOM      8  C   UNL     1      -2.108   0.960   4.395  0.00  0.00    +0.009 A 
ATOM      9  C   UNL     1      -2.200  -0.080   3.498  0.00  0.00    +0.013 A 
BRANCH   7  10
ATOM     10  C   UNL     1      -1.074   3.095   5.160  0.00  0.00    -0.018 A 
ATOM     11  C   UNL     1      -0.141   4.111   4.961  0.00  0.00    +0.008 A 
ATOM     12  C   UNL     1      -0.058   5.154   5.861  0.00  0.00    +0.001 A 
ATOM     13  C   UNL     1      -0.899   5.193   6.958  0.00  0.00    +0.000 A 
ATOM     14  C   UNL     1      -1.827   4.188   7.161  0.00  0.00    +0.001 A 
ATOM     15  C   UNL     1      -1.923   3.142   6.265  0.00  0.00    +0.008 A 
ENDBRANCH   7  10
ENDBRANCH   2   4
BRANCH   1  17
ATOM     16  C   UNL     1       0.385   0.870  -0.159  0.00  0.00    +0.036 C 
ATOM     17  C   UNL     1       0.646  -0.532   0.395  0.00  0.00    +0.139 C 
BRANCH  17  18
ATOM     18  C   UNL     1       1.155  -0.426   1.810  0.00  0.00    +0.133 A 
ATOM     19  N   UNL     1       0.477  -1.006   2.753  0.00  0.00    -0.232 NA
ATOM     20  C   UNL     1       0.875  -0.953   4.049  0.00  0.00    +0.080 A 
ATOM     21  C   UNL     1       0.148  -1.576   5.066  0.00  0.00    +0.048 A 
ATOM     22  C   UNL     1       0.594  -1.494   6.367  0.00  0.00    +0.043 A 
ATOM     23  C   UNL     1       1.756  -0.799   6.679  0.00  0.00    +0.021 A 
ATOM     24  C   UNL     1       2.484  -0.180   5.701  0.00  0.00    +0.017 A 
ATOM     25  C   UNL     1       2.055  -0.249   4.376  0.00  0.00    +0.065 A 
ATOM     26  C   UNL     1       2.799   0.396   3.284  0.00  0.00    +0.262 A 
ATOM     27  O   UNL     1       3.823   1.018   3.497  0.00  0.00    -0.267 OA
ATOM     28  N   UNL     1       2.302   0.267   2.032  0.00  0.00    -0.298 N 
ATOM     29  C   UNL     1       3.006   0.886   0.905  0.00  0.00    +0.154 C 
ATOM     30 CL   UNL     1      -0.308  -2.268   7.633  0.00  0.00    -0.083 Cl
ENDBRANCH  17  18
ENDBRANCH   1  17
BRANCH   1  31
ATOM     31  C   UNL     1      -0.932  -2.136  -0.777  0.00  0.00    +0.109 C 
BRANCH  31  32
ATOM     32  C   UNL     1      -0.364  -3.542  -0.574  0.00  0.00    +0.019 C 
BRANCH  32  33
ATOM     33  C   UNL     1      -0.712  -4.412  -1.784  0.00  0.00    +0.001 C 
BRANCH  33  34
ATOM     34  C   UNL     1      -0.144  -5.818  -1.581  0.00  0.00    -0.002 C 
BRANCH  34  35
ATOM     35  C   UNL     1      -0.491  -6.688  -2.790  0.00  0.00    -0.020 C 
BRANCH  35  36
ATOM     36  C   UNL     1       0.077  -8.094  -2.587  0.00  0.00    -0.086 C 
BRANCH  36  37
ATOM     37  N   UNL     1      -0.257  -8.930  -3.749  0.00  0.00    +0.378 N 
ATOM     38  H   UNL     1       0.142  -8.523  -4.581  0.00  0.00    -0.090 HD
ATOM     39  H   UNL     1       0.117  -9.857  -3.615  0.00  0.00    -0.090 HD
ATOM     40  H   UNL     1      -1.260  -8.983  -3.848  0.00  0.00    -0.090 HD
ENDBRANCH  36  37
ENDBRANCH  35  36
ENDBRANCH  34  35
ENDBRANCH  33  34
ENDBRANCH  32  33
ENDBRANCH  31  32
ENDBRANCH   1  31
TORSDOF 11
