REMARK  Name = ZINC34747981
REMARK  4 active torsions:
REMARK  status: ('A' for Active; 'I' for Inactive)
REMARK    1  A    between atoms: C_6  and  C_7
REMARK    2  A    between atoms: C_7  and  N_8
REMARK    3  A    between atoms: N_21  and  C_24
REMARK    4  A    between atoms: C_24  and  C_25
REMARK                            x       y       z     vdW  Elec       q    Type
REMARK                         _______ _______ _______ _____ _____    ______ ____
ROOT
ATOM      1  N   UNL     1      -1.633  -0.841  -1.438  0.00  0.00    -0.276 N 
ATOM      2  C   UNL     1      -2.360   0.152  -1.983  0.00  0.00    +0.264 A 
ATOM      3  O   UNL     1      -2.472   1.223  -1.411  0.00  0.00    -0.267 OA
ATOM      4  C   UNL     1      -2.998  -0.068  -3.244  0.00  0.00    +0.076 A 
ATOM      5  C   UNL     1      -3.831   0.870  -4.014  0.00  0.00    -0.023 A 
ATOM      6  C   UNL     1      -4.323   0.427  -5.182  0.00  0.00    -0.004 A 
ATOM      7  S   UNL     1      -3.719  -1.238  -5.334  0.00  0.00    -0.073 S 
ATOM      8  C   UNL     1      -2.805  -1.333  -3.817  0.00  0.00    +0.117 A 
ATOM      9  N   UNL     1      -2.075  -2.273  -3.226  0.00  0.00    -0.208 NA
ATOM     10  C   UNL     1      -1.493  -2.043  -2.067  0.00  0.00    +0.202 A 
ATOM     11  N   UNL     1      -0.740  -3.030  -1.482  0.00  0.00    -0.304 N 
ATOM     12  C   UNL     1      -0.940  -3.398  -0.071  0.00  0.00    +0.089 C 
ATOM     13  C   UNL     1      -1.098  -4.919   0.016  0.00  0.00    -0.059 C 
ATOM     14  N   UNL     1       0.054  -5.568  -0.622  0.00  0.00    +0.387 N 
ATOM     15  C   UNL     1       0.074  -5.254  -2.057  0.00  0.00    -0.059 C 
ATOM     16  C   UNL     1       0.287  -3.753  -2.248  0.00  0.00    +0.089 C 
ATOM     17  C   UNL     1      -5.162   1.466  -5.877  0.00  0.00    +0.043 C 
ATOM     18  C   UNL     1      -5.490   2.499  -4.776  0.00  0.00    +0.010 C 
ATOM     19  C   UNL     1      -4.305   2.312  -3.808  0.00  0.00    +0.037 C 
ATOM     20  H   UNL     1       0.905  -5.235  -0.195  0.00  0.00    -0.081 HD
ENDROOT
BRANCH   1  21
ATOM     21  C   UNL     1      -0.975  -0.626  -0.147  0.00  0.00    +0.163 C 
BRANCH  21  27
ATOM     22  C   UNL     1       0.716   1.165  -0.594  0.00  0.00    +0.007 A 
ATOM     23  C   UNL     1       2.017   1.580  -0.803  0.00  0.00    +0.020 A 
ATOM     24  C   UNL     1       3.048   0.657  -0.794  0.00  0.00    +0.041 A 
ATOM     25  C   UNL     1       2.775  -0.681  -0.576  0.00  0.00    +0.020 A 
ATOM     26  C   UNL     1       1.473  -1.096  -0.367  0.00  0.00    +0.007 A 
ATOM     27  C   UNL     1       0.444  -0.173  -0.376  0.00  0.00    -0.027 A 
ATOM     28 CL   UNL     1       4.683   1.179  -1.058  0.00  0.00    -0.084 Cl
ENDBRANCH  21  27
ENDBRANCH   1  21
BRANCH  14  29
ATOM     29  C   UNL     1      -0.043  -7.022  -0.442  0.00  0.00    +0.018 C 
BRANCH  29  30
ATOM     30  C   UNL     1       1.198  -7.680  -0.988  0.00  0.00    +0.194 C 
ATOM     31  O   UNL     1       2.077  -7.004  -1.478  0.00  0.00    -0.278 OA
ATOM     32  N   UNL     1       1.331  -9.020  -0.931  0.00  0.00    -0.331 N 
ATOM     33  H   UNL     1       0.628  -9.561  -0.539  0.00  0.00    +0.145 HD
ATOM     34  H   UNL     1       2.130  -9.444  -1.282  0.00  0.00    +0.145 HD
ENDBRANCH  29  30
ENDBRANCH  14  29
TORSDOF 4
