REMARK  Name = ZINC36607868
REMARK  8 active torsions:
REMARK  status: ('A' for Active; 'I' for Inactive)
REMARK    1  A    between atoms: C_4  and  N_7
REMARK    2  A    between atoms: N_7  and  C_8
REMARK    3  A    between atoms: C_8  and  C_10
REMARK    4  A    between atoms: C_8  and  C_17
REMARK    5  A    between atoms: C_15  and  O_16
REMARK    6  A    between atoms: N_19  and  C_20
REMARK    7  A    between atoms: C_26  and  C_28
REMARK    8  A    between atoms: C_28  and  C_29
REMARK                            x       y       z     vdW  Elec       q    Type
REMARK                         _______ _______ _______ _____ _____    ______ ____
ROOT
ATOM      1  C   UNL     1       3.547  -2.231   0.025  0.00  0.00    +0.201 C 
ENDROOT
BRANCH   1   2
ATOM      2  C   UNL     1       2.721  -2.776   1.162  0.00  0.00    +0.024 A 
ATOM      3  C   UNL     1       1.763  -1.982   1.764  0.00  0.00    +0.009 A 
ATOM      4  C   UNL     1       1.006  -2.481   2.807  0.00  0.00    +0.001 A 
ATOM      5  C   UNL     1       1.205  -3.776   3.251  0.00  0.00    +0.004 A 
ATOM      6  C   UNL     1       2.161  -4.573   2.653  0.00  0.00    +0.046 A 
ATOM      7  C   UNL     1       2.918  -4.076   1.602  0.00  0.00    +0.122 A 
BRANCH   7   8
ATOM      8  O   UNL     1       3.856  -4.861   1.008  0.00  0.00    -0.506 OA
ATOM      9  H   UNL     1       4.732  -4.801   1.413  0.00  0.00    +0.292 HD
ENDBRANCH   7   8
ENDBRANCH   1   2
BRANCH   1  10
ATOM     10  C   UNL     1       2.960  -2.688  -1.285  0.00  0.00    +0.239 C 
ATOM     11  O   UNL     1       2.723  -1.879  -2.158  0.00  0.00    -0.273 OA
ATOM     12  N   UNL     1       2.699  -3.994  -1.488  0.00  0.00    -0.311 N 
ATOM     13  H   UNL     1       2.888  -4.641  -0.790  0.00  0.00    +0.149 HD
BRANCH  12  14
ATOM     14  C   UNL     1       2.128  -4.438  -2.762  0.00  0.00    +0.073 C 
ATOM     15  C   UNL     1       0.606  -4.291  -2.718  0.00  0.00    +0.022 C 
ATOM     16  C   UNL     1       0.010  -4.755  -4.049  0.00  0.00    +0.002 C 
ATOM     17  C   UNL     1       0.374  -6.222  -4.287  0.00  0.00    +0.000 C 
ATOM     18  C   UNL     1       1.897  -6.369  -4.331  0.00  0.00    +0.002 C 
ATOM     19  C   UNL     1       2.492  -5.905  -3.000  0.00  0.00    +0.022 C 
ENDBRANCH  12  14
ENDBRANCH   1  10
BRANCH   1  20
ATOM     20  N   UNL     1       3.544  -0.767   0.078  0.00  0.00    -0.255 N 
ATOM     21  C   UNL     1       4.314  -0.123   0.978  0.00  0.00    +0.225 C 
ATOM     22  O   UNL     1       5.075  -0.750   1.684  0.00  0.00    -0.275 OA
BRANCH  20  26
ATOM     23  C   UNL     1       1.157   1.409  -2.554  0.00  0.00    +0.000 A 
ATOM     24  C   UNL     1       0.572   0.548  -1.643  0.00  0.00    +0.002 A 
ATOM     25  C   UNL     1       1.361  -0.175  -0.769  0.00  0.00    +0.023 A 
ATOM     26  C   UNL     1       2.742  -0.036  -0.806  0.00  0.00    +0.037 A 
ATOM     27  C   UNL     1       3.326   0.828  -1.723  0.00  0.00    +0.023 A 
ATOM     28  C   UNL     1       2.532   1.548  -2.594  0.00  0.00    +0.002 A 
ENDBRANCH  20  26
BRANCH  21  29
ATOM     29  C   UNL     1       4.229   1.376   1.107  0.00  0.00    +0.131 C 
BRANCH  29  30
ATOM     30  C   UNL     1       5.263   1.855   2.093  0.00  0.00    -0.039 A 
ATOM     31  C   UNL     1       4.947   1.947   3.436  0.00  0.00    +0.005 A 
ATOM     32  C   UNL     1       5.895   2.385   4.340  0.00  0.00    +0.015 A 
ATOM     33  C   UNL     1       7.161   2.732   3.902  0.00  0.00    +0.018 A 
ATOM     34  C   UNL     1       7.476   2.639   2.559  0.00  0.00    +0.015 A 
ATOM     35  C   UNL     1       6.529   2.196   1.655  0.00  0.00    +0.005 A 
ATOM     36 BR   UNL     1       8.459   3.333   5.139  0.00  0.00    -0.050 Br
ENDBRANCH  29  30
ENDBRANCH  21  29
ENDBRANCH   1  20
TORSDOF 8
