REMARK  Name = ZINC42016460
REMARK  3 active torsions:
REMARK  status: ('A' for Active; 'I' for Inactive)
REMARK    1  A    between atoms: C_5  and  N_7
REMARK    2  A    between atoms: C_8  and  C_12
REMARK    3  A    between atoms: C_17  and  N_18
REMARK                            x       y       z     vdW  Elec       q    Type
REMARK                         _______ _______ _______ _____ _____    ______ ____
ROOT
ATOM      1  N   UNL     1       1.229  -2.368   0.727  0.00  0.00    -0.191 N 
ATOM      2  C   UNL     1       0.171  -2.930   0.073  0.00  0.00    +0.189 A 
ATOM      3  N   UNL     1       0.659  -3.879  -0.699  0.00  0.00    -0.108 NA
ATOM      4  N   UNL     1       1.935  -3.949  -0.575  0.00  0.00    -0.022 NA
ATOM      5  N   UNL     1       2.358  -3.067   0.263  0.00  0.00    -0.039 NA
ENDROOT
BRANCH   1  10
ATOM      6  C   UNL     1       0.764  -0.520   3.874  0.00  0.00    +0.002 A 
ATOM      7  C   UNL     1       1.136   0.755   3.487  0.00  0.00    +0.002 A 
ATOM      8  C   UNL     1       1.540   0.996   2.187  0.00  0.00    +0.022 A 
ATOM      9  C   UNL     1       1.572  -0.037   1.269  0.00  0.00    +0.066 A 
ATOM     10  C   UNL     1       1.198  -1.318   1.655  0.00  0.00    +0.088 A 
ATOM     11  C   UNL     1       0.794  -1.556   2.962  0.00  0.00    +0.029 A 
ATOM     12 CL   UNL     1       2.078   0.266  -0.363  0.00  0.00    -0.081 Cl
ENDBRANCH   1  10
BRANCH   2  13
ATOM     13  C   UNL     1      -1.250  -2.546   0.206  0.00  0.00    +0.042 A 
ATOM     14  C   UNL     1      -1.623  -1.204   0.136  0.00  0.00    +0.015 A 
ATOM     15  C   UNL     1      -2.950  -0.851   0.260  0.00  0.00    +0.021 A 
ATOM     16  C   UNL     1      -3.917  -1.825   0.456  0.00  0.00    +0.043 A 
ATOM     17  C   UNL     1      -3.561  -3.158   0.529  0.00  0.00    +0.043 A 
ATOM     18  C   UNL     1      -2.230  -3.530   0.398  0.00  0.00    +0.037 A 
ATOM     19 CL   UNL     1      -5.585  -1.367   0.612  0.00  0.00    -0.083 Cl
BRANCH  18  20
ATOM     20  N   UNL     1      -1.869  -4.874   0.464  0.00  0.00    -0.357 N 
ATOM     21  H   UNL     1      -0.938  -5.130   0.377  0.00  0.00    +0.142 HD
ATOM     22  H   UNL     1      -2.549  -5.552   0.597  0.00  0.00    +0.142 HD
ENDBRANCH  18  20
ENDBRANCH   2  13
TORSDOF 3
