REMARK  Name = ZINC39661205
REMARK  4 active torsions:
REMARK  status: ('A' for Active; 'I' for Inactive)
REMARK    1  A    between atoms: C_1  and  C_2
REMARK    2  A    between atoms: C_6  and  C_9
REMARK    3  A    between atoms: C_13  and  C_22
REMARK    4  A    between atoms: N_24  and  C_25
REMARK                            x       y       z     vdW  Elec       q    Type
REMARK                         _______ _______ _______ _____ _____    ______ ____
ROOT
ATOM      1  C   UNL     1      -0.046  -2.678   2.328  0.00  0.00    +0.251 C 
ATOM      2  O   UNL     1       1.047  -2.917   2.803  0.00  0.00    -0.270 OA
ATOM      3  N   UNL     1      -1.161  -3.097   2.958  0.00  0.00    -0.296 N 
ATOM      4  C   UNL     1      -2.569  -2.908   2.535  0.00  0.00    +0.121 C 
ATOM      5  C   UNL     1      -3.264  -4.243   2.884  0.00  0.00    +0.100 C 
ATOM      6  C   UNL     1      -2.399  -4.856   3.998  0.00  0.00    -0.004 C 
ATOM      7  C   UNL     1      -1.256  -3.856   4.228  0.00  0.00    +0.115 C 
ATOM      8  C   UNL     1      -1.834  -6.200   3.549  0.00  0.00    -0.010 C 
ATOM      9  C   UNL     1      -1.025  -6.816   4.694  0.00  0.00    -0.082 C 
ATOM     10  N   UNL     1      -1.890  -6.993   5.867  0.00  0.00    +0.379 N 
ATOM     11  C   UNL     1      -2.355  -5.687   6.348  0.00  0.00    -0.082 C 
ATOM     12  C   UNL     1      -3.220  -5.023   5.273  0.00  0.00    -0.010 C 
ATOM     13  H   UNL     1      -2.686  -7.560   5.614  0.00  0.00    -0.086 HD
ATOM     14  H   UNL     1      -1.372  -7.455   6.599  0.00  0.00    -0.086 HD
ENDROOT
BRANCH   1  20
ATOM     15  C   UNL     1      -0.443   1.667  -0.103  0.00  0.00    +0.047 C 
ATOM     16  C   UNL     1      -0.343   0.163  -0.116  0.00  0.00    -0.014 A 
ATOM     17  C   UNL     1      -0.351  -0.519  -1.319  0.00  0.00    +0.007 A 
ATOM     18  C   UNL     1      -0.261  -1.899  -1.341  0.00  0.00    +0.021 A 
ATOM     19  C   UNL     1      -0.161  -2.608  -0.160  0.00  0.00    +0.056 A 
ATOM     20  C   UNL     1      -0.152  -1.927   1.061  0.00  0.00    +0.091 A 
ATOM     21  C   UNL     1      -0.238  -0.531   1.075  0.00  0.00    +0.140 A 
ATOM     22  F   UNL     1      -0.225   0.136   2.250  0.00  0.00    -0.204 F 
ATOM     23 CL   UNL     1      -0.048  -4.340  -0.191  0.00  0.00    -0.083 Cl
ENDBRANCH   1  20
BRANCH   5  24
ATOM     24  C   UNL     1      -3.292  -5.150   1.680  0.00  0.00    +0.219 C 
ATOM     25  O   UNL     1      -2.423  -5.067   0.838  0.00  0.00    -0.275 OA
ATOM     26  N   UNL     1      -4.284  -6.051   1.539  0.00  0.00    -0.304 N 
ATOM     27  H   UNL     1      -4.979  -6.117   2.213  0.00  0.00    +0.149 HD
BRANCH  26  28
ATOM     28  C   UNL     1      -4.312  -6.933   0.369  0.00  0.00    +0.151 C 
ATOM     29  C   UNL     1      -5.760  -7.338   0.086  0.00  0.00    +0.042 C 
ATOM     30  C   UNL     1      -5.730  -8.659  -0.719  0.00  0.00    +0.079 C 
ATOM     31  S   UNL     1      -4.183  -9.432  -0.110  0.00  0.00    -0.086 S 
ATOM     32  C   UNL     1      -3.432  -8.131   0.636  0.00  0.00    +0.209 C 
ATOM     33  O   UNL     1      -2.393  -8.150   1.261  0.00  0.00    -0.283 OA
ENDBRANCH  26  28
ENDBRANCH   5  24
TORSDOF 3
