REMARK  Name = ZINC04395344
REMARK  6 active torsions:
REMARK  status: ('A' for Active; 'I' for Inactive)
REMARK    1  A    between atoms: C_4  and  C_7
REMARK    2  A    between atoms: C_7  and  C_8
REMARK    3  A    between atoms: C_7  and  N_65
REMARK    4  A    between atoms: C_23  and  S_29
REMARK    5  A    between atoms: C_24  and  N_28
REMARK    6  A    between atoms: S_29  and  C_32
REMARK                            x       y       z     vdW  Elec       q    Type
REMARK                         _______ _______ _______ _____ _____    ______ ____
ROOT
ATOM      1  C   UNL     1      -3.615  -5.210   6.278  0.00  0.00    -0.058 C 
ATOM      2  C   UNL     1      -3.632  -4.488   4.929  0.00  0.00    +0.089 C 
ATOM      3  N   UNL     1      -4.650  -3.429   4.955  0.00  0.00    -0.302 N 
ATOM      4  C   UNL     1      -4.370  -2.459   6.023  0.00  0.00    +0.089 C 
ATOM      5  C   UNL     1      -4.354  -3.181   7.372  0.00  0.00    -0.058 C 
ATOM      6  C   UNL     1      -4.744  -2.795   3.718  0.00  0.00    +0.239 A 
ATOM      7  N   UNL     1      -4.017  -3.095   2.645  0.00  0.00    -0.176 NA
ATOM      8  C   UNL     1      -4.359  -2.298   1.636  0.00  0.00    +0.256 A 
ATOM      9  N   UNL     1      -3.927  -2.211   0.372  0.00  0.00    -0.190 NA
ATOM     10  C   UNL     1      -4.427  -1.320  -0.453  0.00  0.00    +0.207 A 
ATOM     11  C   UNL     1      -5.437  -0.444  -0.022  0.00  0.00    +0.088 A 
ATOM     12  C   UNL     1      -5.885  -0.531   1.264  0.00  0.00    +0.142 A 
ATOM     13  N   UNL     1      -5.339  -1.463   2.090  0.00  0.00    -0.200 N 
ATOM     14  N   UNL     1      -5.565  -1.806   3.430  0.00  0.00    -0.128 NA
ATOM     15  N   UNL     1      -3.311  -4.228   7.340  0.00  0.00    +0.389 N 
ATOM     16  H   UNL     1      -2.404  -3.790   7.140  0.00  0.00    -0.080 HD
ENDROOT
BRANCH  11  17
ATOM     17  N   UNL     1      -5.978   0.505  -0.900  0.00  0.00    -0.354 N 
ATOM     18  H   UNL     1      -6.773   1.000  -0.650  0.00  0.00    +0.142 HD
ATOM     19  H   UNL     1      -5.556   0.667  -1.759  0.00  0.00    +0.142 HD
ENDBRANCH  11  17
BRANCH  10  20
ATOM     20  S   UNL     1      -3.833  -1.227  -2.110  0.00  0.00    +0.044 S 
ATOM     21  O   UNL     1      -4.929  -0.808  -2.911  0.00  0.00    -0.163 OA
ATOM     22  O   UNL     1      -3.128  -2.436  -2.356  0.00  0.00    -0.163 OA
BRANCH  20  23
ATOM     23  C   UNL     1      -2.643   0.071  -2.165  0.00  0.00    +0.095 A 
ATOM     24  C   UNL     1      -1.310  -0.203  -1.919  0.00  0.00    +0.027 A 
ATOM     25  C   UNL     1      -0.376   0.815  -1.968  0.00  0.00    +0.002 A 
ATOM     26  C   UNL     1      -0.775   2.106  -2.256  0.00  0.00    +0.000 A 
ATOM     27  C   UNL     1      -2.108   2.381  -2.497  0.00  0.00    +0.002 A 
ATOM     28  C   UNL     1      -3.042   1.363  -2.449  0.00  0.00    +0.027 A 
ENDBRANCH  20  23
ENDBRANCH  10  20
BRANCH  15  29
ATOM     29  C   UNL     1      -3.237  -4.908   8.651  0.00  0.00    -0.007 C 
BRANCH  29  33
ATOM     30  C   UNL     1      -0.129  -7.836   8.520  0.00  0.00    +0.000 A 
ATOM     31  C   UNL     1      -1.349  -8.149   9.089  0.00  0.00    +0.000 A 
ATOM     32  C   UNL     1      -2.355  -7.201   9.131  0.00  0.00    +0.002 A 
ATOM     33  C   UNL     1      -2.140  -5.941   8.605  0.00  0.00    -0.057 A 
ATOM     34  C   UNL     1      -0.921  -5.630   8.031  0.00  0.00    +0.002 A 
ATOM     35  C   UNL     1       0.086  -6.576   7.993  0.00  0.00    +0.000 A 
ENDBRANCH  29  33
BRANCH  29  36
ATOM     36  C   UNL     1      -2.922  -3.889   9.715  0.00  0.00    -0.057 A 
ATOM     37  C   UNL     1      -1.964  -2.920   9.482  0.00  0.00    +0.002 A 
ATOM     38  C   UNL     1      -1.678  -1.981  10.456  0.00  0.00    +0.000 A 
ATOM     39  C   UNL     1      -2.344  -2.018  11.667  0.00  0.00    +0.000 A 
ATOM     40  C   UNL     1      -3.298  -2.990  11.902  0.00  0.00    +0.000 A 
ATOM     41  C   UNL     1      -3.587  -3.925  10.926  0.00  0.00    +0.002 A 
ENDBRANCH  29  36
ENDBRANCH  15  29
TORSDOF 6
