REMARK  Name = ZINC19537666
REMARK  7 active torsions:
REMARK  status: ('A' for Active; 'I' for Inactive)
REMARK    1  A    between atoms: C_1  and  C_2
REMARK    2  A    between atoms: C_2  and  N_3
REMARK    3  A    between atoms: N_3  and  N_4
REMARK    4  A    between atoms: C_5  and  C_7
REMARK    5  A    between atoms: C_10  and  N_14
REMARK    6  A    between atoms: C_17  and  C_18
REMARK    7  A    between atoms: N_20  and  C_21
REMARK                            x       y       z     vdW  Elec       q    Type
REMARK                         _______ _______ _______ _____ _____    ______ ____
ROOT
ATOM      1  C   UNL     1      -0.938   6.082   1.553  0.00  0.00    +0.062 C 
ATOM      2  C   UNL     1      -1.569   5.313   2.686  0.00  0.00    +0.024 C 
ATOM      3  C   UNL     1      -1.549   3.806   2.677  0.00  0.00    +0.087 C 
ENDROOT
BRANCH   3   4
ATOM      4  C   UNL     1      -0.843   3.320   1.438  0.00  0.00    +0.239 C 
ATOM      5  O   UNL     1      -0.401   4.119   0.639  0.00  0.00    -0.271 OA
ATOM      6  N   UNL     1      -0.704   1.998   1.216  0.00  0.00    -0.306 N 
ATOM      7  H   UNL     1      -1.106   1.274   1.940  0.00  0.00    +0.150 HD
BRANCH   6   8
ATOM      8  C   UNL     1      -0.019   1.526   0.010  0.00  0.00    +0.036 C 
ATOM      9  C   UNL     1       1.417   2.055  -0.000  0.00  0.00    +0.029 C 
ATOM     10  C   UNL     1       2.133   1.562  -1.259  0.00  0.00    -0.008 C 
ATOM     11  C   UNL     1       2.154   0.032  -1.268  0.00  0.00    +0.007 C 
ATOM     12  C   UNL     1       0.718  -0.497  -1.257  0.00  0.00    -0.008 C 
ATOM     13  C   UNL     1       0.002  -0.004   0.002  0.00  0.00    +0.029 C 
ATOM     14  C   UNL     1      -0.022   0.009  -2.496  0.00  0.00    +0.007 C 
ATOM     15  C   UNL     1      -0.043   1.539  -2.488  0.00  0.00    -0.008 C 
ATOM     16  C   UNL     1       1.393   2.069  -2.499  0.00  0.00    +0.007 C 
ATOM     17  C   UNL     1      -0.759   2.033  -1.229  0.00  0.00    +0.029 C 
ENDBRANCH   6   8
ENDBRANCH   3   4
BRANCH   2  18
ATOM     18  N   UNL     1      -2.123   5.941   3.654  0.00  0.00    -0.268 N 
ATOM     19  H   UNL     1      -2.584   5.380   4.481  0.00  0.00    +0.170 HD
BRANCH  18  20
ATOM     20  N   UNL     1      -2.142   7.341   3.662  0.00  0.00    -0.233 N 
ATOM     21  C   UNL     1      -2.725   8.002   4.682  0.00  0.00    +0.261 C 
ATOM     22  O   UNL     1      -3.235   7.382   5.596  0.00  0.00    -0.269 OA
ATOM     23  H   UNL     1      -1.681   7.902   2.836  0.00  0.00    +0.173 HD
BRANCH  21  24
ATOM     24  C   UNL     1      -2.745   9.479   4.690  0.00  0.00    +0.057 A 
ATOM     25  C   UNL     1      -2.161  10.194   3.643  0.00  0.00    +0.017 A 
ATOM     26  C   UNL     1      -2.183  11.573   3.656  0.00  0.00    +0.033 A 
ATOM     27  C   UNL     1      -2.782  12.249   4.705  0.00  0.00    +0.128 A 
ATOM     28  C   UNL     1      -3.363  11.548   5.746  0.00  0.00    +0.053 A 
ATOM     29  C   UNL     1      -3.353  10.167   5.743  0.00  0.00    +0.055 A 
ATOM     30 CL   UNL     1      -4.089   9.288   7.047  0.00  0.00    -0.083 Cl
BRANCH  27  31
ATOM     31  N   UNL     1      -2.802  13.729   4.712  0.00  0.00    +0.056 N 
ATOM     32  O   UNL     1      -2.291  14.349   3.796  0.00  0.00    -0.126 OA
ATOM     33  O   UNL     1      -3.328  14.327   5.633  0.00  0.00    -0.126 OA
ENDBRANCH  27  31
ENDBRANCH  21  24
ENDBRANCH  18  20
ENDBRANCH   2  18
TORSDOF 6
