REMARK  Name = ZINC15079607
REMARK  10 active torsions:
REMARK  status: ('A' for Active; 'I' for Inactive)
REMARK    1  A    between atoms: C_1  and  C_2
REMARK    2  A    between atoms: C_2  and  O_3
REMARK    3  A    between atoms: O_3  and  C_4
REMARK    4  A    between atoms: C_4  and  O_31
REMARK    5  A    between atoms: C_5  and  C_29
REMARK    6  A    between atoms: C_6  and  C_27
REMARK    7  A    between atoms: N_14  and  C_17
REMARK    8  A    between atoms: C_17  and  C_18
REMARK    9  A    between atoms: O_31  and  C_32
REMARK   10  A    between atoms: C_32  and  C_33
REMARK                            x       y       z     vdW  Elec       q    Type
REMARK                         _______ _______ _______ _____ _____    ______ ____
ROOT
ATOM      1  C   UNL     1       0.847  -1.882  -1.229  0.00  0.00    +0.275 C 
ATOM      2  C   UNL     1       1.842  -2.331  -2.315  0.00  0.00    +0.177 C 
ATOM      3  C   UNL     1       2.968  -3.001  -1.502  0.00  0.00    +0.156 C 
ATOM      4  C   UNL     1       3.246  -1.740  -2.310  0.00  0.00    +0.128 C 
ATOM      5  C   UNL     1       4.119  -1.758  -3.537  0.00  0.00    -0.007 A 
ATOM      6  C   UNL     1       4.304  -2.671  -4.551  0.00  0.00    +0.006 A 
ATOM      7  C   UNL     1       5.201  -2.400  -5.570  0.00  0.00    +0.000 A 
ATOM      8  C   UNL     1       5.908  -1.212  -5.566  0.00  0.00    +0.002 A 
ATOM      9  C   UNL     1       5.725  -0.295  -4.552  0.00  0.00    +0.024 A 
ATOM     10  C   UNL     1       4.825  -0.559  -3.523  0.00  0.00    +0.041 A 
ATOM     11  N   UNL     1       4.469   0.197  -2.405  0.00  0.00    -0.266 N 
ATOM     12  C   UNL     1       3.550  -0.423  -1.642  0.00  0.00    +0.235 C 
ATOM     13  O   UNL     1       3.059  -0.002  -0.616  0.00  0.00    -0.274 OA
ATOM     14  C   UNL     1       2.546  -2.880  -0.060  0.00  0.00    +0.093 C 
ATOM     15  N   UNL     1       1.418  -2.283   0.056  0.00  0.00    -0.324 N 
ATOM     16  N   UNL     1       3.279  -3.350   0.997  0.00  0.00    -0.347 N 
ATOM     17  H   UNL     1       4.127  -3.794   0.840  0.00  0.00    +0.143 HD
ATOM     18  H   UNL     1       2.950  -3.239   1.903  0.00  0.00    +0.143 HD
ATOM     19  H   UNL     1       0.988  -2.114   0.909  0.00  0.00    +0.166 HD
ENDROOT
BRANCH   3  20
ATOM     20  C   UNL     1       3.562  -4.276  -1.938  0.00  0.00    +0.080 C 
ATOM     21  N   UNL     1       4.021  -5.259  -2.274  0.00  0.00    -0.195 NA
ENDBRANCH   3  20
BRANCH   2  22
ATOM     22  C   UNL     1       1.292  -2.900  -3.556  0.00  0.00    +0.080 C 
ATOM     23  N   UNL     1       0.869  -3.340  -4.514  0.00  0.00    -0.196 NA
ENDBRANCH   2  22
BRANCH   1  24
ATOM     24  O   UNL     1       0.685  -0.463  -1.271  0.00  0.00    -0.331 OA
BRANCH  24  26
ATOM     25  C   UNL     1      -0.123   1.590  -0.284  0.00  0.00    +0.034 C 
ATOM     26  C   UNL     1      -0.117   0.062  -0.211  0.00  0.00    +0.162 C 
ENDBRANCH  24  26
ENDBRANCH   1  24
BRANCH  11  27
ATOM     27  C   UNL     1       5.033   1.514  -2.096  0.00  0.00    +0.148 C 
BRANCH  27  28
ATOM     28  C   UNL     1       4.189   2.584  -2.738  0.00  0.00    -0.030 A 
ATOM     29  C   UNL     1       4.474   3.013  -4.021  0.00  0.00    +0.005 A 
ATOM     30  C   UNL     1       3.700   3.995  -4.610  0.00  0.00    +0.000 A 
ATOM     31  C   UNL     1       2.640   4.548  -3.916  0.00  0.00    +0.000 A 
ATOM     32  C   UNL     1       2.354   4.119  -2.634  0.00  0.00    +0.000 A 
ATOM     33  C   UNL     1       3.126   3.134  -2.046  0.00  0.00    +0.005 A 
ENDBRANCH  27  28
ENDBRANCH  11  27
BRANCH   1  34
ATOM     34  O   UNL     1      -0.415  -2.524  -1.424  0.00  0.00    -0.331 OA
BRANCH  34  35
ATOM     35  C   UNL     1      -0.375  -3.944  -1.267  0.00  0.00    +0.162 C 
ATOM     36  C   UNL     1      -1.793  -4.509  -1.376  0.00  0.00    +0.034 C 
ENDBRANCH  34  35
ENDBRANCH   1  34
TORSDOF 8
