REMARK  Name = ZINC25294816
REMARK  9 active torsions:
REMARK  status: ('A' for Active; 'I' for Inactive)
REMARK    1  A    between atoms: C_1  and  C_2
REMARK    2  A    between atoms: C_3  and  C_15
REMARK    3  A    between atoms: N_5  and  C_7
REMARK    4  A    between atoms: C_16  and  C_17
REMARK    5  A    between atoms: N_19  and  C_20
REMARK    6  A    between atoms: C_23  and  N_26
REMARK    7  A    between atoms: C_27  and  C_29
REMARK    8  A    between atoms: C_29  and  C_31
REMARK    9  A    between atoms: C_29  and  N_32
REMARK                            x       y       z     vdW  Elec       q    Type
REMARK                         _______ _______ _______ _____ _____    ______ ____
ROOT
ATOM      1  C   UNL     1       4.229   0.141   0.145  0.00  0.00    +0.241 C 
ATOM      2  O   UNL     1       4.452   1.324   0.328  0.00  0.00    -0.270 OA
ATOM      3  N   UNL     1       2.959  -0.302   0.068  0.00  0.00    -0.282 N 
ATOM      4  H   UNL     1       2.756  -1.381  -0.009  0.00  0.00    +0.155 HD
ENDROOT
BRANCH   3   5
ATOM      5  C   UNL     1       1.897   0.610   0.086  0.00  0.00    +0.034 A 
ATOM      6  C   UNL     1       2.039   1.853  -0.517  0.00  0.00    +0.025 A 
ATOM      7  C   UNL     1       0.993   2.753  -0.498  0.00  0.00    +0.025 A 
ATOM      8  C   UNL     1      -0.203   2.415   0.123  0.00  0.00    +0.034 A 
ATOM      9  C   UNL     1      -0.345   1.172   0.725  0.00  0.00    +0.025 A 
ATOM     10  C   UNL     1       0.702   0.272   0.707  0.00  0.00    +0.025 A 
BRANCH   8  11
ATOM     11  N   UNL     1      -1.263   3.330   0.146  0.00  0.00    -0.284 N 
ATOM     12  C   UNL     1      -2.535   2.890   0.070  0.00  0.00    +0.242 C 
ATOM     13  O   UNL     1      -2.759   1.713  -0.117  0.00  0.00    -0.273 OA
ATOM     14  H   UNL     1      -1.058   4.408   0.228  0.00  0.00    +0.155 HD
BRANCH  12  15
ATOM     15  C   UNL     1      -3.678   3.861   0.216  0.00  0.00    +0.191 C 
ATOM     16  C   UNL     1      -3.602   4.536   1.587  0.00  0.00    +0.042 C 
BRANCH  15  17
ATOM     17  N   UNL     1      -4.948   3.142   0.095  0.00  0.00    -0.240 N 
ATOM     18  C   UNL     1      -5.604   2.494   1.074  0.00  0.00    +0.219 A 
ATOM     19  N   UNL     1      -6.696   1.986   0.564  0.00  0.00    -0.223 NA
ATOM     20  C   UNL     1      -6.768   2.280  -0.734  0.00  0.00    +0.245 A 
ATOM     21  N   UNL     1      -5.720   2.986  -1.068  0.00  0.00    -0.158 NA
ENDBRANCH  15  17
ENDBRANCH  12  15
ENDBRANCH   8  11
ENDBRANCH   3   5
BRANCH   1  23
ATOM     22  C   UNL     1       6.581  -0.326   0.090  0.00  0.00    +0.018 C 
ATOM     23  C   UNL     1       5.307  -0.770   0.013  0.00  0.00    +0.068 C 
BRANCH  22  26
ATOM     24  C   UNL     1       9.072   0.018  -1.844  0.00  0.00    +0.068 C 
ATOM     25  C   UNL     1       8.815  -1.131  -0.903  0.00  0.00    +0.069 A 
ATOM     26  C   UNL     1       7.697  -1.270  -0.047  0.00  0.00    +0.035 A 
ATOM     27  C   UNL     1       7.851  -2.466   0.634  0.00  0.00    +0.140 A 
ATOM     28  N   UNL     1       9.006  -3.019   0.215  0.00  0.00    -0.221 N 
ATOM     29  N   UNL     1       9.585  -2.171  -0.735  0.00  0.00    -0.170 NA
ATOM     30 CL   UNL     1       6.760  -3.130   1.809  0.00  0.00    -0.061 Cl
BRANCH  28  31
ATOM     31  C   UNL     1       9.537  -4.240   0.655  0.00  0.00    +0.067 A 
ATOM     32  C   UNL     1       9.374  -4.633   1.976  0.00  0.00    +0.030 A 
ATOM     33  C   UNL     1       9.893  -5.838   2.407  0.00  0.00    +0.040 A 
ATOM     34  C   UNL     1      10.586  -6.649   1.524  0.00  0.00    +0.124 A 
ATOM     35  C   UNL     1      10.755  -6.256   0.206  0.00  0.00    +0.040 A 
ATOM     36  C   UNL     1      10.232  -5.055  -0.229  0.00  0.00    +0.030 A 
ATOM     37  F   UNL     1      11.098  -7.825   1.948  0.00  0.00    -0.205 F 
ENDBRANCH  28  31
ENDBRANCH  22  26
ENDBRANCH   1  23
TORSDOF 7
