REMARK  Name = ZINC63376288
REMARK  3 active torsions:
REMARK  status: ('A' for Active; 'I' for Inactive)
REMARK    1  A    between atoms: C_8  and  N_10
REMARK    2  A    between atoms: C_11  and  C_13
REMARK    3  A    between atoms: C_13  and  N_14
REMARK                            x       y       z     vdW  Elec       q    Type
REMARK                         _______ _______ _______ _____ _____    ______ ____
ROOT
ATOM      1  N   UNL     1       6.506  -5.630   0.297  0.00  0.00    -0.291 N 
ATOM      2  C   UNL     1       7.256  -6.654  -0.157  0.00  0.00    +0.303 C 
ATOM      3  O   UNL     1       6.939  -7.234  -1.178  0.00  0.00    -0.253 OA
ATOM      4  N   UNL     1       8.357  -7.035   0.520  0.00  0.00    -0.283 N 
ATOM      5  C   UNL     1       8.665  -6.414   1.812  0.00  0.00    +0.114 C 
ATOM      6  C   UNL     1       8.758  -7.504   2.896  0.00  0.00    +0.052 C 
ATOM      7  C   UNL     1       9.588  -8.621   2.316  0.00  0.00    -0.036 C 
ATOM      8  C   UNL     1      10.659  -9.253   2.782  0.00  0.00    -0.001 A 
ATOM      9  C   UNL     1      11.358  -9.172   4.074  0.00  0.00    +0.010 A 
ATOM     10  C   UNL     1      12.456  -9.962   4.212  0.00  0.00    +0.001 A 
ATOM     11  C   UNL     1      12.922 -10.814   3.206  0.00  0.00    +0.002 A 
ATOM     12  C   UNL     1      12.336 -10.957   1.990  0.00  0.00    +0.026 A 
ATOM     13  C   UNL     1      11.167 -10.184   1.730  0.00  0.00    +0.043 A 
ATOM     14  N   UNL     1      10.404 -10.142   0.678  0.00  0.00    -0.376 N 
ATOM     15  C   UNL     1       9.290  -9.234   0.952  0.00  0.00    +0.124 C 
ATOM     16  C   UNL     1       9.233  -8.075  -0.042  0.00  0.00    +0.138 C 
ATOM     17  H   UNL     1       6.716  -5.215   1.148  0.00  0.00    +0.151 HD
ATOM     18  H   UNL     1      10.548 -10.630  -0.148  0.00  0.00    +0.160 HD
ENDROOT
BRANCH   1  19
ATOM     19  C   UNL     1       5.373  -5.145  -0.494  0.00  0.00    +0.201 C 
BRANCH  19  21
ATOM     20  N   UNL     1       3.633  -3.396  -0.313  0.00  0.00    -0.311 N 
ATOM     21  C   UNL     1       4.706  -4.004   0.230  0.00  0.00    +0.230 C 
ATOM     22  O   UNL     1       5.135  -3.634   1.302  0.00  0.00    -0.274 OA
ATOM     23  H   UNL     1       3.290  -3.693  -1.170  0.00  0.00    +0.149 HD
BRANCH  20  31
ATOM     24  C   UNL     1       0.002   1.394  -0.011  0.00  0.00    +0.000 A 
ATOM     25  C   UNL     1       1.192   2.097  -0.023  0.00  0.00    +0.000 A 
ATOM     26  C   UNL     1       2.394   1.418  -0.037  0.00  0.00    +0.004 A 
ATOM     27  C   UNL     1       2.412   0.033  -0.040  0.00  0.00    -0.042 A 
ATOM     28  C   UNL     1       1.222  -0.670  -0.028  0.00  0.00    -0.042 A 
ATOM     29  C   UNL     1       0.017   0.013  -0.013  0.00  0.00    +0.004 A 
ATOM     30  C   UNL     1       1.506  -2.157  -0.032  0.00  0.00    +0.058 C 
ATOM     31  C   UNL     1       2.985  -2.287   0.392  0.00  0.00    +0.082 C 
ATOM     32  C   UNL     1       3.577  -0.933  -0.053  0.00  0.00    +0.058 C 
ENDBRANCH  20  31
ENDBRANCH  19  21
ENDBRANCH   1  19
TORSDOF 3
