REMARK  Name = ZINC38564535
REMARK  11 active torsions:
REMARK  status: ('A' for Active; 'I' for Inactive)
REMARK    1  A    between atoms: C_1  and  C_2
REMARK    2  A    between atoms: C_2  and  C_4
REMARK    3  A    between atoms: C_2  and  N_12
REMARK    4  A    between atoms: C_4  and  C_5
REMARK    5  A    between atoms: C_5  and  C_6
REMARK    6  A    between atoms: C_13  and  C_15
REMARK    7  A    between atoms: C_15  and  C_17
REMARK    8  A    between atoms: C_15  and  N_20
REMARK    9  A    between atoms: C_17  and  C_18
REMARK   10  A    between atoms: C_17  and  C_19
REMARK   11  A    between atoms: C_23  and  C_39
REMARK                            x       y       z     vdW  Elec       q    Type
REMARK                         _______ _______ _______ _____ _____    ______ ____
ROOT
ATOM      1  N   UNL     1      -3.944  -1.415  -2.469  0.00  0.00    -0.211 N 
ATOM      2  C   UNL     1      -5.078  -0.833  -2.919  0.00  0.00    +0.253 C 
ATOM      3  O   UNL     1      -5.865  -0.168  -2.280  0.00  0.00    -0.272 OA
ATOM      4  C   UNL     1      -5.158  -1.185  -4.385  0.00  0.00    +0.153 C 
ATOM      5  C   UNL     1      -6.442  -1.908  -4.715  0.00  0.00    +0.053 A 
ATOM      6  H   UNL     1      -7.945  -0.633  -4.039  0.00  0.00    +0.166 HD
ATOM      7  C   UNL     1      -6.470  -3.120  -5.314  0.00  0.00    -0.015 A 
ATOM      8  C   UNL     1      -7.871  -3.468  -5.476  0.00  0.00    +0.003 A 
ATOM      9  C   UNL     1      -8.507  -4.581  -6.033  0.00  0.00    +0.010 A 
ATOM     10  C   UNL     1      -9.881  -4.582  -6.016  0.00  0.00    +0.001 A 
ATOM     11  C   UNL     1     -10.611  -3.537  -5.475  0.00  0.00    +0.002 A 
ATOM     12  C   UNL     1     -10.006  -2.423  -4.918  0.00  0.00    +0.026 A 
ATOM     13  C   UNL     1      -8.613  -2.394  -4.922  0.00  0.00    +0.047 A 
ATOM     14  N   UNL     1      -7.715  -1.472  -4.470  0.00  0.00    -0.356 N 
ATOM     15  C   UNL     1      -5.276  -3.948  -5.713  0.00  0.00    +0.056 C 
ATOM     16  C   UNL     1      -4.002  -3.090  -5.695  0.00  0.00    +0.115 C 
ATOM     17  N   UNL     1      -4.084  -2.196  -4.538  0.00  0.00    -0.266 N 
ATOM     18  C   UNL     1      -3.347  -2.142  -3.428  0.00  0.00    +0.313 C 
ATOM     19  O   UNL     1      -2.269  -2.686  -3.298  0.00  0.00    -0.252 OA
ATOM     20  C   UNL     1      -4.932   0.035  -5.280  0.00  0.00    +0.048 C 
ENDROOT
BRANCH   1  21
ATOM     21  C   UNL     1      -3.428  -1.266  -1.106  0.00  0.00    +0.174 C 
BRANCH  21  23
ATOM     22  N   UNL     1      -1.517  -0.115  -0.037  0.00  0.00    -0.311 N 
ATOM     23  C   UNL     1      -2.057  -0.642  -1.154  0.00  0.00    +0.235 C 
ATOM     24  O   UNL     1      -1.440  -0.614  -2.197  0.00  0.00    -0.274 OA
ATOM     25  H   UNL     1      -2.034  -0.083   0.783  0.00  0.00    +0.149 HD
BRANCH  22  27
ATOM     26  C   UNL     1      -0.166   1.855  -0.560  0.00  0.00    +0.028 C 
ATOM     27  C   UNL     1      -0.149   0.409  -0.061  0.00  0.00    +0.070 C 
BRANCH  27  28
ATOM     28  C   UNL     1       0.440   0.362   1.350  0.00  0.00    +0.026 C 
BRANCH  28  29
ATOM     29  C   UNL     1       0.572  -1.095   1.800  0.00  0.00    +0.037 C 
BRANCH  29  30
ATOM     30  C   UNL     1       1.152  -1.141   3.189  0.00  0.00    -0.047 A 
ATOM     31  C   UNL     1       2.522  -1.198   3.365  0.00  0.00    +0.003 A 
ATOM     32  C   UNL     1       3.054  -1.240   4.640  0.00  0.00    +0.000 A 
ATOM     33  C   UNL     1       2.217  -1.224   5.740  0.00  0.00    +0.000 A 
ATOM     34  C   UNL     1       0.847  -1.165   5.564  0.00  0.00    +0.000 A 
ATOM     35  C   UNL     1       0.315  -1.119   4.289  0.00  0.00    +0.003 A 
ENDBRANCH  29  30
ENDBRANCH  28  29
ENDBRANCH  27  28
ENDBRANCH  22  27
ENDBRANCH  21  23
BRANCH  21  36
ATOM     36  C   UNL     1      -3.339  -2.642  -0.442  0.00  0.00    +0.013 C 
ATOM     37  C   UNL     1      -2.931  -2.475   1.023  0.00  0.00    +0.009 C 
ATOM     38  C   UNL     1      -4.702  -3.333  -0.516  0.00  0.00    +0.009 C 
ENDBRANCH  21  36
ENDBRANCH   1  21
TORSDOF 7
