REMARK  Name = ZINC48852831
REMARK  3 active torsions:
REMARK  status: ('A' for Active; 'I' for Inactive)
REMARK    1  A    between atoms: C_5  and  C_6
REMARK    2  A    between atoms: C_6  and  N_7
REMARK    3  A    between atoms: N_10  and  N_11
REMARK                            x       y       z     vdW  Elec       q    Type
REMARK                         _______ _______ _______ _____ _____    ______ ____
ROOT
ATOM      1  N   UNL     1      -1.544  -1.274  -1.371  0.00  0.00    -0.294 N 
ATOM      2  C   UNL     1      -2.564  -2.121  -1.612  0.00  0.00    +0.316 C 
ATOM      3  O   UNL     1      -3.163  -2.631  -0.685  0.00  0.00    -0.251 OA
ATOM      4  N   UNL     1      -2.922  -2.401  -2.881  0.00  0.00    -0.219 N 
ATOM      5  H   UNL     1      -1.067  -0.866  -2.111  0.00  0.00    +0.151 HD
ATOM      6  H   UNL     1      -3.656  -3.011  -3.055  0.00  0.00    +0.174 HD
ENDROOT
BRANCH   4   7
ATOM      7  N   UNL     1      -2.232  -1.813  -3.950  0.00  0.00    -0.246 N 
ATOM      8  C   UNL     1      -2.601  -2.103  -5.259  0.00  0.00    +0.157 A 
ATOM      9  C   UNL     1      -1.913  -1.523  -6.325  0.00  0.00    +0.050 A 
ATOM     10  C   UNL     1      -2.319  -1.844  -7.610  0.00  0.00    +0.045 A 
ATOM     11  C   UNL     1      -3.386  -2.722  -7.758  0.00  0.00    +0.152 A 
ATOM     12  N   UNL     1      -3.979  -3.224  -6.692  0.00  0.00    -0.136 NA
ATOM     13  N   UNL     1      -3.604  -2.934  -5.500  0.00  0.00    -0.132 NA
ATOM     14 CL   UNL     1      -3.937  -3.159  -9.345  0.00  0.00    -0.060 Cl
ATOM     15  H   UNL     1      -1.498  -1.204  -3.776  0.00  0.00    +0.172 HD
ENDBRANCH   4   7
BRANCH   1  16
ATOM     16  C   UNL     1      -1.156  -0.969   0.008  0.00  0.00    +0.148 C 
BRANCH  16  21
ATOM     17  C   UNL     1      -0.016   1.351   0.009  0.00  0.00    +0.014 A 
ATOM     18  C   UNL     1       1.184   2.038   0.002  0.00  0.00    +0.028 A 
ATOM     19  C   UNL     1       2.343   1.335  -0.013  0.00  0.00    +0.078 A 
ATOM     20  S   UNL     1       1.753  -0.350  -0.017  0.00  0.00    -0.080 S 
ATOM     21  C   UNL     1       0.002  -0.004   0.002  0.00  0.00    +0.008 A 
ATOM     22 CL   UNL     1       3.977   1.921  -0.026  0.00  0.00    -0.076 Cl
ENDBRANCH  16  21
ENDBRANCH   1  16
TORSDOF 3
