REMARK  Name = ZINC15672898
REMARK  10 active torsions:
REMARK  status: ('A' for Active; 'I' for Inactive)
REMARK    1  A    between atoms: C_1  and  C_2
REMARK    2  A    between atoms: C_2  and  N_70
REMARK    3  A    between atoms: C_3  and  C_4
REMARK    4  A    between atoms: C_3  and  N_70
REMARK    5  A    between atoms: C_5  and  C_6
REMARK    6  A    between atoms: C_5  and  N_70
REMARK    7  A    between atoms: C_6  and  N_7
REMARK    8  A    between atoms: C_16  and  C_17
REMARK    9  A    between atoms: C_16  and  C_18
REMARK   10  A    between atoms: N_20  and  C_21
REMARK                            x       y       z     vdW  Elec       q    Type
REMARK                         _______ _______ _______ _____ _____    ______ ____
ROOT
ATOM      1  N   UNL     1      -0.177  -3.907  -6.061  0.00  0.00    -0.282 N 
ATOM      2  C   UNL     1      -1.463  -3.503  -6.172  0.00  0.00    +0.264 C 
ATOM      3  O   UNL     1      -2.363  -4.048  -5.561  0.00  0.00    -0.268 OA
ATOM      4  C   UNL     1      -1.712  -2.370  -7.072  0.00  0.00    +0.106 A 
ATOM      5  C   UNL     1      -2.834  -1.619  -7.263  0.00  0.00    +0.048 A 
ATOM      6  C   UNL     1      -2.523  -0.654  -8.214  0.00  0.00    +0.038 A 
ATOM      7  C   UNL     1      -1.190  -0.810  -8.623  0.00  0.00    +0.057 A 
ATOM      8  N   UNL     1      -0.708  -1.888  -7.905  0.00  0.00    -0.333 N 
ATOM      9  C   UNL     1       0.622  -2.502  -7.949  0.00  0.00    +0.157 C 
ATOM     10  C   UNL     1       0.933  -3.120  -6.585  0.00  0.00    +0.128 C 
ATOM     11  C   UNL     1       2.159  -4.025  -6.721  0.00  0.00    +0.043 C 
ATOM     12  C   UNL     1      -0.740   0.107  -9.584  0.00  0.00    +0.034 A 
ATOM     13  C   UNL     1      -1.572   1.058 -10.058  0.00  0.00    +0.048 A 
ATOM     14  S   UNL     1      -3.084   0.732  -9.169  0.00  0.00    -0.095 S 
ENDROOT
BRANCH  10  15
ATOM     15  C   UNL     1       1.249  -2.015  -5.611  0.00  0.00    +0.238 C 
ATOM     16  O   UNL     1       2.400  -1.675  -5.432  0.00  0.00    -0.273 OA
ATOM     17  N   UNL     1       0.254  -1.404  -4.938  0.00  0.00    -0.311 N 
ATOM     18  H   UNL     1      -0.666  -1.676  -5.082  0.00  0.00    +0.149 HD
BRANCH  17  19
ATOM     19  C   UNL     1       0.561  -0.330  -3.991  0.00  0.00    +0.073 C 
ATOM     20  C   UNL     1      -0.554  -0.235  -2.947  0.00  0.00    +0.022 C 
ATOM     21  C   UNL     1      -0.065   0.586  -1.753  0.00  0.00    +0.002 C 
ATOM     22  C   UNL     1      -0.064   2.071  -2.121  0.00  0.00    +0.000 C 
ATOM     23  C   UNL     1       1.377   2.584  -2.167  0.00  0.00    +0.000 C 
ATOM     24  C   UNL     1       2.257   1.569  -2.900  0.00  0.00    +0.000 C 
ATOM     25  C   UNL     1       2.003   1.668  -4.405  0.00  0.00    +0.002 C 
ATOM     26  C   UNL     1       0.670   0.998  -4.743  0.00  0.00    +0.022 C 
ENDBRANCH  17  19
ENDBRANCH  10  15
BRANCH   1  27
ATOM     27  C   UNL     1       0.108  -5.177  -5.391  0.00  0.00    +0.091 C 
BRANCH  27  28
ATOM     28  C   UNL     1       0.314  -4.930  -3.895  0.00  0.00    -0.060 C 
BRANCH  28  29
ATOM     29  N   UNL     1       0.622  -6.217  -3.237  0.00  0.00    +0.380 N 
ATOM     30  H   UNL     1       1.392  -6.673  -3.740  0.00  0.00    -0.082 HD
BRANCH  29  32
ATOM     31  C   UNL     1       2.482  -5.483  -1.831  0.00  0.00    -0.017 C 
ATOM     32  C   UNL     1       1.036  -5.982  -1.837  0.00  0.00    -0.082 C 
ENDBRANCH  29  32
BRANCH  29  33
ATOM     33  C   UNL     1      -0.564  -7.098  -3.272  0.00  0.00    -0.082 C 
ATOM     34  C   UNL     1      -0.126  -8.525  -2.934  0.00  0.00    -0.017 C 
ENDBRANCH  29  33
ENDBRANCH  28  29
ENDBRANCH  27  28
ENDBRANCH   1  27
TORSDOF 7
