REMARK  Name = ZINC01364468
REMARK  7 active torsions:
REMARK  status: ('A' for Active; 'I' for Inactive)
REMARK    1  A    between atoms: C_1  and  N_2
REMARK    2  A    between atoms: C_3  and  C_19
REMARK    3  A    between atoms: C_6  and  S_7
REMARK    4  A    between atoms: S_7  and  C_8
REMARK    5  A    between atoms: C_8  and  C_9
REMARK    6  A    between atoms: N_11  and  C_12
REMARK    7  A    between atoms: C_24  and  N_25
REMARK                            x       y       z     vdW  Elec       q    Type
REMARK                         _______ _______ _______ _____ _____    ______ ____
ROOT
ATOM      1  C   UNL     1      -2.887   0.185  -0.904  0.00  0.00    +0.153 C 
ATOM      2  N   UNL     1      -2.563   1.575  -0.570  0.00  0.00    -0.305 N 
ATOM      3  C   UNL     1      -1.312   2.112  -0.371  0.00  0.00    +0.166 A 
ATOM      4  N   UNL     1      -1.479   3.383  -0.087  0.00  0.00    -0.128 NA
ATOM      5  N   UNL     1      -2.730   3.675  -0.105  0.00  0.00    -0.122 NA
ATOM      6  C   UNL     1      -3.440   2.607  -0.391  0.00  0.00    +0.192 A 
ENDROOT
BRANCH   3   7
ATOM      7  C   UNL     1      -0.024   1.392  -0.453  0.00  0.00    +0.040 A 
ATOM      8  C   UNL     1       0.139   0.169   0.197  0.00  0.00    +0.013 A 
ATOM      9  C   UNL     1       1.342  -0.501   0.111  0.00  0.00    +0.001 A 
ATOM     10  C   UNL     1       2.390   0.035  -0.617  0.00  0.00    +0.002 A 
ATOM     11  C   UNL     1       2.242   1.246  -1.266  0.00  0.00    +0.023 A 
ATOM     12  C   UNL     1       1.039   1.933  -1.190  0.00  0.00    +0.035 A 
BRANCH  12  13
ATOM     13  N   UNL     1       0.888   3.155  -1.845  0.00  0.00    -0.357 N 
ATOM     14  H   UNL     1       0.045   3.633  -1.791  0.00  0.00    +0.142 HD
ATOM     15  H   UNL     1       1.625   3.527  -2.354  0.00  0.00    +0.142 HD
ENDBRANCH  12  13
ENDBRANCH   3   7
BRANCH   6  16
ATOM     16  S   UNL     1      -5.195   2.522  -0.519  0.00  0.00    -0.077 S 
BRANCH  16  17
ATOM     17  C   UNL     1      -5.621   4.243  -0.156  0.00  0.00    +0.173 C 
BRANCH  17  18
ATOM     18  C   UNL     1      -7.117   4.413  -0.210  0.00  0.00    +0.227 C 
ATOM     19  O   UNL     1      -7.826   3.463  -0.469  0.00  0.00    -0.275 OA
ATOM     20  N   UNL     1      -7.668   5.619   0.029  0.00  0.00    -0.285 N 
ATOM     21  H   UNL     1      -7.099   6.394   0.162  0.00  0.00    +0.155 HD
BRANCH  20  22
ATOM     22  C   UNL     1      -9.060   5.755   0.085  0.00  0.00    +0.033 A 
ATOM     23  C   UNL     1      -9.662   6.930  -0.345  0.00  0.00    +0.025 A 
ATOM     24  C   UNL     1     -11.036   7.059  -0.293  0.00  0.00    +0.022 A 
ATOM     25  C   UNL     1     -11.812   6.023   0.196  0.00  0.00    +0.041 A 
ATOM     26  C   UNL     1     -11.214   4.853   0.630  0.00  0.00    +0.022 A 
ATOM     27  C   UNL     1      -9.840   4.716   0.575  0.00  0.00    +0.025 A 
ATOM     28 CL   UNL     1     -13.538   6.191   0.266  0.00  0.00    -0.084 Cl
ENDBRANCH  20  22
ENDBRANCH  17  18
ENDBRANCH  16  17
ENDBRANCH   6  16
TORSDOF 6
