REMARK  Name = ZINC62790912
REMARK  4 active torsions:
REMARK  status: ('A' for Active; 'I' for Inactive)
REMARK    1  A    between atoms: C_1  and  C_2
REMARK    2  A    between atoms: C_7  and  C_9
REMARK    3  A    between atoms: C_7  and  N_22
REMARK    4  A    between atoms: C_11  and  C_14
REMARK                            x       y       z     vdW  Elec       q    Type
REMARK                         _______ _______ _______ _____ _____    ______ ____
ROOT
ATOM      1  C   UNL     1       0.223   1.492   2.497  0.00  0.00    +0.216 A 
ATOM      2  N   UNL     1       1.252   2.268   2.308  0.00  0.00    -0.193 NA
ATOM      3  C   UNL     1       0.876   3.558   2.381  0.00  0.00    +0.202 A 
ATOM      4  N   UNL     1      -0.412   3.605   2.620  0.00  0.00    -0.056 NA
ATOM      5  O   UNL     1      -0.857   2.259   2.695  0.00  0.00    -0.339 OA
ENDROOT
BRANCH   3   6
ATOM      6  C   UNL     1       1.770   4.731   2.218  0.00  0.00    +0.024 A 
ATOM      7  C   UNL     1       3.127   4.545   1.960  0.00  0.00    +0.014 A 
ATOM      8  C   UNL     1       3.955   5.638   1.809  0.00  0.00    +0.040 A 
ATOM      9  C   UNL     1       3.439   6.920   1.913  0.00  0.00    +0.142 A 
ATOM     10  C   UNL     1       2.090   7.110   2.170  0.00  0.00    +0.077 A 
ATOM     11  C   UNL     1       1.254   6.021   2.317  0.00  0.00    +0.034 A 
ATOM     12 CL   UNL     1       1.451   8.719   2.301  0.00  0.00    -0.081 Cl
ATOM     13  F   UNL     1       4.254   7.987   1.764  0.00  0.00    -0.204 F 
ENDBRANCH   3   6
BRANCH   1  19
ATOM     14  C   UNL     1      -0.048   1.525   0.013  0.00  0.00    +0.007 C 
ATOM     15  C   UNL     1      -0.027  -0.004   0.005  0.00  0.00    -0.015 C 
ATOM     16  C   UNL     1      -1.454  -0.535   0.158  0.00  0.00    +0.003 C 
ATOM     17  C   UNL     1      -2.042  -0.040   1.481  0.00  0.00    -0.001 C 
ATOM     18  C   UNL     1      -1.183  -0.545   2.642  0.00  0.00    -0.004 C 
ATOM     19  C   UNL     1       0.244  -0.015   2.489  0.00  0.00    +0.010 C 
ATOM     20  C   UNL     1       0.832  -0.509   1.166  0.00  0.00    -0.001 C 
BRANCH  19  21
ATOM     21  N   UNL     1       1.068  -0.499   3.604  0.00  0.00    +0.388 N 
ATOM     22  H   UNL     1       1.082  -1.508   3.598  0.00  0.00    -0.089 HD
ATOM     23  H   UNL     1       2.009  -0.149   3.503  0.00  0.00    -0.089 HD
ATOM     24  H   UNL     1       0.680  -0.173   4.476  0.00  0.00    -0.089 HD
ENDBRANCH  19  21
ENDBRANCH   1  19
TORSDOF 3
