REMARK  Name = ZINC15967909
REMARK  4 active torsions:
REMARK  status: ('A' for Active; 'I' for Inactive)
REMARK    1  A    between atoms: C_4  and  C_7
REMARK    2  A    between atoms: C_7  and  C_8
REMARK    3  A    between atoms: C_8  and  N_9
REMARK    4  A    between atoms: C_10  and  C_12
REMARK                            x       y       z     vdW  Elec       q    Type
REMARK                         _______ _______ _______ _____ _____    ______ ____
ROOT
ATOM      1  C   UNL     1      -6.202   5.911  -2.524  0.00  0.00    +0.167 C 
ATOM      2  C   UNL     1      -6.066   7.204  -1.707  0.00  0.00    +0.069 C 
ATOM      3  C   UNL     1      -7.152   8.177  -2.085  0.00  0.00    -0.015 A 
ATOM      4  C   UNL     1      -7.559   9.366  -1.357  0.00  0.00    +0.003 A 
ATOM      5  C   UNL     1      -7.112   9.937  -0.161  0.00  0.00    +0.010 A 
ATOM      6  C   UNL     1      -7.736  11.091   0.245  0.00  0.00    +0.001 A 
ATOM      7  C   UNL     1      -8.760  11.671  -0.487  0.00  0.00    +0.002 A 
ATOM      8  C   UNL     1      -9.221  11.126  -1.673  0.00  0.00    +0.026 A 
ATOM      9  C   UNL     1      -8.606   9.954  -2.110  0.00  0.00    +0.047 A 
ATOM     10  N   UNL     1      -8.806   9.169  -3.208  0.00  0.00    -0.356 N 
ATOM     11  H   UNL     1      -9.461   9.338  -3.903  0.00  0.00    +0.166 HD
ATOM     12  C   UNL     1      -7.941   8.109  -3.182  0.00  0.00    +0.046 A 
ATOM     13  C   UNL     1      -7.842   6.995  -4.196  0.00  0.00    +0.155 C 
ATOM     14  N   UNL     1      -6.579   6.283  -3.892  0.00  0.00    -0.273 N 
ATOM     15  C   UNL     1      -5.900   6.137  -5.058  0.00  0.00    +0.248 C 
ATOM     16  O   UNL     1      -4.925   5.427  -5.209  0.00  0.00    -0.270 OA
ATOM     17  C   UNL     1      -6.527   6.946  -6.108  0.00  0.00    +0.042 A 
ATOM     18  C   UNL     1      -7.717   7.500  -5.593  0.00  0.00    -0.009 A 
ATOM     19  C   UNL     1      -8.513   8.329  -6.351  0.00  0.00    +0.006 A 
ATOM     20  C   UNL     1      -8.096   8.591  -7.652  0.00  0.00    +0.000 A 
ATOM     21  C   UNL     1      -6.938   8.046  -8.169  0.00  0.00    +0.001 A 
ATOM     22  C   UNL     1      -6.123   7.212  -7.418  0.00  0.00    +0.013 A 
ENDROOT
BRANCH   1  24
ATOM     23  N   UNL     1      -4.752   4.022  -1.854  0.00  0.00    -0.313 N 
ATOM     24  C   UNL     1      -4.887   5.175  -2.539  0.00  0.00    +0.234 C 
ATOM     25  O   UNL     1      -3.950   5.620  -3.167  0.00  0.00    -0.274 OA
ATOM     26  H   UNL     1      -5.501   3.666  -1.352  0.00  0.00    +0.149 HD
BRANCH  23  27
ATOM     27  C   UNL     1      -3.473   3.307  -1.869  0.00  0.00    +0.109 C 
BRANCH  27  28
ATOM     28  C   UNL     1      -3.588   2.039  -1.020  0.00  0.00    +0.054 C 
BRANCH  28  32
ATOM     29  C   UNL     1       0.140  -0.045  -1.063  0.00  0.00    +0.000 A 
ATOM     30  C   UNL     1      -0.818  -0.323  -2.020  0.00  0.00    +0.000 A 
ATOM     31  C   UNL     1      -2.023   0.355  -2.009  0.00  0.00    +0.004 A 
ATOM     32  C   UNL     1      -2.273   1.304  -1.035  0.00  0.00    -0.046 A 
ATOM     33  C   UNL     1      -1.315   1.581  -0.077  0.00  0.00    +0.004 A 
ATOM     34  C   UNL     1      -0.109   0.906  -0.091  0.00  0.00    +0.000 A 
ENDBRANCH  28  32
ENDBRANCH  27  28
ENDBRANCH  23  27
ENDBRANCH   1  24
TORSDOF 4
