REMARK  Name = ZINC36694826
REMARK  7 active torsions:
REMARK  status: ('A' for Active; 'I' for Inactive)
REMARK    1  A    between atoms: C_1  and  C_2
REMARK    2  A    between atoms: C_2  and  C_4
REMARK    3  A    between atoms: C_2  and  N_11
REMARK    4  A    between atoms: C_12  and  C_14
REMARK    5  A    between atoms: C_14  and  N_15
REMARK    6  A    between atoms: C_18  and  C_22
REMARK    7  A    between atoms: C_18  and  C_23
REMARK                            x       y       z     vdW  Elec       q    Type
REMARK                         _______ _______ _______ _____ _____    ______ ____
ROOT
ATOM      1  N   UNL     1       4.181  -1.104  -2.214  0.00  0.00    -0.215 N 
ATOM      2  C   UNL     1       5.010  -0.068  -2.449  0.00  0.00    +0.251 C 
ATOM      3  O   UNL     1       4.713   1.024  -2.883  0.00  0.00    -0.272 OA
ATOM      4  C   UNL     1       6.392  -0.552  -2.057  0.00  0.00    +0.135 C 
ATOM      5  N   UNL     1       6.160  -1.934  -1.605  0.00  0.00    -0.281 N 
ATOM      6  C   UNL     1       4.840  -2.163  -1.729  0.00  0.00    +0.310 C 
ATOM      7  O   UNL     1       4.306  -3.214  -1.436  0.00  0.00    -0.252 OA
ATOM      8  C   UNL     1       7.332  -0.532  -3.265  0.00  0.00    +0.047 C 
ATOM      9  H   UNL     1       6.827  -2.557  -1.278  0.00  0.00    +0.152 HD
ENDROOT
BRANCH   4  10
ATOM     10  C   UNL     1       6.949   0.287  -0.936  0.00  0.00    -0.015 A 
ATOM     11  C   UNL     1       6.569   1.623  -0.824  0.00  0.00    +0.007 A 
ATOM     12  C   UNL     1       7.053   2.408   0.177  0.00  0.00    +0.009 A 
ATOM     13  C   UNL     1       7.951   1.866   1.113  0.00  0.00    -0.018 A 
ATOM     14  C   UNL     1       8.473   2.645   2.159  0.00  0.00    +0.008 A 
ATOM     15  C   UNL     1       9.340   2.087   3.047  0.00  0.00    +0.001 A 
ATOM     16  C   UNL     1       9.720   0.751   2.935  0.00  0.00    +0.001 A 
ATOM     17  C   UNL     1       9.236  -0.034   1.934  0.00  0.00    +0.008 A 
ATOM     18  C   UNL     1       8.338   0.508   0.998  0.00  0.00    -0.018 A 
ATOM     19  C   UNL     1       7.812  -0.273  -0.045  0.00  0.00    +0.014 A 
ENDBRANCH   4  10
BRANCH   1  20
ATOM     20  C   UNL     1       2.736  -1.073  -2.455  0.00  0.00    +0.213 C 
BRANCH  20  22
ATOM     21  N   UNL     1       0.688  -0.476  -1.203  0.00  0.00    -0.307 N 
ATOM     22  C   UNL     1       2.031  -0.587  -1.215  0.00  0.00    +0.231 C 
ATOM     23  O   UNL     1       2.672  -0.295  -0.228  0.00  0.00    -0.274 OA
ATOM     24  H   UNL     1       0.175  -0.710  -1.993  0.00  0.00    +0.149 HD
BRANCH  21  26
ATOM     25  C   UNL     1      -0.019   1.526   0.010  0.00  0.00    +0.033 C 
ATOM     26  C   UNL     1       0.002  -0.004   0.002  0.00  0.00    +0.100 C 
BRANCH  26  27
ATOM     27  C   UNL     1      -1.412  -0.526   0.013  0.00  0.00    -0.026 A 
ATOM     28  C   UNL     1      -2.142  -0.569  -1.161  0.00  0.00    +0.005 A 
ATOM     29  C   UNL     1      -3.438  -1.047  -1.152  0.00  0.00    +0.002 A 
ATOM     30  C   UNL     1      -4.006  -1.482   0.031  0.00  0.00    +0.020 A 
ATOM     31  C   UNL     1      -3.277  -1.439   1.205  0.00  0.00    +0.041 A 
ATOM     32  C   UNL     1      -1.977  -0.966   1.194  0.00  0.00    +0.025 A 
ATOM     33 CL   UNL     1      -3.990  -1.986   2.691  0.00  0.00    -0.084 Cl
ENDBRANCH  26  27
ENDBRANCH  21  26
ENDBRANCH  20  22
ENDBRANCH   1  20
TORSDOF 5
