REMARK  Name = ZINC64199029
REMARK  8 active torsions:
REMARK  status: ('A' for Active; 'I' for Inactive)
REMARK    1  A    between atoms: N_9  and  C_14
REMARK    2  A    between atoms: C_10  and  O_13
REMARK    3  A    between atoms: C_14  and  C_15
REMARK    4  A    between atoms: C_15  and  C_16
REMARK    5  A    between atoms: C_16  and  C_17
REMARK    6  A    between atoms: C_17  and  C_18
REMARK    7  A    between atoms: C_18  and  C_19
REMARK    8  A    between atoms: N_21  and  C_22
REMARK                            x       y       z     vdW  Elec       q    Type
REMARK                         _______ _______ _______ _____ _____    ______ ____
ROOT
ATOM      1  C   UNL     1       2.326  -6.337  -1.500  0.00  0.00    +0.002 C 
ENDROOT
BRANCH   1   2
ATOM      2  C   UNL     1       2.219  -4.813  -1.582  0.00  0.00    +0.019 C 
BRANCH   2   3
ATOM      3  C   UNL     1       2.578  -4.203  -0.226  0.00  0.00    +0.112 C 
BRANCH   3  12
ATOM      4  C   UNL     1      -0.017   1.375   0.010  0.00  0.00    +0.001 A 
ATOM      5  C   UNL     1       1.168   2.095   0.002  0.00  0.00    +0.002 A 
ATOM      6  C   UNL     1       2.386   1.444  -0.015  0.00  0.00    +0.024 A 
ATOM      7  C   UNL     1       2.422   0.060  -0.024  0.00  0.00    +0.042 A 
ATOM      8  C   UNL     1       1.223  -0.674  -0.013  0.00  0.00    +0.058 A 
ATOM      9  C   UNL     1       0.002  -0.004   0.002  0.00  0.00    +0.015 A 
ATOM     10  C   UNL     1       1.301  -2.146  -0.013  0.00  0.00    +0.251 C 
ATOM     11  O   UNL     1       0.318  -2.814   0.246  0.00  0.00    -0.270 OA
ATOM     12  N   UNL     1       2.475  -2.744  -0.304  0.00  0.00    -0.256 N 
ATOM     13  C   UNL     1       3.647  -1.961  -0.696  0.00  0.00    +0.299 C 
ATOM     14  N   UNL     1       3.620  -0.645  -0.047  0.00  0.00    -0.303 N 
ATOM     15  H   UNL     1       4.421  -0.275   0.357  0.00  0.00    +0.150 HD
BRANCH  13  16
ATOM     16  O   UNL     1       3.646  -1.786  -2.114  0.00  0.00    -0.359 OA
ATOM     17  H   UNL     1       4.397  -1.275  -2.448  0.00  0.00    +0.213 HD
ENDBRANCH  13  16
ENDBRANCH   3  12
ENDBRANCH   2   3
ENDBRANCH   1   2
BRANCH   1  18
ATOM     18  C   UNL     1       1.967  -6.947  -2.856  0.00  0.00    +0.009 C 
BRANCH  18  19
ATOM     19  C   UNL     1       2.074  -8.471  -2.774  0.00  0.00    +0.096 C 
BRANCH  19  20
ATOM     20  C   UNL     1       1.720  -9.072  -4.110  0.00  0.00    +0.216 C 
ATOM     21  O   UNL     1       1.413  -8.353  -5.036  0.00  0.00    -0.276 OA
ATOM     22  N   UNL     1       1.746 -10.410  -4.275  0.00  0.00    -0.278 N 
ATOM     23  H   UNL     1       1.992 -10.986  -3.534  0.00  0.00    +0.152 HD
BRANCH  22  24
ATOM     24  C   UNL     1       1.402 -10.994  -5.574  0.00  0.00    +0.269 C 
ATOM     25  N   UNL     1      -0.055 -11.005  -5.752  0.00  0.00    -0.348 N 
ATOM     26  C   UNL     1      -0.423 -12.246  -5.890  0.00  0.00    +0.061 A 
ATOM     27  C   UNL     1      -1.731 -12.883  -6.096  0.00  0.00    +0.027 A 
ATOM     28  C   UNL     1      -1.807 -14.225  -6.206  0.00  0.00    +0.002 A 
ATOM     29  C   UNL     1      -0.675 -15.057  -6.131  0.00  0.00    +0.002 A 
ATOM     30  C   UNL     1       0.570 -14.576  -5.943  0.00  0.00    +0.027 A 
ATOM     31  C   UNL     1       0.774 -13.127  -5.810  0.00  0.00    +0.061 A 
ATOM     32  N   UNL     1       1.836 -12.396  -5.627  0.00  0.00    -0.348 N 
ATOM     33  H   UNL     1      -0.638 -10.229  -5.764  0.00  0.00    +0.163 HD
ATOM     34  H   UNL     1       2.747 -12.719  -5.540  0.00  0.00    +0.163 HD
ENDBRANCH  22  24
ENDBRANCH  19  20
ENDBRANCH  18  19
ENDBRANCH   1  18
TORSDOF 8
