REMARK  Name = ZINC63514323
REMARK  7 active torsions:
REMARK  status: ('A' for Active; 'I' for Inactive)
REMARK    1  A    between atoms: C_1  and  O_2
REMARK    2  A    between atoms: O_2  and  C_3
REMARK    3  A    between atoms: C_8  and  S_13
REMARK    4  A    between atoms: S_13  and  C_14
REMARK    5  A    between atoms: C_14  and  C_15
REMARK    6  A    between atoms: N_17  and  C_18
REMARK    7  A    between atoms: C_19  and  C_27
REMARK                            x       y       z     vdW  Elec       q    Type
REMARK                         _______ _______ _______ _____ _____    ______ ____
ROOT
ATOM      1  C   UNL     1      -1.323  -4.513  -6.081  0.00  0.00    +0.228 C 
ATOM      2  O   UNL     1      -1.052  -5.577  -6.596  0.00  0.00    -0.275 OA
ATOM      3  N   UNL     1      -2.473  -3.886  -6.395  0.00  0.00    -0.269 N 
ATOM      4  H   UNL     1      -2.733  -3.082  -5.919  0.00  0.00    +0.156 HD
ENDROOT
BRANCH   3   5
ATOM      5  C   UNL     1      -3.291  -4.393  -7.406  0.00  0.00    +0.137 A 
ATOM      6  C   UNL     1      -4.665  -4.292  -7.481  0.00  0.00    +0.112 A 
ATOM      7  N   UNL     1      -5.067  -4.909  -8.606  0.00  0.00    -0.226 NA
ATOM      8  C   UNL     1      -4.010  -5.391  -9.241  0.00  0.00    +0.140 A 
ATOM      9  N   UNL     1      -2.884  -5.080  -8.517  0.00  0.00    -0.287 N 
ATOM     10  C   UNL     1      -1.648  -5.462  -8.962  0.00  0.00    +0.094 A 
ATOM     11  C   UNL     1      -1.515  -6.146 -10.116  0.00  0.00    +0.018 A 
ATOM     12  C   UNL     1      -2.648  -6.477 -10.880  0.00  0.00    +0.005 A 
ATOM     13  C   UNL     1      -3.884  -6.112 -10.448  0.00  0.00    +0.047 A 
BRANCH   6  14
ATOM     14  C   UNL     1      -5.544  -3.623  -6.494  0.00  0.00    +0.004 A 
ATOM     15  C   UNL     1      -5.228  -3.661  -5.136  0.00  0.00    +0.010 A 
ATOM     16  C   UNL     1      -6.050  -3.035  -4.221  0.00  0.00    +0.001 A 
ATOM     17  C   UNL     1      -7.186  -2.371  -4.649  0.00  0.00    +0.000 A 
ATOM     18  C   UNL     1      -7.504  -2.330  -5.994  0.00  0.00    +0.001 A 
ATOM     19  C   UNL     1      -6.687  -2.947  -6.919  0.00  0.00    +0.010 A 
ENDBRANCH   6  14
ENDBRANCH   3   5
BRANCH   1  20
ATOM     20  C   UNL     1      -0.372  -3.892  -5.090  0.00  0.00    +0.169 C 
BRANCH  20  21
ATOM     21  S   UNL     1       1.073  -4.968  -4.882  0.00  0.00    -0.106 S 
BRANCH  21  27
ATOM     22  C   UNL     1       0.723  -0.438  -1.232  0.00  0.00    +0.122 A 
ATOM     23  C   UNL     1       1.401   0.255  -2.319  0.00  0.00    +0.048 A 
ATOM     24  C   UNL     1       1.994  -0.412  -3.327  0.00  0.00    +0.031 A 
ATOM     25  C   UNL     1       1.966  -1.882  -3.347  0.00  0.00    +0.061 A 
ATOM     26  N   UNL     1       2.448  -2.756  -4.183  0.00  0.00    -0.355 N 
ATOM     27  C   UNL     1       2.104  -4.090  -3.675  0.00  0.00    +0.236 C 
ATOM     28  N   UNL     1       1.356  -3.880  -2.430  0.00  0.00    -0.355 N 
ATOM     29  C   UNL     1       1.274  -2.591  -2.236  0.00  0.00    +0.064 A 
ATOM     30  C   UNL     1       0.659  -1.791  -1.176  0.00  0.00    +0.073 A 
ATOM     31  H   UNL     1       2.944  -2.562  -4.994  0.00  0.00    +0.162 HD
ATOM     32  H   UNL     1       0.990  -4.571  -1.856  0.00  0.00    +0.162 HD
BRANCH  22  34
ATOM     33  C   UNL     1       0.238   1.712  -0.348  0.00  0.00    +0.277 C 
ATOM     34  O   UNL     1       0.144   0.290  -0.245  0.00  0.00    -0.495 OA
ENDBRANCH  22  34
ENDBRANCH  21  27
ENDBRANCH  20  21
ENDBRANCH   1  20
TORSDOF 6
