REMARK  Name = ZINC59447393
REMARK  9 active torsions:
REMARK  status: ('A' for Active; 'I' for Inactive)
REMARK    1  A    between atoms: C_4  and  C_7
REMARK    2  A    between atoms: C_7  and  C_8
REMARK    3  A    between atoms: C_7  and  C_14
REMARK    4  A    between atoms: C_7  and  O_37
REMARK    5  A    between atoms: N_16  and  N_17
REMARK    6  A    between atoms: C_18  and  C_19
REMARK    7  A    between atoms: C_22  and  O_25
REMARK    8  A    between atoms: O_25  and  C_26
REMARK    9  A    between atoms: C_26  and  C_27
REMARK                            x       y       z     vdW  Elec       q    Type
REMARK                         _______ _______ _______ _____ _____    ______ ____
ROOT
ATOM      1  N   UNL     1       5.556  -0.365  -3.305  0.00  0.00    -0.188 NA
ATOM      2  C   UNL     1       6.193   0.555  -3.962  0.00  0.00    +0.138 C 
ENDROOT
BRANCH   2   3
ATOM      3  C   UNL     1       6.792   0.244  -5.272  0.00  0.00    -0.005 A 
ATOM      4  C   UNL     1       6.671  -1.040  -5.811  0.00  0.00    +0.013 A 
ATOM      5  C   UNL     1       7.232  -1.326  -7.037  0.00  0.00    +0.046 A 
ATOM      6  C   UNL     1       7.918  -0.341  -7.736  0.00  0.00    +0.121 A 
ATOM      7  C   UNL     1       8.042   0.936  -7.203  0.00  0.00    +0.046 A 
ATOM      8  C   UNL     1       7.479   1.233  -5.981  0.00  0.00    +0.013 A 
BRANCH   6   9
ATOM      9  O   UNL     1       8.470  -0.627  -8.943  0.00  0.00    -0.487 OA
BRANCH   9  10
ATOM     10  C   UNL     1       9.162   0.432  -9.608  0.00  0.00    +0.265 C 
BRANCH  10  11
ATOM     11  C   UNL     1       9.703  -0.069 -10.923  0.00  0.00    -0.003 A 
ATOM     12  C   UNL     1       9.489  -1.358 -11.305  0.00  0.00    +0.007 A 
ATOM     13  C   UNL     1       9.980  -1.839 -12.516  0.00  0.00    +0.001 A 
ATOM     14  C   UNL     1      10.690  -1.033 -13.353  0.00  0.00    +0.008 A 
ATOM     15  C   UNL     1      10.932   0.303 -12.993  0.00  0.00    -0.018 A 
ATOM     16  C   UNL     1      10.426   0.794 -11.764  0.00  0.00    -0.011 A 
ATOM     17  C   UNL     1      10.662   2.133 -11.406  0.00  0.00    +0.009 A 
ATOM     18  C   UNL     1      11.367   2.939 -12.246  0.00  0.00    +0.001 A 
ATOM     19  C   UNL     1      11.859   2.458 -13.458  0.00  0.00    +0.001 A 
ATOM     20  C   UNL     1      11.661   1.165 -13.831  0.00  0.00    +0.008 A 
ENDBRANCH  10  11
ENDBRANCH   9  10
ENDBRANCH   6   9
ENDBRANCH   2   3
BRANCH   1  23
ATOM     21  C   UNL     1       4.324  -1.025  -1.377  0.00  0.00    +0.273 C 
ATOM     22  O   UNL     1       4.221  -2.141  -1.841  0.00  0.00    -0.270 OA
ATOM     23  N   UNL     1       4.986  -0.070  -2.059  0.00  0.00    -0.204 N 
ATOM     24  H   UNL     1       5.068   0.823  -1.688  0.00  0.00    +0.177 HD
BRANCH  21  25
ATOM     25  C   UNL     1       3.711  -0.707  -0.038  0.00  0.00    +0.194 C 
BRANCH  25  29
ATOM     26  C   UNL     1      -0.165   0.994  -0.614  0.00  0.00    +0.000 A 
ATOM     27  C   UNL     1       0.674   1.499   0.362  0.00  0.00    +0.000 A 
ATOM     28  C   UNL     1       1.928   0.949   0.549  0.00  0.00    +0.007 A 
ATOM     29  C   UNL     1       2.344  -0.107  -0.240  0.00  0.00    -0.003 A 
ATOM     30  C   UNL     1       1.505  -0.613  -1.216  0.00  0.00    +0.007 A 
ATOM     31  C   UNL     1       0.251  -0.061  -1.404  0.00  0.00    +0.000 A 
ENDBRANCH  25  29
BRANCH  25  32
ATOM     32  C   UNL     1       3.590  -1.972   0.772  0.00  0.00    -0.003 A 
ATOM     33  C   UNL     1       4.326  -2.123   1.933  0.00  0.00    +0.007 A 
ATOM     34  C   UNL     1       4.215  -3.284   2.676  0.00  0.00    +0.000 A 
ATOM     35  C   UNL     1       3.367  -4.293   2.259  0.00  0.00    +0.000 A 
ATOM     36  C   UNL     1       2.631  -4.141   1.099  0.00  0.00    +0.000 A 
ATOM     37  C   UNL     1       2.739  -2.979   0.358  0.00  0.00    +0.007 A 
ENDBRANCH  25  32
BRANCH  25  38
ATOM     38  O   UNL     1       4.542   0.225   0.657  0.00  0.00    -0.371 OA
ATOM     39  H   UNL     1       5.439  -0.095   0.822  0.00  0.00    +0.212 HD
ENDBRANCH  25  38
ENDBRANCH  21  25
ENDBRANCH   1  23
TORSDOF 9
