REMARK  Name = ZINC59830112
REMARK  13 active torsions:
REMARK  status: ('A' for Active; 'I' for Inactive)
REMARK    1  A    between atoms: C_1  and  C_2
REMARK    2  A    between atoms: C_2  and  C_3
REMARK    3  A    between atoms: C_3  and  C_5
REMARK    4  A    between atoms: C_3  and  C_6
REMARK    5  A    between atoms: C_9  and  N_12
REMARK    6  A    between atoms: C_13  and  C_15
REMARK    7  A    between atoms: C_15  and  S_16
REMARK    8  A    between atoms: S_16  and  C_17
REMARK    9  A    between atoms: N_21  and  N_22
REMARK   10  A    between atoms: N_23  and  N_24
REMARK   11  A    between atoms: C_25  and  C_26
REMARK   12  A    between atoms: N_29  and  C_31
REMARK   13  A    between atoms: C_31  and  C_32
REMARK                            x       y       z     vdW  Elec       q    Type
REMARK                         _______ _______ _______ _____ _____    ______ ____
ROOT
ATOM      1  C   UNL     1      -2.308 -10.526   3.319  0.00  0.00    +0.210 A 
ATOM      2  N   UNL     1      -1.703 -11.252   2.409  0.00  0.00    -0.119 NA
ATOM      3  N   UNL     1      -1.743 -12.589   2.825  0.00  0.00    -0.109 NA
ATOM      4  C   UNL     1      -2.371 -12.637   3.976  0.00  0.00    +0.254 A 
ATOM      5  N   UNL     1      -2.731 -11.362   4.314  0.00  0.00    -0.211 N 
ATOM      6  N   UNL     1      -2.620 -13.779   4.722  0.00  0.00    -0.204 N 
ATOM      7  H   UNL     1      -3.095 -13.714   5.565  0.00  0.00    +0.177 HD
ENDROOT
BRANCH   5   8
ATOM      8  N   UNL     1      -3.398 -10.989   5.445  0.00  0.00    -0.294 N 
ATOM      9  H   UNL     1      -4.397 -11.007   5.299  0.00  0.00    +0.163 HD
ATOM     10  H   UNL     1      -3.138 -11.571   6.227  0.00  0.00    +0.163 HD
ENDBRANCH   5   8
BRANCH   6  11
ATOM     11  N   UNL     1      -2.187 -15.028   4.257  0.00  0.00    -0.187 NA
ATOM     12  C   UNL     1      -2.420 -16.097   4.955  0.00  0.00    +0.141 C 
BRANCH  12  13
ATOM     13  C   UNL     1      -1.963 -17.412   4.466  0.00  0.00    +0.032 A 
ATOM     14  C   UNL     1      -1.260 -17.661   3.268  0.00  0.00    +0.143 A 
ATOM     15  N   UNL     1      -1.035 -18.945   3.187  0.00  0.00    -0.179 NA
ATOM     16  N   UNL     1      -1.578 -19.570   4.316  0.00  0.00    -0.267 N 
ATOM     17  C   UNL     1      -2.139 -18.625   5.096  0.00  0.00    +0.118 A 
BRANCH  16  18
ATOM     18  C   UNL     1      -1.538 -21.006   4.603  0.00  0.00    +0.170 C 
BRANCH  18  19
ATOM     19  C   UNL     1      -2.127 -21.767   3.442  0.00  0.00    -0.012 C 
ATOM     20  C   UNL     1      -1.433 -22.713   2.859  0.00  0.00    +0.006 C 
ENDBRANCH  18  19
ENDBRANCH  16  18
ENDBRANCH  12  13
ENDBRANCH   6  11
BRANCH   1  21
ATOM     21  S   UNL     1      -2.529  -8.779   3.271  0.00  0.00    -0.075 S 
BRANCH  21  22
ATOM     22  C   UNL     1      -1.750  -8.281   1.710  0.00  0.00    +0.173 C 
BRANCH  22  24
ATOM     23  N   UNL     1      -1.359  -6.190   0.448  0.00  0.00    -0.285 N 
ATOM     24  C   UNL     1      -1.870  -6.788   1.542  0.00  0.00    +0.227 C 
ATOM     25  O   UNL     1      -2.426  -6.125   2.392  0.00  0.00    -0.275 OA
ATOM     26  H   UNL     1      -0.983  -6.726  -0.267  0.00  0.00    +0.155 HD
BRANCH  23  30
ATOM     27  C   UNL     1      -1.395  -2.035   0.137  0.00  0.00    -0.044 A 
ATOM     28  C   UNL     1      -1.244  -2.633   1.374  0.00  0.00    +0.006 A 
ATOM     29  C   UNL     1      -1.232  -4.010   1.481  0.00  0.00    +0.023 A 
ATOM     30  C   UNL     1      -1.372  -4.794   0.344  0.00  0.00    +0.033 A 
ATOM     31  C   UNL     1      -1.524  -4.191  -0.898  0.00  0.00    +0.023 A 
ATOM     32  C   UNL     1      -1.541  -2.813  -0.997  0.00  0.00    +0.006 A 
BRANCH  27  33
ATOM     33  C   UNL     1      -1.409  -0.532   0.024  0.00  0.00    +0.016 C 
ATOM     34  C   UNL     1      -0.083   0.029   0.541  0.00  0.00    +0.012 C 
BRANCH  33  36
ATOM     35  C   UNL     1      -2.652   1.544   0.645  0.00  0.00    +0.004 C 
ATOM     36  C   UNL     1      -2.562   0.031   0.857  0.00  0.00    +0.004 C 
ENDBRANCH  33  36
ENDBRANCH  27  33
ENDBRANCH  23  30
ENDBRANCH  22  24
ENDBRANCH  21  22
ENDBRANCH   1  21
TORSDOF 11
