REMARK  Name = ZINC39530935
REMARK  11 active torsions:
REMARK  status: ('A' for Active; 'I' for Inactive)
REMARK    1  A    between atoms: C_1  and  C_2
REMARK    2  A    between atoms: C_2  and  C_3
REMARK    3  A    between atoms: C_2  and  S_4
REMARK    4  A    between atoms: S_4  and  C_7
REMARK    5  A    between atoms: C_10  and  N_19
REMARK    6  A    between atoms: C_11  and  S_13
REMARK    7  A    between atoms: S_13  and  C_16
REMARK    8  A    between atoms: C_16  and  C_17
REMARK    9  A    between atoms: C_16  and  C_18
REMARK   10  A    between atoms: C_23  and  C_26
REMARK   11  A    between atoms: C_31  and  O_32
REMARK                            x       y       z     vdW  Elec       q    Type
REMARK                         _______ _______ _______ _____ _____    ______ ____
ROOT
ATOM      1  C   UNL     1      -2.774   0.713  -1.599  0.00  0.00    +0.090 A 
ATOM      2  C   UNL     1      -3.344   1.943  -1.875  0.00  0.00    +0.029 A 
ATOM      3  C   UNL     1      -3.626   2.298  -3.179  0.00  0.00    +0.027 A 
ATOM      4  C   UNL     1      -3.336   1.419  -4.215  0.00  0.00    +0.055 A 
ATOM      5  C   UNL     1      -2.763   0.185  -3.935  0.00  0.00    +0.111 A 
ATOM      6  C   UNL     1      -2.479  -0.162  -2.629  0.00  0.00    +0.055 A 
ENDROOT
BRANCH   4   7
ATOM      7  N   UNL     1      -3.620   1.775  -5.536  0.00  0.00    -0.331 N 
ATOM      8  C   UNL     1      -2.582   2.351  -6.404  0.00  0.00    +0.086 C 
ATOM      9  C   UNL     1      -3.137   3.627  -7.045  0.00  0.00    -0.063 C 
ATOM     10  N   UNL     1      -4.398   3.320  -7.731  0.00  0.00    +0.386 N 
ATOM     11  C   UNL     1      -5.409   2.897  -6.753  0.00  0.00    -0.020 C 
ATOM     12  C   UNL     1      -4.965   1.580  -6.099  0.00  0.00    +0.094 C 
ATOM     13  H   UNL     1      -4.725   4.143  -8.216  0.00  0.00    -0.085 HD
ATOM     14  H   UNL     1      -4.246   2.578  -8.397  0.00  0.00    -0.085 HD
BRANCH  11  15
ATOM     15  C   UNL     1      -6.728   2.690  -7.451  0.00  0.00    -0.018 A 
ATOM     16  C   UNL     1      -6.757   2.385  -8.799  0.00  0.00    +0.005 A 
ATOM     17  C   UNL     1      -7.967   2.195  -9.440  0.00  0.00    +0.000 A 
ATOM     18  C   UNL     1      -9.151   2.311  -8.735  0.00  0.00    +0.004 A 
ATOM     19  C   UNL     1      -9.128   2.615  -7.388  0.00  0.00    +0.045 A 
ATOM     20  C   UNL     1      -7.915   2.801  -6.741  0.00  0.00    +0.118 A 
BRANCH  20  21
ATOM     21  O   UNL     1      -7.889   3.095  -5.415  0.00  0.00    -0.507 OA
ATOM     22  H   UNL     1      -7.915   4.043  -5.221  0.00  0.00    +0.292 HD
ENDBRANCH  20  21
ENDBRANCH  11  15
ENDBRANCH   4   7
BRANCH   1  23
ATOM     23  S   UNL     1      -2.416   0.263   0.066  0.00  0.00    -0.001 S 
ATOM     24  O   UNL     1      -2.442  -1.157   0.072  0.00  0.00    -0.169 OA
ATOM     25  O   UNL     1      -3.339   1.008   0.849  0.00  0.00    -0.169 OA
BRANCH  23  27
ATOM     26  C   UNL     1      -0.679   2.374   0.157  0.00  0.00    +0.032 C 
ATOM     27  C   UNL     1      -0.727   0.858   0.357  0.00  0.00    +0.130 C 
ATOM     28  C   UNL     1      -0.306   0.519   1.788  0.00  0.00    +0.032 C 
ENDBRANCH  23  27
ENDBRANCH   1  23
BRANCH   5  29
ATOM     29  S   UNL     1      -2.394  -0.934  -5.245  0.00  0.00    +0.001 S 
ATOM     30  O   UNL     1      -1.766  -0.135  -6.238  0.00  0.00    -0.169 OA
ATOM     31  O   UNL     1      -1.692  -2.001  -4.623  0.00  0.00    -0.169 OA
BRANCH  29  32
ATOM     32  C   UNL     1      -4.010  -1.509  -5.836  0.00  0.00    +0.130 C 
ATOM     33  C   UNL     1      -3.811  -2.465  -7.015  0.00  0.00    +0.032 C 
ATOM     34  C   UNL     1      -4.737  -2.238  -4.705  0.00  0.00    +0.032 C 
ENDBRANCH  29  32
ENDBRANCH   5  29
TORSDOF 7
