REMARK  Name = ZINC35290197
REMARK  6 active torsions:
REMARK  status: ('A' for Active; 'I' for Inactive)
REMARK    1  A    between atoms: C_1  and  C_2
REMARK    2  A    between atoms: C_2  and  C_3
REMARK    3  A    between atoms: C_2  and  C_4
REMARK    4  A    between atoms: C_2  and  N_5
REMARK    5  A    between atoms: C_11  and  C_14
REMARK    6  A    between atoms: C_16  and  C_19
REMARK                            x       y       z     vdW  Elec       q    Type
REMARK                         _______ _______ _______ _____ _____    ______ ____
ROOT
ATOM      1  N   UNL     1       0.688  -0.477  -1.203  0.00  0.00    -0.294 N 
ATOM      2  C   UNL     1       1.972  -0.132  -1.427  0.00  0.00    +0.303 C 
ATOM      3  O   UNL     1       2.532   0.644  -0.678  0.00  0.00    -0.253 OA
ATOM      4  N   UNL     1       2.633  -0.647  -2.482  0.00  0.00    -0.286 N 
ATOM      5  C   UNL     1       1.938  -1.494  -3.461  0.00  0.00    +0.110 C 
ATOM      6  C   UNL     1       2.703  -2.813  -3.604  0.00  0.00    +0.032 C 
ATOM      7  C   UNL     1       4.163  -2.516  -3.954  0.00  0.00    +0.081 C 
ATOM      8  C   UNL     1       4.805  -1.705  -2.827  0.00  0.00    +0.032 C 
ATOM      9  C   UNL     1       4.063  -0.369  -2.678  0.00  0.00    +0.110 C 
ATOM     10  H   UNL     1       0.218  -1.038  -1.839  0.00  0.00    +0.151 HD
ENDROOT
BRANCH   7  11
ATOM     11  C   UNL     1       4.911  -3.813  -4.129  0.00  0.00    +0.231 A 
ATOM     12  N   UNL     1       5.522  -4.199  -5.213  0.00  0.00    -0.191 NA
ATOM     13  C   UNL     1       6.085  -5.405  -5.019  0.00  0.00    +0.202 A 
ATOM     14  N   UNL     1       5.829  -5.795  -3.795  0.00  0.00    -0.056 NA
ATOM     15  O   UNL     1       5.064  -4.760  -3.195  0.00  0.00    -0.337 OA
BRANCH  13  16
ATOM     16  C   UNL     1       6.865  -6.168  -6.026  0.00  0.00    +0.023 A 
ATOM     17  C   UNL     1       7.071  -5.638  -7.298  0.00  0.00    +0.013 A 
ATOM     18  C   UNL     1       7.797  -6.351  -8.230  0.00  0.00    +0.016 A 
ATOM     19  C   UNL     1       8.319  -7.591  -7.903  0.00  0.00    +0.018 A 
ATOM     20  C   UNL     1       8.117  -8.121  -6.641  0.00  0.00    +0.016 A 
ATOM     21  C   UNL     1       7.398  -7.413  -5.699  0.00  0.00    +0.013 A 
ATOM     22 BR   UNL     1       9.313  -8.563  -9.185  0.00  0.00    -0.050 Br
ENDBRANCH  13  16
ENDBRANCH   7  11
BRANCH   1  24
ATOM     23  C   UNL     1      -0.019   1.525   0.011  0.00  0.00    +0.031 C 
ATOM     24  C   UNL     1       0.003  -0.005   0.003  0.00  0.00    +0.028 C 
ATOM     25  C   UNL     1       0.743  -0.511   1.242  0.00  0.00    +0.031 C 
ATOM     26  C   UNL     1      -1.433  -0.535   0.014  0.00  0.00    +0.031 C 
ENDBRANCH   1  24
TORSDOF 3
