REMARK  Name = ZINC14274135
REMARK  9 active torsions:
REMARK  status: ('A' for Active; 'I' for Inactive)
REMARK    1  A    between atoms: C_1  and  C_2
REMARK    2  A    between atoms: C_3  and  C_9
REMARK    3  A    between atoms: C_4  and  C_8
REMARK    4  A    between atoms: C_9  and  C_10
REMARK    5  A    between atoms: C_13  and  N_16
REMARK    6  A    between atoms: N_16  and  C_17
REMARK    7  A    between atoms: C_17  and  N_19
REMARK    8  A    between atoms: C_20  and  C_22
REMARK    9  A    between atoms: C_25  and  C_27
REMARK                            x       y       z     vdW  Elec       q    Type
REMARK                         _______ _______ _______ _____ _____    ______ ____
ROOT
ATOM      1  C   UNL     1      -6.497  -3.800   0.130  0.00  0.00    +0.141 C 
ATOM      2  S   UNL     1      -7.472  -2.504  -0.418  0.00  0.00    -0.018 S 
ENDROOT
BRANCH   1   3
ATOM      3  N   UNL     1      -7.027  -5.032   0.263  0.00  0.00    -0.261 N 
ATOM      4  C   UNL     1      -8.325  -5.244  -0.035  0.00  0.00    +0.285 C 
ATOM      5  O   UNL     1      -9.017  -4.322  -0.425  0.00  0.00    -0.266 OA
ATOM      6  H   UNL     1      -6.475  -5.767   0.574  0.00  0.00    +0.157 HD
BRANCH   4   7
ATOM      7  C   UNL     1      -8.900  -6.581   0.110  0.00  0.00    +0.190 A 
ATOM      8  C   UNL     1     -10.207  -6.934  -0.154  0.00  0.00    +0.055 A 
ATOM      9  C   UNL     1     -10.318  -8.301   0.115  0.00  0.00    +0.051 A 
ATOM     10  C   UNL     1      -9.091  -8.729   0.537  0.00  0.00    +0.137 A 
ATOM     11  O   UNL     1      -8.246  -7.685   0.530  0.00  0.00    -0.450 OA
BRANCH  10  12
ATOM     12  C   UNL     1      -8.752 -10.109   0.936  0.00  0.00    +0.036 A 
ATOM     13  C   UNL     1      -9.550 -10.789   1.859  0.00  0.00    +0.014 A 
ATOM     14  C   UNL     1      -9.230 -12.080   2.223  0.00  0.00    +0.021 A 
ATOM     15  C   UNL     1      -8.114 -12.699   1.684  0.00  0.00    +0.042 A 
ATOM     16  C   UNL     1      -7.315 -12.030   0.773  0.00  0.00    +0.040 A 
ATOM     17  C   UNL     1      -7.627 -10.739   0.396  0.00  0.00    +0.053 A 
ATOM     18 CL   UNL     1      -6.624  -9.899  -0.746  0.00  0.00    -0.083 Cl
ATOM     19 CL   UNL     1      -7.716 -14.322   2.154  0.00  0.00    -0.083 Cl
ENDBRANCH  10  12
ENDBRANCH   4   7
ENDBRANCH   1   3
BRANCH   1  20
ATOM     20  N   UNL     1      -5.200  -3.589   0.429  0.00  0.00    -0.297 N 
ATOM     21  H   UNL     1      -4.628  -4.336   0.662  0.00  0.00    +0.154 HD
BRANCH  20  25
ATOM     22  C   UNL     1      -3.647   0.276   0.351  0.00  0.00    -0.043 A 
ATOM     23  C   UNL     1      -2.915  -0.773  -0.174  0.00  0.00    +0.006 A 
ATOM     24  C   UNL     1      -3.424  -2.056  -0.145  0.00  0.00    +0.023 A 
ATOM     25  C   UNL     1      -4.679  -2.291   0.402  0.00  0.00    +0.033 A 
ATOM     26  C   UNL     1      -5.415  -1.235   0.923  0.00  0.00    +0.023 A 
ATOM     27  C   UNL     1      -4.897   0.045   0.896  0.00  0.00    +0.006 A 
BRANCH  22  28
ATOM     28  C   UNL     1      -3.086   1.674   0.323  0.00  0.00    +0.074 C 
BRANCH  28  31
ATOM     29  C   UNL     1      -0.036   1.120   0.743  0.00  0.00    +0.065 C 
ATOM     30  C   UNL     1      -0.985   1.687   1.767  0.00  0.00    +0.037 A 
ATOM     31  C   UNL     1      -2.304   1.927   1.586  0.00  0.00    -0.000 A 
ATOM     32  C   UNL     1      -2.814   2.449   2.779  0.00  0.00    +0.063 A 
ATOM     33  N   UNL     1      -1.835   2.526   3.643  0.00  0.00    -0.179 NA
ATOM     34  N   UNL     1      -0.670   2.051   3.028  0.00  0.00    -0.281 N 
ATOM     35  H   UNL     1       0.236   1.992   3.449  0.00  0.00    +0.189 HD
ATOM     36  C   UNL     1      -4.244   2.856   3.025  0.00  0.00    +0.068 C 
ENDBRANCH  28  31
ENDBRANCH  22  28
ENDBRANCH  20  25
ENDBRANCH   1  20
TORSDOF 7
