REMARK  Name = ZINC38694143
REMARK  3 active torsions:
REMARK  status: ('A' for Active; 'I' for Inactive)
REMARK    1  A    between atoms: C_4  and  N_8
REMARK    2  A    between atoms: N_11  and  C_12
REMARK    3  A    between atoms: C_22  and  C_24
REMARK                            x       y       z     vdW  Elec       q    Type
REMARK                         _______ _______ _______ _____ _____    ______ ____
ROOT
ATOM      1  C   UNL     1       4.995  -3.957   0.625  0.00  0.00    +0.035 A 
ATOM      2  C   UNL     1       3.832  -4.652   0.930  0.00  0.00    +0.025 A 
ATOM      3  C   UNL     1       3.898  -5.992   1.254  0.00  0.00    +0.025 A 
ATOM      4  C   UNL     1       5.125  -6.646   1.273  0.00  0.00    +0.040 A 
ATOM      5  C   UNL     1       6.287  -5.955   0.965  0.00  0.00    -0.024 A 
ATOM      6  C   UNL     1       6.218  -4.612   0.638  0.00  0.00    +0.028 A 
ATOM      7  C   UNL     1       7.630  -6.636   0.966  0.00  0.00    +0.038 C 
ATOM      8  C   UNL     1       7.584  -7.912   1.805  0.00  0.00    +0.024 C 
ATOM      9  C   UNL     1       6.396  -8.767   1.343  0.00  0.00    +0.114 C 
ATOM     10  N   UNL     1       5.167  -8.008   1.609  0.00  0.00    -0.271 N 
ATOM     11  C   UNL     1       4.097  -8.609   2.166  0.00  0.00    +0.223 C 
ATOM     12  O   UNL     1       3.066  -7.990   2.321  0.00  0.00    -0.275 OA
ENDROOT
BRANCH   1  16
ATOM     13  N   UNL     1       3.823  -0.545   0.402  0.00  0.00    -0.264 N 
ATOM     14  C   UNL     1       3.939  -1.830   0.791  0.00  0.00    +0.308 C 
ATOM     15  O   UNL     1       3.147  -2.298   1.585  0.00  0.00    -0.252 OA
ATOM     16  N   UNL     1       4.933  -2.596   0.298  0.00  0.00    -0.269 N 
ATOM     17  H   UNL     1       4.425  -0.185  -0.269  0.00  0.00    +0.157 HD
ATOM     18  H   UNL     1       5.604  -2.205  -0.282  0.00  0.00    +0.156 HD
BRANCH  13  22
ATOM     19  C   UNL     1       0.879   1.886   2.081  0.00  0.00    +0.006 A 
ATOM     20  C   UNL     1       1.490   0.913   2.850  0.00  0.00    +0.040 A 
ATOM     21  C   UNL     1       2.467   0.105   2.296  0.00  0.00    +0.147 A 
ATOM     22  C   UNL     1       2.833   0.272   0.966  0.00  0.00    +0.106 A 
ATOM     23  C   UNL     1       2.216   1.251   0.197  0.00  0.00    +0.147 A 
ATOM     24  C   UNL     1       1.240   2.056   0.757  0.00  0.00    +0.040 A 
ATOM     25  F   UNL     1       2.569   1.417  -1.097  0.00  0.00    -0.203 F 
ATOM     26  F   UNL     1       3.065  -0.845   3.048  0.00  0.00    -0.203 F 
ENDBRANCH  13  22
ENDBRANCH   1  16
BRANCH  11  27
ATOM     27  C   UNL     1       4.183 -10.051   2.598  0.00  0.00    +0.076 C 
ATOM     28  C   UNL     1       3.449 -11.088   1.746  0.00  0.00    +0.013 C 
ATOM     29  C   UNL     1       2.906 -10.707   3.125  0.00  0.00    +0.013 C 
ENDBRANCH  11  27
TORSDOF 3
