REMARK  Name = ZINC63085465
REMARK  9 active torsions:
REMARK  status: ('A' for Active; 'I' for Inactive)
REMARK    1  A    between atoms: C_1  and  C_2
REMARK    2  A    between atoms: C_2  and  N_3
REMARK    3  A    between atoms: C_9  and  C_11
REMARK    4  A    between atoms: C_11  and  C_13
REMARK    5  A    between atoms: C_11  and  N_14
REMARK    6  A    between atoms: N_14  and  C_15
REMARK    7  A    between atoms: C_15  and  C_16
REMARK    8  A    between atoms: C_16  and  C_18
REMARK    9  A    between atoms: C_16  and  C_24
REMARK                            x       y       z     vdW  Elec       q    Type
REMARK                         _______ _______ _______ _____ _____    ______ ____
ROOT
ATOM      1  C   UNL     1       1.374  -6.282   5.401  0.00  0.00    -0.073 C 
ENDROOT
BRANCH   1   2
ATOM      2  N   UNL     1       0.938  -4.888   5.560  0.00  0.00    +0.387 N 
ATOM      3  H   UNL     1       1.324  -4.510   6.412  0.00  0.00    -0.085 HD
ATOM      4  H   UNL     1      -0.070  -4.854   5.604  0.00  0.00    -0.085 HD
BRANCH   2   5
ATOM      5  C   UNL     1       1.405  -4.095   4.416  0.00  0.00    +0.013 C 
ATOM      6  C   UNL     1       0.723  -4.590   3.139  0.00  0.00    -0.004 C 
BRANCH   5  13
ATOM      7  N   UNL     1       3.345   0.263   2.919  0.00  0.00    -0.300 NA
ATOM      8  C   UNL     1       3.780  -1.141   2.921  0.00  0.00    +0.103 C 
ATOM      9  C   UNL     1       2.555  -2.051   2.782  0.00  0.00    +0.123 C 
ATOM     10  N   UNL     1       1.589  -1.698   3.833  0.00  0.00    -0.300 N 
ATOM     11  C   UNL     1       1.208  -0.285   3.982  0.00  0.00    +0.123 C 
ATOM     12  C   UNL     1       2.486   0.556   4.073  0.00  0.00    +0.103 C 
ATOM     13  C   UNL     1       1.065  -2.644   4.638  0.00  0.00    +0.201 C 
ATOM     14  O   UNL     1       0.320  -2.327   5.541  0.00  0.00    -0.277 OA
BRANCH   7  16
ATOM     15  C   UNL     1       5.230   1.006   1.543  0.00  0.00    +0.020 C 
ATOM     16  C   UNL     1       4.499   1.171   2.877  0.00  0.00    +0.081 C 
ENDBRANCH   7  16
ENDBRANCH   5  13
ENDBRANCH   2   5
ENDBRANCH   1   2
BRANCH   1  17
ATOM     17  C   UNL     1       1.000  -7.079   6.652  0.00  0.00    +0.014 C 
BRANCH  17  18
ATOM     18  C   UNL     1      -0.500  -7.171   6.760  0.00  0.00    -0.039 C 
ATOM     19  C   UNL     1      -1.272  -6.712   7.771  0.00  0.00    -0.001 A 
ATOM     20  C   UNL     1      -0.958  -6.018   9.026  0.00  0.00    +0.010 A 
ATOM     21  C   UNL     1      -1.969  -5.678   9.858  0.00  0.00    +0.001 A 
ATOM     22  C   UNL     1      -3.305  -5.972   9.553  0.00  0.00    +0.002 A 
ATOM     23  C   UNL     1      -3.672  -6.608   8.420  0.00  0.00    +0.026 A 
ATOM     24  C   UNL     1      -2.691  -7.011   7.473  0.00  0.00    +0.043 A 
ATOM     25  N   UNL     1      -2.792  -7.630   6.322  0.00  0.00    -0.380 N 
ATOM     26  C   UNL     1      -1.447  -7.790   5.757  0.00  0.00    +0.145 C 
ATOM     27  H   UNL     1      -3.618  -7.930   5.911  0.00  0.00    +0.160 HD
ENDBRANCH  17  18
BRANCH  17  28
ATOM     28  C   UNL     1       1.592  -8.487   6.555  0.00  0.00    +0.060 C 
ATOM     29  C   UNL     1       1.329  -9.305   7.847  0.00  0.00    +0.042 C 
ATOM     30  C   UNL     1       2.517 -10.144   8.194  0.00  0.00    -0.019 C 
ATOM     31  C   UNL     1       3.694  -9.864   7.670  0.00  0.00    +0.036 C 
ATOM     32  S   UNL     1       3.433  -8.451   6.609  0.00  0.00    -0.129 S 
ENDBRANCH  17  28
ENDBRANCH   1  17
TORSDOF 7
