REMARK  Name = ZINC13849997
REMARK  15 active torsions:
REMARK  status: ('A' for Active; 'I' for Inactive)
REMARK    1  A    between atoms: C_1  and  C_2
REMARK    2  A    between atoms: C_2  and  N_3
REMARK    3  A    between atoms: C_4  and  C_29
REMARK    4  A    between atoms: C_7  and  S_8
REMARK    5  A    between atoms: S_8  and  C_9
REMARK    6  A    between atoms: C_9  and  C_10
REMARK    7  A    between atoms: N_12  and  C_13
REMARK    8  A    between atoms: C_14  and  C_27
REMARK    9  A    between atoms: C_19  and  C_23
REMARK   10  A    between atoms: C_23  and  C_24
REMARK   11  A    between atoms: C_23  and  C_25
REMARK   12  A    between atoms: C_23  and  C_26
REMARK   13  A    between atoms: C_29  and  C_31
REMARK   14  A    between atoms: C_29  and  O_32
REMARK   15  A    between atoms: O_32  and  C_33
REMARK                            x       y       z     vdW  Elec       q    Type
REMARK                         _______ _______ _______ _____ _____    ______ ____
ROOT
ATOM      1  C   UNL     1      -2.208  -0.564   5.965  0.00  0.00    +0.228 C 
ATOM      2  O   UNL     1      -3.204  -0.271   5.338  0.00  0.00    -0.275 OA
ATOM      3  N   UNL     1      -2.286  -0.772   7.294  0.00  0.00    -0.278 N 
ATOM      4  H   UNL     1      -1.489  -1.006   7.796  0.00  0.00    +0.155 HD
ENDROOT
BRANCH   3   5
ATOM      5  C   UNL     1      -3.506  -0.653   7.946  0.00  0.00    +0.090 A 
ATOM      6  C   UNL     1      -3.772  -0.824   9.294  0.00  0.00    +0.084 A 
ATOM      7  C   UNL     1      -5.144  -0.641   9.729  0.00  0.00    -0.018 A 
ATOM      8  C   UNL     1      -6.001  -0.320   8.735  0.00  0.00    -0.004 A 
ATOM      9  S   UNL     1      -4.997  -0.261   7.280  0.00  0.00    -0.077 S 
ATOM     10  C   UNL     1      -7.471  -0.066   8.861  0.00  0.00    +0.047 C 
ATOM     11  C   UNL     1      -7.798   0.145  10.347  0.00  0.00    -0.000 C 
ATOM     12  C   UNL     1      -7.141  -0.972  11.163  0.00  0.00    +0.009 C 
ATOM     13  C   UNL     1      -5.621  -0.788  11.167  0.00  0.00    +0.037 C 
BRANCH  11  14
ATOM     14  C   UNL     1      -9.314   0.106  10.549  0.00  0.00    -0.035 C 
ATOM     15  C   UNL     1      -9.854  -1.253  10.098  0.00  0.00    +0.011 C 
ATOM     16  C   UNL     1      -9.637   0.316  12.030  0.00  0.00    +0.011 C 
ATOM     17  C   UNL     1      -9.968   1.214   9.722  0.00  0.00    +0.011 C 
ENDBRANCH  11  14
BRANCH   6  18
ATOM     18  C   UNL     1      -2.735  -1.167  10.221  0.00  0.00    +0.102 C 
ATOM     19  N   UNL     1      -1.913  -1.440  10.956  0.00  0.00    -0.191 NA
ENDBRANCH   6  18
ENDBRANCH   3   5
BRANCH   1  20
ATOM     20  C   UNL     1      -0.884  -0.693   5.258  0.00  0.00    +0.173 C 
BRANCH  20  21
ATOM     21  S   UNL     1      -1.106  -0.354   3.490  0.00  0.00    -0.077 S 
BRANCH  21  26
ATOM     22  N   UNL     1       0.864  -0.390   1.504  0.00  0.00    -0.303 N 
ATOM     23  C   UNL     1       2.210  -0.628   1.454  0.00  0.00    +0.175 A 
ATOM     24  N   UNL     1       2.600  -0.907   2.666  0.00  0.00    -0.130 NA
ATOM     25  N   UNL     1       1.600  -0.861   3.472  0.00  0.00    -0.122 NA
ATOM     26  C   UNL     1       0.510  -0.543   2.813  0.00  0.00    +0.192 A 
BRANCH  22  28
ATOM     27  C   UNL     1      -0.057   1.484   0.231  0.00  0.00    +0.027 C 
ATOM     28  C   UNL     1      -0.013  -0.037   0.385  0.00  0.00    +0.122 C 
ENDBRANCH  22  28
BRANCH  23  29
ATOM     29  C   UNL     1       3.081  -0.578   0.225  0.00  0.00    +0.238 C 
ATOM     30  C   UNL     1       3.921   0.701   0.247  0.00  0.00    +0.060 C 
BRANCH  29  31
ATOM     31  O   UNL     1       3.946  -1.716   0.208  0.00  0.00    -0.481 OA
BRANCH  31  32
ATOM     32  C   UNL     1       4.407  -2.121  -1.004  0.00  0.00    +0.122 A 
ATOM     33  C   UNL     1       5.154  -3.285  -1.109  0.00  0.00    +0.045 A 
ATOM     34  C   UNL     1       5.622  -3.696  -2.343  0.00  0.00    +0.004 A 
ATOM     35  C   UNL     1       5.346  -2.947  -3.472  0.00  0.00    +0.000 A 
ATOM     36  C   UNL     1       4.603  -1.786  -3.370  0.00  0.00    +0.004 A 
ATOM     37  C   UNL     1       4.127  -1.375  -2.140  0.00  0.00    +0.045 A 
ENDBRANCH  31  32
ENDBRANCH  29  31
ENDBRANCH  23  29
ENDBRANCH  21  26
ENDBRANCH  20  21
ENDBRANCH   1  20
TORSDOF 10
