REMARK  Name = ZINC19837755
REMARK  13 active torsions:
REMARK  status: ('A' for Active; 'I' for Inactive)
REMARK    1  A    between atoms: C_1  and  C_2
REMARK    2  A    between atoms: C_2  and  C_3
REMARK    3  A    between atoms: C_3  and  C_4
REMARK    4  A    between atoms: C_4  and  C_5
REMARK    5  A    between atoms: C_9  and  C_11
REMARK    6  A    between atoms: C_11  and  N_12
REMARK    7  A    between atoms: N_12  and  C_13
REMARK    8  A    between atoms: N_12  and  C_17
REMARK    9  A    between atoms: C_13  and  C_14
REMARK   10  A    between atoms: C_14  and  O_15
REMARK   11  A    between atoms: O_15  and  C_16
REMARK   12  A    between atoms: C_17  and  C_18
REMARK   13  A    between atoms: N_23  and  C_25
REMARK                            x       y       z     vdW  Elec       q    Type
REMARK                         _______ _______ _______ _____ _____    ______ ____
ROOT
ATOM      1  N   UNL     1      -4.544  -1.901   2.401  0.00  0.00    -0.294 NA
ENDROOT
BRANCH   1   2
ATOM      2  C   UNL     1      -3.208  -1.615   2.942  0.00  0.00    +0.139 C 
BRANCH   2   7
ATOM      3  C   UNL     1      -0.773  -3.317   0.883  0.00  0.00    +0.084 A 
ATOM      4  N   UNL     1      -0.680  -2.078   0.354  0.00  0.00    -0.350 N 
ATOM      5  H   UNL     1       0.023  -1.883  -0.469  0.00  0.00    +0.166 HD
ATOM      6  C   UNL     1      -1.564  -1.282   1.030  0.00  0.00    +0.106 A 
ATOM      7  C   UNL     1      -2.161  -2.059   1.954  0.00  0.00    +0.047 A 
ATOM      8  N   UNL     1      -1.659  -3.297   1.841  0.00  0.00    -0.346 N 
ATOM      9  H   UNL     1      -1.879  -4.216   2.405  0.00  0.00    +0.167 HD
BRANCH   3  10
ATOM     10  C   UNL     1       0.018  -4.522   0.443  0.00  0.00    +0.072 C 
BRANCH  10  11
ATOM     11  C   UNL     1       0.754  -5.116   1.645  0.00  0.00    +0.007 C 
BRANCH  11  13
ATOM     12  C   UNL     1       2.293  -6.933   2.402  0.00  0.00    +0.004 C 
ATOM     13  C   UNL     1       1.557  -6.339   1.199  0.00  0.00    -0.003 C 
ENDBRANCH  11  13
ENDBRANCH  10  11
ENDBRANCH   3  10
ENDBRANCH   2   7
ENDBRANCH   1   2
BRANCH   1  14
ATOM     14  C   UNL     1      -4.816  -1.083   1.211  0.00  0.00    +0.113 C 
BRANCH  14  15
ATOM     15  C   UNL     1      -5.970  -1.703   0.420  0.00  0.00    +0.174 C 
BRANCH  15  16
ATOM     16  O   UNL     1      -7.183  -1.568   1.162  0.00  0.00    -0.382 OA
ATOM     17  C   UNL     1      -8.308  -2.212   0.559  0.00  0.00    +0.194 C 
ENDBRANCH  15  16
ENDBRANCH  14  15
ENDBRANCH   1  14
BRANCH   1  18
ATOM     18  C   UNL     1      -5.580  -1.703   3.424  0.00  0.00    +0.086 C 
BRANCH  18  19
ATOM     19  C   UNL     1      -5.451  -2.787   4.496  0.00  0.00    -0.014 C 
ATOM     20  C   UNL     1      -5.762  -4.154   3.880  0.00  0.00    +0.001 C 
ATOM     21  C   UNL     1      -5.691  -5.225   4.972  0.00  0.00    -0.018 C 
ATOM     22  C   UNL     1      -6.674  -4.873   6.091  0.00  0.00    -0.078 C 
ATOM     23  N   UNL     1      -6.333  -3.557   6.647  0.00  0.00    +0.382 N 
ATOM     24  C   UNL     1      -6.441  -2.506   5.628  0.00  0.00    -0.074 C 
ATOM     25  H   UNL     1      -5.285  -3.595   6.980  0.00  0.00    -0.081 HD
BRANCH  23  26
ATOM     26  C   UNL     1      -7.169  -3.247   7.815  0.00  0.00    -0.060 C 
ATOM     27  C   UNL     1      -6.630  -2.009   8.562  0.00  0.00    +0.020 C 
ATOM     28  C   UNL     1      -6.890  -2.286  10.027  0.00  0.00    -0.046 A 
ATOM     29  C   UNL     1      -6.911  -1.427  11.113  0.00  0.00    +0.004 A 
ATOM     30  C   UNL     1      -7.175  -1.913  12.379  0.00  0.00    +0.000 A 
ATOM     31  C   UNL     1      -7.417  -3.261  12.563  0.00  0.00    +0.000 A 
ATOM     32  C   UNL     1      -7.396  -4.120  11.482  0.00  0.00    +0.004 A 
ATOM     33  C   UNL     1      -7.132  -3.634  10.212  0.00  0.00    -0.046 A 
ATOM     34  C   UNL     1      -7.052  -4.355   8.883  0.00  0.00    +0.020 C 
ENDBRANCH  23  26
ENDBRANCH  18  19
ENDBRANCH   1  18
TORSDOF 11
