REMARK  Name = ZINC12586856
REMARK  12 active torsions:
REMARK  status: ('A' for Active; 'I' for Inactive)
REMARK    1  A    between atoms: C_1  and  C_2
REMARK    2  A    between atoms: C_2  and  C_26
REMARK    3  A    between atoms: N_3  and  N_4
REMARK    4  A    between atoms: N_4  and  C_5
REMARK    5  A    between atoms: C_8  and  N_23
REMARK    6  A    between atoms: C_10  and  S_11
REMARK    7  A    between atoms: S_11  and  N_14
REMARK    8  A    between atoms: N_14  and  C_15
REMARK    9  A    between atoms: C_18  and  O_21
REMARK   10  A    between atoms: O_21  and  C_22
REMARK   11  A    between atoms: C_29  and  O_32
REMARK   12  A    between atoms: O_32  and  C_33
REMARK                            x       y       z     vdW  Elec       q    Type
REMARK                         _______ _______ _______ _____ _____    ______ ____
ROOT
ATOM      1  C   UNL     1      -3.607   2.831   0.543  0.00  0.00    +0.075 A 
ATOM      2  C   UNL     1      -2.308   3.305   0.679  0.00  0.00    +0.029 A 
ATOM      3  C   UNL     1      -1.254   2.416   0.745  0.00  0.00    +0.035 A 
ATOM      4  C   UNL     1      -1.488   1.055   0.666  0.00  0.00    +0.128 A 
ATOM      5  C   UNL     1      -2.780   0.580   0.531  0.00  0.00    +0.063 A 
ATOM      6  C   UNL     1      -3.840   1.463   0.469  0.00  0.00    +0.133 A 
ENDROOT
BRANCH   6   7
ATOM      7  S   UNL     1      -5.485   0.856   0.296  0.00  0.00    +0.074 S 
ATOM      8  O   UNL     1      -5.387  -0.558   0.191  0.00  0.00    -0.150 OA
ATOM      9  O   UNL     1      -6.261   1.493   1.302  0.00  0.00    -0.150 OA
BRANCH   7  10
ATOM     10  N   UNL     1      -6.057   1.400  -1.159  0.00  0.00    -0.216 N 
ATOM     11  H   UNL     1      -6.784   2.042  -1.185  0.00  0.00    +0.174 HD
BRANCH  10  12
ATOM     12  C   UNL     1      -5.492   0.934  -2.352  0.00  0.00    +0.048 A 
ATOM     13  C   UNL     1      -4.112   0.881  -2.492  0.00  0.00    +0.028 A 
ATOM     14  C   UNL     1      -3.555   0.416  -3.667  0.00  0.00    +0.047 A 
ATOM     15  C   UNL     1      -4.374   0.013  -4.712  0.00  0.00    +0.120 A 
ATOM     16  C   UNL     1      -5.753   0.071  -4.574  0.00  0.00    +0.047 A 
ATOM     17  C   UNL     1      -6.312   0.531  -3.398  0.00  0.00    +0.028 A 
BRANCH  15  18
ATOM     18  O   UNL     1      -3.825  -0.439  -5.871  0.00  0.00    -0.495 OA
ATOM     19  C   UNL     1      -2.403  -0.575  -5.905  0.00  0.00    +0.277 C 
ENDBRANCH  15  18
ENDBRANCH  10  12
ENDBRANCH   7  10
ENDBRANCH   6   7
BRANCH   4  20
ATOM     20  N   UNL     1      -0.355   0.105   0.731  0.00  0.00    +0.056 N 
ATOM     21  O   UNL     1      -0.560  -1.093   0.667  0.00  0.00    -0.126 OA
ATOM     22  O   UNL     1       0.784   0.523   0.845  0.00  0.00    -0.126 OA
ENDBRANCH   4  20
BRANCH   1  23
ATOM     23  N   UNL     1      -4.676   3.726   0.481  0.00  0.00    -0.236 N 
ATOM     24  H   UNL     1      -5.587   3.393   0.458  0.00  0.00    +0.174 HD
BRANCH  23  27
ATOM     25  C   UNL     1      -6.843   5.429   0.431  0.00  0.00    +0.068 C 
ATOM     26  C   UNL     1      -5.426   5.941   0.487  0.00  0.00    +0.063 C 
ATOM     27  N   UNL     1      -4.433   5.106   0.451  0.00  0.00    -0.187 NA
BRANCH  26  28
ATOM     28  C   UNL     1      -5.169   7.389   0.584  0.00  0.00    -0.002 A 
ATOM     29  C   UNL     1      -6.234   8.282   0.728  0.00  0.00    +0.013 A 
ATOM     30  C   UNL     1      -5.988   9.635   0.823  0.00  0.00    +0.046 A 
ATOM     31  C   UNL     1      -4.685  10.112   0.763  0.00  0.00    +0.127 A 
ATOM     32  C   UNL     1      -3.623   9.228   0.614  0.00  0.00    +0.046 A 
ATOM     33  C   UNL     1      -3.859   7.873   0.524  0.00  0.00    +0.013 A 
BRANCH  31  34
ATOM     34  O   UNL     1      -4.447  11.447   0.851  0.00  0.00    -0.434 OA
BRANCH  34  35
ATOM     35  C   UNL     1      -5.584  12.299   1.003  0.00  0.00    +0.541 C 
ATOM     36  F   UNL     1      -6.436  12.141  -0.095  0.00  0.00    -0.166 F 
ATOM     37  F   UNL     1      -6.267  11.961   2.176  0.00  0.00    -0.166 F 
ENDBRANCH  34  35
ENDBRANCH  31  34
ENDBRANCH  26  28
ENDBRANCH  23  27
ENDBRANCH   1  23
TORSDOF 10
