REMARK  Name = ZINC38814201
REMARK  7 active torsions:
REMARK  status: ('A' for Active; 'I' for Inactive)
REMARK    1  A    between atoms: C_1  and  C_2
REMARK    2  A    between atoms: C_4  and  C_9
REMARK    3  A    between atoms: C_5  and  C_8
REMARK    4  A    between atoms: C_9  and  C_10
REMARK    5  A    between atoms: C_10  and  C_11
REMARK    6  A    between atoms: N_13  and  N_14
REMARK    7  A    between atoms: C_15  and  C_16
REMARK                            x       y       z     vdW  Elec       q    Type
REMARK                         _______ _______ _______ _____ _____    ______ ____
ROOT
ATOM      1  C   UNL     1      -4.388   1.127  -1.594  0.00  0.00    +0.232 C 
ATOM      2  O   UNL     1      -4.584   0.297  -2.457  0.00  0.00    -0.274 OA
ATOM      3  N   UNL     1      -5.175   2.218  -1.517  0.00  0.00    -0.207 N 
ATOM      4  H   UNL     1      -5.019   2.881  -0.827  0.00  0.00    +0.177 HD
ENDROOT
BRANCH   3   5
ATOM      5  N   UNL     1      -6.220   2.394  -2.434  0.00  0.00    -0.188 NA
ATOM      6  C   UNL     1      -6.978   3.445  -2.360  0.00  0.00    +0.139 C 
BRANCH   6   7
ATOM      7  C   UNL     1      -8.077   3.631  -3.325  0.00  0.00    +0.013 A 
ATOM      8  C   UNL     1      -8.891   4.764  -3.252  0.00  0.00    +0.012 A 
ATOM      9  C   UNL     1      -9.917   4.932  -4.157  0.00  0.00    +0.021 A 
ATOM     10  C   UNL     1     -10.142   3.980  -5.139  0.00  0.00    +0.042 A 
ATOM     11  C   UNL     1      -9.339   2.855  -5.218  0.00  0.00    +0.040 A 
ATOM     12  C   UNL     1      -8.305   2.677  -4.321  0.00  0.00    +0.051 A 
ATOM     13 CL   UNL     1      -7.295   1.269  -4.426  0.00  0.00    -0.083 Cl
ATOM     14 CL   UNL     1     -11.437   4.200  -6.274  0.00  0.00    -0.083 Cl
ENDBRANCH   6   7
ENDBRANCH   3   5
BRANCH   1  15
ATOM     15  C   UNL     1      -3.265   0.937  -0.608  0.00  0.00    +0.102 C 
BRANCH  15  16
ATOM     16  C   UNL     1      -2.532  -0.371  -0.914  0.00  0.00    +0.044 C 
BRANCH  16  19
ATOM     17  C   UNL     1      -0.019   1.526   0.010  0.00  0.00    +0.039 C 
ATOM     18  C   UNL     1       0.002  -0.004   0.002  0.00  0.00    +0.153 C 
ATOM     19  C   UNL     1      -1.409  -0.561   0.072  0.00  0.00    -0.021 C 
ATOM     20  C   UNL     1      -1.423  -1.257   1.211  0.00  0.00    +0.061 C 
ATOM     21  N   UNL     1      -0.222  -1.193   1.828  0.00  0.00    -0.159 NA
ATOM     22  N   UNL     1       0.629  -0.523   1.230  0.00  0.00    -0.180 NA
ATOM     23  C   UNL     1      -2.617  -2.011   1.738  0.00  0.00    +0.067 C 
ENDBRANCH  16  19
ENDBRANCH  15  16
ENDBRANCH   1  15
TORSDOF 5
