REMARK  Name = ZINC05705823
REMARK  8 active torsions:
REMARK  status: ('A' for Active; 'I' for Inactive)
REMARK    1  A    between atoms: C_1  and  C_2
REMARK    2  A    between atoms: C_2  and  C_28
REMARK    3  A    between atoms: C_6  and  C_15
REMARK    4  A    between atoms: C_8  and  C_12
REMARK    5  A    between atoms: C_9  and  N_11
REMARK    6  A    between atoms: C_18  and  O_21
REMARK    7  A    between atoms: O_21  and  C_22
REMARK    8  A    between atoms: C_22  and  C_23
REMARK                            x       y       z     vdW  Elec       q    Type
REMARK                         _______ _______ _______ _____ _____    ______ ____
ROOT
ATOM      1  C   UNL     1      -5.864   0.197  -2.661  0.00  0.00    +0.012 C 
ATOM      2  C   UNL     1      -5.160   1.373  -3.342  0.00  0.00    -0.021 C 
ATOM      3  C   UNL     1      -5.113   2.567  -2.386  0.00  0.00    +0.081 C 
ATOM      4  C   UNL     1      -4.333   2.196  -1.147  0.00  0.00    +0.115 C 
ATOM      5  C   UNL     1      -3.324   1.308  -1.211  0.00  0.00    +0.045 C 
ATOM      6  C   UNL     1      -2.537   0.949   0.025  0.00  0.00    +0.096 C 
ATOM      7  C   UNL     1      -3.312   1.325   1.258  0.00  0.00    +0.083 C 
ATOM      8  C   UNL     1      -4.333   2.215   1.179  0.00  0.00    +0.193 C 
ATOM      9  O   UNL     1      -4.676   2.784   0.014  0.00  0.00    -0.446 OA
ATOM     10  C   UNL     1      -2.971   0.687  -2.426  0.00  0.00    +0.164 C 
ATOM     11  O   UNL     1      -2.043  -0.096  -2.447  0.00  0.00    -0.292 OA
ATOM     12  C   UNL     1      -3.723   0.977  -3.696  0.00  0.00    +0.086 C 
ATOM     13  C   UNL     1      -5.920   1.761  -4.612  0.00  0.00    +0.012 C 
ENDROOT
BRANCH   6  14
ATOM     14  C   UNL     1      -1.224   1.688   0.015  0.00  0.00    -0.035 A 
ATOM     15  C   UNL     1      -0.035   0.983   0.010  0.00  0.00    +0.008 A 
ATOM     16  C   UNL     1       1.170   1.659  -0.006  0.00  0.00    +0.046 A 
ATOM     17  C   UNL     1       1.186   3.046  -0.010  0.00  0.00    +0.122 A 
ATOM     18  C   UNL     1      -0.009   3.751   0.001  0.00  0.00    +0.046 A 
ATOM     19  C   UNL     1      -1.211   3.071   0.016  0.00  0.00    +0.008 A 
BRANCH  17  20
ATOM     20  O   UNL     1       2.370   3.713  -0.025  0.00  0.00    -0.477 OA
BRANCH  20  21
ATOM     21  C   UNL     1       2.310   5.141  -0.029  0.00  0.00    +0.346 C 
BRANCH  21  22
ATOM     22  C   UNL     1       3.676   5.689  -0.045  0.00  0.00    +0.104 C 
ATOM     23  N   UNL     1       4.731   6.112  -0.058  0.00  0.00    -0.193 NA
ENDBRANCH  21  22
ENDBRANCH  20  21
ENDBRANCH  17  20
ENDBRANCH   6  14
BRANCH   7  24
ATOM     24  C   UNL     1      -2.975   0.754   2.497  0.00  0.00    +0.243 C 
ATOM     25  O   UNL     1      -3.339  -0.378   2.765  0.00  0.00    -0.271 OA
ATOM     26  N   UNL     1      -2.250   1.458   3.389  0.00  0.00    -0.325 N 
ATOM     27  H   UNL     1      -1.960   2.358   3.176  0.00  0.00    +0.145 HD
ATOM     28  H   UNL     1      -2.018   1.063   4.245  0.00  0.00    +0.145 HD
ENDBRANCH   7  24
BRANCH   8  29
ATOM     29  N   UNL     1      -5.029   2.538   2.314  0.00  0.00    -0.329 N 
ATOM     30  H   UNL     1      -4.743   2.192   3.174  0.00  0.00    +0.145 HD
ATOM     31  H   UNL     1      -5.809   3.113   2.258  0.00  0.00    +0.145 HD
ENDBRANCH   8  29
TORSDOF 6
