REMARK  Name = ZINC06408949
REMARK  12 active torsions:
REMARK  status: ('A' for Active; 'I' for Inactive)
REMARK    1  A    between atoms: C_1  and  C_2
REMARK    2  A    between atoms: C_9  and  C_14
REMARK    3  A    between atoms: C_14  and  C_16
REMARK    4  A    between atoms: C_14  and  N_66
REMARK    5  A    between atoms: N_20  and  C_21
REMARK    6  A    between atoms: C_21  and  C_22
REMARK    7  A    between atoms: C_21  and  C_23
REMARK    8  A    between atoms: C_21  and  C_24
REMARK    9  A    between atoms: C_25  and  C_26
REMARK   10  A    between atoms: C_25  and  N_66
REMARK   11  A    between atoms: C_33  and  C_34
REMARK   12  A    between atoms: C_33  and  N_66
REMARK                            x       y       z     vdW  Elec       q    Type
REMARK                         _______ _______ _______ _____ _____    ______ ____
ROOT
ATOM      1  C   UNL     1       3.348   0.853  -0.789  0.00  0.00    +0.040 C 
ENDROOT
BRANCH   1  10
ATOM      2  C   UNL     1       7.278   1.608  -7.082  0.00  0.00    +0.044 C 
ATOM      3  C   UNL     1       6.217   2.095  -6.129  0.00  0.00    -0.050 A 
ATOM      4  C   UNL     1       5.519   3.261  -6.413  0.00  0.00    +0.005 A 
ATOM      5  C   UNL     1       4.546   3.725  -5.555  0.00  0.00    +0.026 A 
ATOM      6  C   UNL     1       4.258   3.019  -4.391  0.00  0.00    +0.049 A 
ATOM      7  C   UNL     1       4.967   1.837  -4.107  0.00  0.00    -0.001 A 
ATOM      8  C   UNL     1       5.951   1.385  -4.992  0.00  0.00    +0.013 A 
ATOM      9  C   UNL     1       4.657   1.101  -2.880  0.00  0.00    +0.017 A 
ATOM     10  C   UNL     1       3.692   1.586  -2.059  0.00  0.00    +0.011 A 
ATOM     11  C   UNL     1       3.006   2.773  -2.394  0.00  0.00    +0.251 A 
ATOM     12  O   UNL     1       2.139   3.190  -1.645  0.00  0.00    -0.268 OA
ATOM     13  N   UNL     1       3.288   3.459  -3.516  0.00  0.00    -0.322 N 
ATOM     14  H   UNL     1       2.800   4.274  -3.714  0.00  0.00    +0.169 HD
ENDBRANCH   1  10
BRANCH   1  15
ATOM     15  C   UNL     1       1.912   0.400  -0.844  0.00  0.00    +0.143 A 
ATOM     16  N   UNL     1       0.849   1.142  -0.647  0.00  0.00    -0.115 NA
ATOM     17  N   UNL     1      -0.190   0.392  -0.779  0.00  0.00    -0.023 NA
ATOM     18  N   UNL     1       0.182  -0.809  -1.055  0.00  0.00    -0.043 NA
ATOM     19  N   UNL     1       1.471  -0.845  -1.103  0.00  0.00    -0.225 N 
BRANCH  19  20
ATOM     20  C   UNL     1       2.299  -2.019  -1.387  0.00  0.00    +0.059 C 
ATOM     21  C   UNL     1       1.399  -3.204  -1.743  0.00  0.00    +0.036 C 
ATOM     22  C   UNL     1       3.230  -1.715  -2.563  0.00  0.00    +0.036 C 
ATOM     23  C   UNL     1       3.134  -2.366  -0.152  0.00  0.00    +0.036 C 
ENDBRANCH  19  20
ENDBRANCH   1  15
BRANCH   1  24
ATOM     24  N   UNL     1       3.514   1.768   0.360  0.00  0.00    +0.397 N 
ATOM     25  H   UNL     1       2.744   2.447   0.360  0.00  0.00    -0.079 HD
BRANCH  24  26
ATOM     26  C   UNL     1       4.795   2.496   0.245  0.00  0.00    -0.041 C 
BRANCH  26  27
ATOM     27  C   UNL     1       4.866   3.532   1.337  0.00  0.00    -0.064 A 
ATOM     28  C   UNL     1       4.260   4.763   1.163  0.00  0.00    +0.003 A 
ATOM     29  C   UNL     1       4.320   5.711   2.166  0.00  0.00    +0.020 A 
ATOM     30  C   UNL     1       4.997   5.434   3.340  0.00  0.00    +0.041 A 
ATOM     31  C   UNL     1       5.608   4.204   3.512  0.00  0.00    +0.020 A 
ATOM     32  C   UNL     1       5.543   3.254   2.510  0.00  0.00    +0.003 A 
ATOM     33 CL   UNL     1       5.078   6.627   4.598  0.00  0.00    -0.084 Cl
ENDBRANCH  26  27
ENDBRANCH  24  26
BRANCH  24  34
ATOM     34  C   UNL     1       3.479   1.003   1.624  0.00  0.00    -0.001 C 
BRANCH  34  35
ATOM     35  C   UNL     1       2.041   0.747   1.993  0.00  0.00    +0.089 A 
ATOM     36  C   UNL     1       1.353  -0.382   1.741  0.00  0.00    +0.042 A 
ATOM     37  C   UNL     1       0.050  -0.191   2.255  0.00  0.00    +0.041 A 
ATOM     38  C   UNL     1       0.019   1.043   2.790  0.00  0.00    +0.195 A 
ATOM     39  O   UNL     1       1.229   1.604   2.634  0.00  0.00    -0.470 OA
ENDBRANCH  34  35
ENDBRANCH  24  34
ENDBRANCH   1  24
TORSDOF 8
