REMARK  Name = ZINC59021074
REMARK  8 active torsions:
REMARK  status: ('A' for Active; 'I' for Inactive)
REMARK    1  A    between atoms: C_1  and  C_2
REMARK    2  A    between atoms: C_5  and  C_8
REMARK    3  A    between atoms: C_8  and  C_28
REMARK    4  A    between atoms: N_9  and  N_10
REMARK    5  A    between atoms: C_13  and  S_16
REMARK    6  A    between atoms: S_16  and  C_17
REMARK    7  A    between atoms: C_17  and  C_18
REMARK    8  A    between atoms: N_20  and  C_21
REMARK                            x       y       z     vdW  Elec       q    Type
REMARK                         _______ _______ _______ _____ _____    ______ ____
ROOT
ATOM      1  N   UNL     1       0.035  -4.183  -2.378  0.00  0.00    -0.205 N 
ATOM      2  C   UNL     1      -0.188  -4.859  -3.563  0.00  0.00    +0.232 A 
ATOM      3  N   UNL     1      -0.355  -6.159  -3.693  0.00  0.00    -0.186 NA
ATOM      4  C   UNL     1      -0.548  -6.461  -4.981  0.00  0.00    +0.211 A 
ATOM      5  N   UNL     1      -0.506  -5.357  -5.689  0.00  0.00    -0.144 NA
ATOM      6  N   UNL     1      -0.279  -4.302  -4.789  0.00  0.00    -0.245 N 
ATOM      7  H   UNL     1       0.143  -3.219  -2.382  0.00  0.00    +0.177 HD
ATOM      8  H   UNL     1      -0.201  -3.360  -5.007  0.00  0.00    +0.192 HD
ENDROOT
BRANCH   1  10
ATOM      9  C   UNL     1       0.427  -4.272  -0.074  0.00  0.00    +0.063 C 
ATOM     10  N   UNL     1       0.107  -4.890  -1.170  0.00  0.00    -0.184 NA
ATOM     11  C   UNL     1       0.340  -4.989   1.248  0.00  0.00    +0.068 C 
BRANCH   9  16
ATOM     12  C   UNL     1       2.182   1.202  -0.265  0.00  0.00    +0.044 C 
ATOM     13  C   UNL     1       1.723  -0.233  -0.215  0.00  0.00    -0.050 A 
ATOM     14  C   UNL     1       0.968  -0.677   0.856  0.00  0.00    +0.004 A 
ATOM     15  C   UNL     1       0.543  -1.988   0.908  0.00  0.00    +0.010 A 
ATOM     16  C   UNL     1       0.877  -2.869  -0.123  0.00  0.00    -0.003 A 
ATOM     17  C   UNL     1       1.639  -2.413  -1.202  0.00  0.00    +0.010 A 
ATOM     18  C   UNL     1       2.053  -1.098  -1.244  0.00  0.00    +0.004 A 
ENDBRANCH   9  16
ENDBRANCH   1  10
BRANCH   4  19
ATOM     19  S   UNL     1      -0.815  -8.079  -5.624  0.00  0.00    -0.075 S 
BRANCH  19  20
ATOM     20  C   UNL     1      -1.002  -7.817  -7.409  0.00  0.00    +0.173 C 
BRANCH  20  21
ATOM     21  C   UNL     1      -1.240  -9.140  -8.089  0.00  0.00    +0.227 C 
ATOM     22  O   UNL     1      -1.278 -10.161  -7.434  0.00  0.00    -0.275 OA
ATOM     23  N   UNL     1      -1.409  -9.191  -9.426  0.00  0.00    -0.285 N 
ATOM     24  H   UNL     1      -1.442  -8.370  -9.942  0.00  0.00    +0.155 HD
BRANCH  23  25
ATOM     25  C   UNL     1      -1.537 -10.427 -10.069  0.00  0.00    +0.033 A 
ATOM     26  C   UNL     1      -0.968 -10.623 -11.320  0.00  0.00    +0.024 A 
ATOM     27  C   UNL     1      -1.095 -11.844 -11.952  0.00  0.00    +0.016 A 
ATOM     28  C   UNL     1      -1.791 -12.872 -11.340  0.00  0.00    +0.013 A 
ATOM     29  C   UNL     1      -2.359 -12.680 -10.093  0.00  0.00    +0.016 A 
ATOM     30  C   UNL     1      -2.229 -11.462  -9.454  0.00  0.00    +0.024 A 
ATOM     31  I   UNL     1      -1.983 -14.723 -12.303  0.00  0.00    -0.044 I 
ENDBRANCH  23  25
ENDBRANCH  20  21
ENDBRANCH  19  20
ENDBRANCH   4  19
TORSDOF 6
