REMARK  Name = ZINC13127563
REMARK  5 active torsions:
REMARK  status: ('A' for Active; 'I' for Inactive)
REMARK    1  A    between atoms: C_1  and  C_2
REMARK    2  A    between atoms: C_5  and  C_8
REMARK    3  A    between atoms: C_11  and  C_20
REMARK    4  A    between atoms: C_23  and  O_26
REMARK    5  A    between atoms: O_26  and  C_27
REMARK                            x       y       z     vdW  Elec       q    Type
REMARK                         _______ _______ _______ _____ _____    ______ ____
ROOT
ATOM      1  C   UNL     1       0.059  -4.275  -0.021  0.00  0.00    +0.106 C 
ATOM      2  C   UNL     1       1.488  -4.773   0.227  0.00  0.00    +0.058 C 
ATOM      3  C   UNL     1       1.521  -6.305   0.165  0.00  0.00    +0.143 C 
ATOM      4  N   UNL     1       0.446  -6.834   1.005  0.00  0.00    -0.224 N 
ATOM      5  C   UNL     1      -0.629  -6.117   1.411  0.00  0.00    +0.216 A 
ATOM      6  N   UNL     1      -1.382  -6.893   2.144  0.00  0.00    -0.180 NA
ATOM      7  C   UNL     1      -0.824  -8.109   2.227  0.00  0.00    +0.233 A 
ATOM      8  N   UNL     1       0.297  -8.114   1.541  0.00  0.00    -0.132 NA
ATOM      9  N   UNL     1      -1.349  -9.196   2.928  0.00  0.00    -0.326 N 
ATOM     10  N   UNL     1      -0.815  -4.788   1.051  0.00  0.00    -0.307 N 
ATOM     11  H   UNL     1      -2.187  -9.104   3.408  0.00  0.00    +0.145 HD
ATOM     12  H   UNL     1      -0.877 -10.043   2.935  0.00  0.00    +0.145 HD
ATOM     13  H   UNL     1      -1.480  -4.228   1.482  0.00  0.00    +0.149 HD
ENDROOT
BRANCH   1  18
ATOM     14  C   UNL     1      -0.018   1.503   0.010  0.00  0.00    +0.044 C 
ATOM     15  C   UNL     1       0.002  -0.004   0.002  0.00  0.00    -0.050 A 
ATOM     16  C   UNL     1       0.006  -0.689  -1.199  0.00  0.00    +0.004 A 
ATOM     17  C   UNL     1       0.025  -2.071  -1.206  0.00  0.00    +0.006 A 
ATOM     18  C   UNL     1       0.040  -2.768  -0.013  0.00  0.00    -0.027 A 
ATOM     19  C   UNL     1       0.037  -2.084   1.188  0.00  0.00    +0.006 A 
ATOM     20  C   UNL     1       0.023  -0.702   1.195  0.00  0.00    +0.004 A 
ENDBRANCH   1  18
BRANCH   3  21
ATOM     21  C   UNL     1       2.851  -6.803   0.669  0.00  0.00    -0.023 A 
ATOM     22  C   UNL     1       3.249  -6.518   1.962  0.00  0.00    +0.009 A 
ATOM     23  C   UNL     1       4.468  -6.972   2.427  0.00  0.00    +0.046 A 
ATOM     24  C   UNL     1       5.293  -7.716   1.595  0.00  0.00    +0.120 A 
ATOM     25  C   UNL     1       4.890  -8.001   0.298  0.00  0.00    +0.046 A 
ATOM     26  C   UNL     1       3.668  -7.548  -0.160  0.00  0.00    +0.009 A 
BRANCH  24  27
ATOM     27  O   UNL     1       6.493  -8.164   2.049  0.00  0.00    -0.495 OA
ATOM     28  C   UNL     1       7.289  -8.923   1.137  0.00  0.00    +0.277 C 
ENDBRANCH  24  27
ENDBRANCH   3  21
TORSDOF 3
