REMARK  Name = ZINC63111255
REMARK  7 active torsions:
REMARK  status: ('A' for Active; 'I' for Inactive)
REMARK    1  A    between atoms: C_1  and  C_2
REMARK    2  A    between atoms: C_3  and  C_8
REMARK    3  A    between atoms: C_8  and  C_9
REMARK    4  A    between atoms: N_11  and  C_12
REMARK    5  A    between atoms: C_14  and  C_18
REMARK    6  A    between atoms: C_18  and  C_19
REMARK    7  A    between atoms: C_18  and  C_20
REMARK                            x       y       z     vdW  Elec       q    Type
REMARK                         _______ _______ _______ _____ _____    ______ ____
ROOT
ATOM      1  C   UNL     1       1.407  -0.024  -3.062  0.00  0.00    +0.223 C 
ATOM      2  O   UNL     1       2.337  -0.270  -2.322  0.00  0.00    -0.275 OA
ATOM      3  N   UNL     1       1.641   0.416  -4.314  0.00  0.00    -0.270 N 
ATOM      4  H   UNL     1       0.898   0.614  -4.905  0.00  0.00    +0.156 HD
ENDROOT
BRANCH   3   5
ATOM      5  C   UNL     1       2.952   0.588  -4.760  0.00  0.00    +0.120 A 
ATOM      6  C   UNL     1       4.083   0.345  -4.043  0.00  0.00    +0.068 A 
ATOM      7  C   UNL     1       5.178   0.644  -4.858  0.00  0.00    +0.067 A 
ATOM      8  N   UNL     1       4.729   1.050  -6.018  0.00  0.00    -0.177 NA
ATOM      9  N   UNL     1       3.329   1.019  -5.985  0.00  0.00    -0.264 N 
ATOM     10  H   UNL     1       2.735   1.265  -6.711  0.00  0.00    +0.190 HD
BRANCH   7  11
ATOM     11  C   UNL     1       6.628   0.521  -4.468  0.00  0.00    +0.033 C 
ATOM     12  C   UNL     1       7.072   1.794  -3.743  0.00  0.00    +0.014 C 
ATOM     13  C   UNL     1       6.806  -0.682  -3.540  0.00  0.00    +0.014 C 
ENDBRANCH   7  11
ENDBRANCH   3   5
BRANCH   1  14
ATOM     14  C   UNL     1      -0.008  -0.209  -2.580  0.00  0.00    +0.140 C 
BRANCH  14  17
ATOM     15  C   UNL     1      -0.018   1.503   0.010  0.00  0.00    +0.066 C 
ATOM     16  C   UNL     1       0.002  -0.004   0.002  0.00  0.00    +0.050 A 
ATOM     17  C   UNL     1       0.006  -0.705  -1.157  0.00  0.00    +0.022 A 
ATOM     18  S   UNL     1       0.032  -2.378  -0.535  0.00  0.00    -0.064 S 
ATOM     19  C   UNL     1       0.035  -2.016   1.108  0.00  0.00    +0.146 A 
ATOM     20  S   UNL     1       0.057  -3.129   2.474  0.00  0.00    -0.023 SA
ATOM     21  N   UNL     1       0.023  -0.700   1.125  0.00  0.00    -0.237 NA
ENDBRANCH  14  17
ENDBRANCH   1  14
TORSDOF 4
