REMARK  Name = ZINC50908168
REMARK  3 active torsions:
REMARK  status: ('A' for Active; 'I' for Inactive)
REMARK    1  A    between atoms: C_3  and  N_9
REMARK    2  A    between atoms: C_5  and  C_6
REMARK    3  A    between atoms: N_9  and  C_10
REMARK                            x       y       z     vdW  Elec       q    Type
REMARK                         _______ _______ _______ _____ _____    ______ ____
ROOT
ATOM      1  N   UNL     1       3.473   0.642  -0.028  0.00  0.00    -0.314 N 
ATOM      2  H   UNL     1       3.973   1.473  -0.029  0.00  0.00    +0.149 HD
ENDROOT
BRANCH   1   3
ATOM      3  C   UNL     1       4.182  -0.639  -0.042  0.00  0.00    +0.059 C 
ATOM      4  C   UNL     1       4.341  -1.153   1.391  0.00  0.00    -0.056 C 
ATOM      5  N   UNL     1       5.761  -1.300   1.717  0.00  0.00    +0.381 N 
ATOM      6  C   UNL     1       6.445  -0.006   1.636  0.00  0.00    -0.078 C 
ATOM      7  C   UNL     1       6.356   0.545   0.211  0.00  0.00    -0.014 C 
ATOM      8  C   UNL     1       5.574  -0.451  -0.660  0.00  0.00    +0.004 C 
ATOM      9  C   UNL     1       6.305  -1.799  -0.626  0.00  0.00    -0.014 C 
ATOM     10  C   UNL     1       6.396  -2.275   0.828  0.00  0.00    -0.078 C 
ATOM     11  H   UNL     1       5.838  -1.634   2.666  0.00  0.00    -0.082 HD
ENDBRANCH   1   3
BRANCH   1  14
ATOM     12  C   UNL     1      -0.017   1.379   0.010  0.00  0.00    +0.059 A 
ATOM     13  C   UNL     1       1.313   1.800  -0.001  0.00  0.00    +0.066 A 
ATOM     14  C   UNL     1       2.095   0.667  -0.014  0.00  0.00    +0.187 A 
ATOM     15  O   UNL     1       1.293  -0.407  -0.013  0.00  0.00    -0.435 OA
ATOM     16  C   UNL     1       0.002  -0.004   0.002  0.00  0.00    +0.218 A 
BRANCH  16  17
ATOM     17  C   UNL     1      -1.128  -0.847   0.009  0.00  0.00    +0.421 C 
ATOM     18  O   UNL     1      -2.352  -0.320   0.024  0.00  0.00    -0.237 OA
ATOM     19  O   UNL     1      -0.972  -2.171   0.000  0.00  0.00    -0.237 OA
ENDBRANCH  16  17
ENDBRANCH   1  14
TORSDOF 3
