REMARK  Name = ZINC44786105
REMARK  6 active torsions:
REMARK  status: ('A' for Active; 'I' for Inactive)
REMARK    1  A    between atoms: C_1  and  C_2
REMARK    2  A    between atoms: C_2  and  C_4
REMARK    3  A    between atoms: C_2  and  N_10
REMARK    4  A    between atoms: C_11  and  C_13
REMARK    5  A    between atoms: C_13  and  C_19
REMARK    6  A    between atoms: N_20  and  O_21
REMARK                            x       y       z     vdW  Elec       q    Type
REMARK                         _______ _______ _______ _____ _____    ______ ____
ROOT
ATOM      1  C   UNL     1       2.651  -1.026  -2.512  0.00  0.00    +0.109 C 
ATOM      2  C   UNL     1       2.091  -2.397  -2.900  0.00  0.00    +0.052 C 
ATOM      3  C   UNL     1       2.488  -3.422  -1.833  0.00  0.00    +0.161 C 
ATOM      4  O   UNL     1       3.911  -3.450  -1.708  0.00  0.00    -0.380 OA
ATOM      5  C   UNL     1       4.486  -2.207  -1.302  0.00  0.00    +0.161 C 
ATOM      6  C   UNL     1       4.170  -1.134  -2.347  0.00  0.00    +0.052 C 
ENDROOT
BRANCH   1   7
ATOM      7  C   UNL     1       2.332  -0.025  -3.593  0.00  0.00    +0.147 C 
ATOM      8  N   UNL     1       3.286   0.514  -4.277  0.00  0.00    -0.076 NA
ATOM      9  N   UNL     1       1.022   0.314  -3.852  0.00  0.00    -0.343 N 
ATOM     10  H   UNL     1       0.302  -0.145  -3.393  0.00  0.00    +0.144 HD
ATOM     11  H   UNL     1       0.820   1.013  -4.494  0.00  0.00    +0.144 HD
BRANCH   8  12
ATOM     12  O   UNL     1       2.986   1.454  -5.292  0.00  0.00    -0.408 OA
ATOM     13  H   UNL     1       3.764   1.802  -5.748  0.00  0.00    +0.328 HD
ENDBRANCH   8  12
ENDBRANCH   1   7
BRANCH   1  15
ATOM     14  N   UNL     1       2.482   0.537  -0.602  0.00  0.00    -0.307 N 
ATOM     15  C   UNL     1       2.034  -0.578  -1.212  0.00  0.00    +0.227 C 
ATOM     16  O   UNL     1       1.133  -1.221  -0.715  0.00  0.00    -0.275 OA
ATOM     17  H   UNL     1       3.249   1.011  -0.960  0.00  0.00    +0.149 HD
BRANCH  14  19
ATOM     18  C   UNL     1       2.369   0.314   1.830  0.00  0.00    +0.033 C 
ATOM     19  C   UNL     1       1.810   1.034   0.601  0.00  0.00    +0.107 C 
BRANCH  19  20
ATOM     20  C   UNL     1       2.050   2.516   0.735  0.00  0.00    +0.011 A 
ATOM     21  C   UNL     1       1.192   3.486   1.132  0.00  0.00    +0.014 A 
ATOM     22  C   UNL     1       1.635   4.795   1.180  0.00  0.00    +0.028 A 
ATOM     23  C   UNL     1       2.917   5.068   0.828  0.00  0.00    +0.078 A 
ATOM     24  S   UNL     1       3.541   3.446   0.420  0.00  0.00    -0.080 S 
ATOM     25 CL   UNL     1       3.739   6.597   0.791  0.00  0.00    -0.076 Cl
ENDBRANCH  19  20
ENDBRANCH  14  19
ENDBRANCH   1  15
TORSDOF 5
