REMARK  Name = ZINC65265915
REMARK  5 active torsions:
REMARK  status: ('A' for Active; 'I' for Inactive)
REMARK    1  A    between atoms: C_1  and  C_2
REMARK    2  A    between atoms: C_3  and  C_8
REMARK    3  A    between atoms: C_4  and  C_7
REMARK    4  A    between atoms: C_8  and  C_9
REMARK    5  A    between atoms: N_26  and  C_27
REMARK                            x       y       z     vdW  Elec       q    Type
REMARK                         _______ _______ _______ _____ _____    ______ ____
ROOT
ATOM      1  C   UNL     1       1.411  -0.170  -3.054  0.00  0.00    +0.220 C 
ATOM      2  O   UNL     1       2.340  -0.406  -2.311  0.00  0.00    -0.275 OA
ATOM      3  N   UNL     1       1.645   0.252  -4.312  0.00  0.00    -0.299 N 
ATOM      4  C   UNL     1       0.617   0.579  -5.312  0.00  0.00    +0.110 C 
ATOM      5  C   UNL     1       1.349   1.039  -6.593  0.00  0.00    +0.050 C 
ATOM      6  C   UNL     1       2.734   1.450  -6.066  0.00  0.00    +0.091 C 
ATOM      7  C   UNL     1       2.977   0.469  -4.913  0.00  0.00    +0.137 C 
ATOM      8  C   UNL     1       3.786   1.359  -7.117  0.00  0.00    +0.095 C 
ATOM      9  N   UNL     1       4.868   2.194  -6.976  0.00  0.00    -0.303 N 
ATOM     10  C   UNL     1       4.817   3.464  -7.542  0.00  0.00    +0.037 A 
ATOM     11  C   UNL     1       5.902   3.951  -8.256  0.00  0.00    +0.023 A 
ATOM     12  C   UNL     1       5.861   5.216  -8.806  0.00  0.00    +0.002 A 
ATOM     13  C   UNL     1       4.729   5.993  -8.637  0.00  0.00    +0.000 A 
ATOM     14  C   UNL     1       3.648   5.508  -7.933  0.00  0.00    +0.007 A 
ATOM     15  C   UNL     1       3.670   4.232  -7.378  0.00  0.00    -0.012 A 
ATOM     16  C   UNL     1       2.425   3.782  -6.658  0.00  0.00    +0.119 C 
ATOM     17  N   UNL     1       2.711   2.842  -5.566  0.00  0.00    -0.299 NA
ATOM     18  N   UNL     1       3.686   0.538  -8.111  0.00  0.00    -0.372 N 
ATOM     19  H   UNL     1       2.044   2.945  -4.816  0.00  0.00    +0.123 HD
ATOM     20  H   UNL     1       2.911  -0.040  -8.186  0.00  0.00    +0.161 HD
ATOM     21  H   UNL     1       5.655   1.903  -6.489  0.00  0.00    +0.153 HD
ENDROOT
BRANCH  18  22
ATOM     22  C   UNL     1       4.744   0.480  -9.123  0.00  0.00    +0.080 C 
ATOM     23  C   UNL     1       4.470   1.516 -10.233  0.00  0.00    +0.024 C 
ATOM     24  C   UNL     1       4.926   0.808 -11.534  0.00  0.00    +0.002 C 
ATOM     25  C   UNL     1       4.479  -0.656 -11.301  0.00  0.00    +0.002 C 
ATOM     26  C   UNL     1       4.750  -0.901  -9.802  0.00  0.00    +0.024 C 
ENDBRANCH  18  22
BRANCH   1  27
ATOM     27  C   UNL     1      -0.005  -0.348  -2.571  0.00  0.00    +0.136 C 
BRANCH  27  30
ATOM     28  C   UNL     1      -0.018   1.503   0.010  0.00  0.00    +0.069 C 
ATOM     29  C   UNL     1       0.002  -0.004   0.002  0.00  0.00    +0.084 A 
ATOM     30  C   UNL     1       0.008  -0.824  -1.141  0.00  0.00    +0.026 A 
ATOM     31  C   UNL     1       0.027  -2.108  -0.735  0.00  0.00    +0.138 A 
ATOM     32  O   UNL     1       0.034  -2.119   0.606  0.00  0.00    -0.359 OA
ATOM     33  N   UNL     1       0.023  -0.775   1.052  0.00  0.00    -0.083 NA
ATOM     34  C   UNL     1       0.039  -3.320  -1.631  0.00  0.00    +0.089 C 
ENDBRANCH  27  30
ENDBRANCH   1  27
TORSDOF 3
