REMARK  Name = ZINC46478897
REMARK  5 active torsions:
REMARK  status: ('A' for Active; 'I' for Inactive)
REMARK    1  A    between atoms: C_1  and  C_2
REMARK    2  A    between atoms: C_3  and  C_14
REMARK    3  A    between atoms: N_6  and  C_7
REMARK    4  A    between atoms: C_14  and  C_16
REMARK    5  A    between atoms: C_14  and  N_17
REMARK                            x       y       z     vdW  Elec       q    Type
REMARK                         _______ _______ _______ _____ _____    ______ ____
ROOT
ATOM      1  C   UNL     1      -0.006  -0.327  -2.527  0.00  0.00    +0.102 C 
ATOM      2  C   UNL     1       1.425  -0.029  -2.980  0.00  0.00    +0.033 C 
ENDROOT
BRANCH   1   3
ATOM      3  N   UNL     1      -0.579  -1.373  -3.378  0.00  0.00    -0.322 N 
ATOM      4  C   UNL     1      -1.172  -1.037  -4.584  0.00  0.00    +0.126 A 
ATOM      5  C   UNL     1      -1.224   0.294  -5.001  0.00  0.00    +0.083 A 
ATOM      6  C   UNL     1      -1.825   0.583  -6.213  0.00  0.00    +0.136 A 
ATOM      7  N   UNL     1      -2.331  -0.406  -6.937  0.00  0.00    -0.203 NA
ATOM      8  C   UNL     1      -2.267  -1.660  -6.516  0.00  0.00    +0.216 A 
ATOM      9  N   UNL     1      -1.695  -1.978  -5.364  0.00  0.00    -0.200 NA
ATOM     10  N   UNL     1      -2.807  -2.664  -7.300  0.00  0.00    -0.327 N 
ATOM     11 CL   UNL     1      -1.917   2.221  -6.778  0.00  0.00    -0.062 Cl
ATOM     12  H   UNL     1      -0.543  -2.301  -3.097  0.00  0.00    +0.148 HD
ATOM     13  H   UNL     1      -3.226  -2.445  -8.148  0.00  0.00    +0.145 HD
ATOM     14  H   UNL     1      -2.767  -3.587  -7.003  0.00  0.00    +0.145 HD
ENDBRANCH   1   3
BRANCH   1  17
ATOM     15  C   UNL     1      -0.018   1.503   0.010  0.00  0.00    +0.066 C 
ATOM     16  C   UNL     1       0.002  -0.004   0.002  0.00  0.00    +0.047 A 
ATOM     17  C   UNL     1       0.008  -0.796  -1.095  0.00  0.00    +0.013 A 
ATOM     18  C   UNL     1       0.028  -2.127  -0.665  0.00  0.00    +0.140 A 
ATOM     19  N   UNL     1       0.035  -2.135   0.643  0.00  0.00    -0.174 NA
ATOM     20  N   UNL     1       0.024  -0.807   1.089  0.00  0.00    -0.237 N 
BRANCH  20  21
ATOM     21  C   UNL     1       0.032  -0.386   2.427  0.00  0.00    +0.066 A 
ATOM     22  C   UNL     1       0.704   0.774   2.786  0.00  0.00    +0.030 A 
ATOM     23  C   UNL     1       0.711   1.188   4.104  0.00  0.00    +0.040 A 
ATOM     24  C   UNL     1       0.048   0.446   5.067  0.00  0.00    +0.124 A 
ATOM     25  C   UNL     1      -0.624  -0.711   4.710  0.00  0.00    +0.040 A 
ATOM     26  C   UNL     1      -0.638  -1.125   3.393  0.00  0.00    +0.030 A 
ATOM     27  F   UNL     1       0.056   0.852   6.355  0.00  0.00    -0.205 F 
ENDBRANCH  20  21
ENDBRANCH   1  17
TORSDOF 3
