REMARK  Name = ZINC11881644
REMARK  8 active torsions:
REMARK  status: ('A' for Active; 'I' for Inactive)
REMARK    1  A    between atoms: C_1  and  O_2
REMARK    2  A    between atoms: O_2  and  C_3
REMARK    3  A    between atoms: C_8  and  C_9
REMARK    4  A    between atoms: C_20  and  C_21
REMARK    5  A    between atoms: C_20  and  N_64
REMARK    6  A    between atoms: N_23  and  C_24
REMARK    7  A    between atoms: C_24  and  C_25
REMARK    8  A    between atoms: C_25  and  C_26
REMARK                            x       y       z     vdW  Elec       q    Type
REMARK                         _______ _______ _______ _____ _____    ______ ____
ROOT
ATOM      1  C   UNL     1      -0.972   0.974  -8.491  0.00  0.00    +0.191 C 
ATOM      2  C   UNL     1      -0.073   0.773  -7.290  0.00  0.00    -0.027 C 
ATOM      3  C   UNL     1      -0.465   2.908  -6.186  0.00  0.00    -0.038 C 
ATOM      4  C   UNL     1      -1.705   3.420  -6.893  0.00  0.00    -0.022 A 
ATOM      5  C   UNL     1      -2.639   4.167  -6.204  0.00  0.00    +0.005 A 
ATOM      6  C   UNL     1      -3.757   4.644  -6.865  0.00  0.00    +0.000 A 
ATOM      7  C   UNL     1      -3.936   4.374  -8.210  0.00  0.00    +0.004 A 
ATOM      8  C   UNL     1      -3.004   3.621  -8.898  0.00  0.00    +0.046 A 
ATOM      9  C   UNL     1      -1.887   3.135  -8.233  0.00  0.00    +0.123 A 
ATOM     10  O   UNL     1      -0.988   2.350  -8.889  0.00  0.00    -0.486 OA
ATOM     11  N   UNL     1      -0.584   1.434  -6.071  0.00  0.00    +0.391 N 
ATOM     12  H   UNL     1      -1.575   1.192  -5.956  0.00  0.00    -0.080 HD
ENDROOT
BRANCH   1  18
ATOM     13  C   UNL     1      -0.817  -1.206  -9.721  0.00  0.00    +0.127 A 
ATOM     14  C   UNL     1      -0.352  -1.976 -10.778  0.00  0.00    +0.046 A 
ATOM     15  C   UNL     1       0.466  -1.411 -11.736  0.00  0.00    +0.004 A 
ATOM     16  C   UNL     1       0.819  -0.077 -11.645  0.00  0.00    +0.001 A 
ATOM     17  C   UNL     1       0.353   0.694 -10.596  0.00  0.00    +0.011 A 
ATOM     18  C   UNL     1      -0.465   0.133  -9.635  0.00  0.00    +0.032 A 
BRANCH  13  20
ATOM     19  C   UNL     1      -1.938  -3.146  -8.926  0.00  0.00    +0.277 C 
ATOM     20  O   UNL     1      -1.617  -1.762  -8.774  0.00  0.00    -0.495 OA
ENDBRANCH  13  20
ENDBRANCH   1  18
BRANCH  11  21
ATOM     21  C   UNL     1       0.162   0.960  -4.895  0.00  0.00    +0.019 C 
BRANCH  21  22
ATOM     22  C   UNL     1      -0.543   1.446  -3.655  0.00  0.00    +0.196 C 
ATOM     23  O   UNL     1      -1.540   2.130  -3.753  0.00  0.00    -0.278 OA
ATOM     24  N   UNL     1      -0.067   1.120  -2.437  0.00  0.00    -0.316 N 
ATOM     25  H   UNL     1       0.730   0.573  -2.358  0.00  0.00    +0.149 HD
BRANCH  24  26
ATOM     26  C   UNL     1      -0.753   1.593  -1.232  0.00  0.00    +0.112 C 
BRANCH  26  27
ATOM     27  C   UNL     1      -0.013   1.086   0.008  0.00  0.00    +0.093 C 
BRANCH  27  28
ATOM     28  C   UNL     1      -0.718   1.572   1.248  0.00  0.00    +0.112 A 
ATOM     29  N   UNL     1      -0.208   1.223   2.458  0.00  0.00    -0.310 N 
ATOM     30  H   UNL     1       0.590   0.674   2.503  0.00  0.00    +0.170 HD
ATOM     31  C   UNL     1      -0.804   1.634   3.601  0.00  0.00    +0.259 A 
ATOM     32  O   UNL     1      -0.358   1.329   4.692  0.00  0.00    -0.267 OA
ATOM     33  C   UNL     1      -2.012   2.464   3.474  0.00  0.00    +0.065 A 
ATOM     34  C   UNL     1      -2.701   2.938   4.589  0.00  0.00    +0.015 A 
ATOM     35  C   UNL     1      -3.827   3.712   4.412  0.00  0.00    +0.001 A 
ATOM     36  C   UNL     1      -4.279   4.020   3.136  0.00  0.00    +0.002 A 
ATOM     37  C   UNL     1      -3.613   3.561   2.022  0.00  0.00    +0.028 A 
ATOM     38  C   UNL     1      -2.469   2.775   2.175  0.00  0.00    +0.078 A 
ATOM     39  N   UNL     1      -1.779   2.307   1.105  0.00  0.00    -0.234 NA
ENDBRANCH  27  28
ENDBRANCH  26  27
ENDBRANCH  24  26
ENDBRANCH  21  22
ENDBRANCH  11  21
TORSDOF 7
