REMARK  Name = ZINC09264382
REMARK  3 active torsions:
REMARK  status: ('A' for Active; 'I' for Inactive)
REMARK    1  A    between atoms: C_10  and  C_22
REMARK    2  A    between atoms: N_15  and  C_16
REMARK    3  A    between atoms: C_30  and  C_33
REMARK                            x       y       z     vdW  Elec       q    Type
REMARK                         _______ _______ _______ _____ _____    ______ ____
ROOT
ATOM      1  C   UNL     1       0.596  -6.172   1.086  0.00  0.00    +0.002 A 
ATOM      2  C   UNL     1       1.692  -5.359   0.866  0.00  0.00    +0.002 A 
ATOM      3  C   UNL     1       1.788  -4.607  -0.292  0.00  0.00    +0.025 A 
ATOM      4  C   UNL     1       0.777  -4.670  -1.233  0.00  0.00    +0.060 A 
ATOM      5  C   UNL     1      -0.348  -5.450  -0.987  0.00  0.00    +0.053 A 
ATOM      6  C   UNL     1      -0.432  -6.221   0.159  0.00  0.00    +0.025 A 
ATOM      7  N   UNL     1      -1.369  -5.405  -1.930  0.00  0.00    -0.316 N 
ATOM      8  C   UNL     1      -1.254  -5.827  -3.216  0.00  0.00    +0.018 C 
ATOM      9  C   UNL     1      -0.245  -5.520  -4.045  0.00  0.00    +0.040 C 
ATOM     10  C   UNL     1       0.964  -4.680  -3.700  0.00  0.00    +0.184 C 
ATOM     11  N   UNL     1       0.856  -3.976  -2.440  0.00  0.00    -0.239 N 
ATOM     12  C   UNL     1       0.838  -2.628  -2.432  0.00  0.00    +0.308 C 
ATOM     13  O   UNL     1       0.911  -2.014  -3.479  0.00  0.00    -0.252 OA
ATOM     14  N   UNL     1       0.738  -1.962  -1.265  0.00  0.00    -0.296 N 
ATOM     15  C   UNL     1      -0.249  -5.989  -5.381  0.00  0.00    +0.164 C 
ATOM     16  O   UNL     1       0.686  -5.706  -6.104  0.00  0.00    -0.292 OA
ATOM     17  C   UNL     1      -1.365  -6.822  -5.935  0.00  0.00    +0.091 C 
ATOM     18  C   UNL     1      -2.653  -6.479  -5.177  0.00  0.00    +0.068 C 
ATOM     19  C   UNL     1      -2.394  -6.715  -3.690  0.00  0.00    +0.063 C 
ATOM     20  H   UNL     1      -2.226  -5.046  -1.650  0.00  0.00    +0.152 HD
ATOM     21  H   UNL     1       0.679  -2.453  -0.430  0.00  0.00    +0.151 HD
ENDROOT
BRANCH  14  22
ATOM     22  C   UNL     1       0.718  -0.497  -1.257  0.00  0.00    +0.074 C 
ATOM     23  C   UNL     1       0.002  -0.004   0.002  0.00  0.00    +0.022 C 
ATOM     24  C   UNL     1      -0.019   1.526   0.010  0.00  0.00    +0.002 C 
ATOM     25  C   UNL     1       1.417   2.055  -0.000  0.00  0.00    +0.000 C 
ATOM     26  C   UNL     1       2.133   1.562  -1.259  0.00  0.00    +0.002 C 
ATOM     27  C   UNL     1       2.154   0.032  -1.268  0.00  0.00    +0.022 C 
ENDBRANCH  14  22
BRANCH  10  28
ATOM     28  C   UNL     1       2.172  -5.579  -3.645  0.00  0.00    +0.130 A 
ATOM     29  C   UNL     1       3.038  -5.795  -4.651  0.00  0.00    +0.047 A 
ATOM     30  C   UNL     1       4.013  -6.697  -4.166  0.00  0.00    +0.041 A 
ATOM     31  C   UNL     1       3.680  -6.984  -2.895  0.00  0.00    +0.195 A 
ATOM     32  O   UNL     1       2.564  -6.304  -2.584  0.00  0.00    -0.466 OA
ENDBRANCH  10  28
BRANCH  18  33
ATOM     33  C   UNL     1      -3.775  -7.369  -5.647  0.00  0.00    +0.109 A 
ATOM     34  C   UNL     1      -4.924  -6.955  -6.210  0.00  0.00    +0.045 A 
ATOM     35  C   UNL     1      -5.682  -8.114  -6.494  0.00  0.00    +0.041 A 
ATOM     36  C   UNL     1      -4.950  -9.167  -6.088  0.00  0.00    +0.195 A 
ATOM     37  O   UNL     1      -3.794  -8.710  -5.581  0.00  0.00    -0.468 OA
ENDBRANCH  18  33
TORSDOF 3
