REMARK  Name = ZINC39596096
REMARK  7 active torsions:
REMARK  status: ('A' for Active; 'I' for Inactive)
REMARK    1  A    between atoms: C_1  and  C_2
REMARK    2  A    between atoms: C_2  and  C_4
REMARK    3  A    between atoms: C_2  and  O_29
REMARK    4  A    between atoms: C_4  and  N_5
REMARK    5  A    between atoms: C_6  and  C_8
REMARK    6  A    between atoms: C_19  and  C_21
REMARK    7  A    between atoms: O_29  and  C_30
REMARK                            x       y       z     vdW  Elec       q    Type
REMARK                         _______ _______ _______ _____ _____    ______ ____
ROOT
ATOM      1  C   UNL     1       0.341  -3.302   2.247  0.00  0.00    +0.100 C 
ATOM      2  C   UNL     1       0.575  -3.904   0.843  0.00  0.00    +0.121 C 
ATOM      3  N   UNL     1       2.016  -4.250   0.819  0.00  0.00    -0.296 N 
ATOM      4  C   UNL     1       2.289  -4.784   2.175  0.00  0.00    +0.115 C 
ATOM      5  C   UNL     1       1.466  -3.885   3.119  0.00  0.00    -0.004 C 
ATOM      6  C   UNL     1       0.878  -4.713   4.257  0.00  0.00    -0.010 C 
ATOM      7  C   UNL     1       2.013  -5.233   5.144  0.00  0.00    -0.082 C 
ATOM      8  N   UNL     1       2.776  -4.100   5.680  0.00  0.00    +0.379 N 
ATOM      9  C   UNL     1       3.415  -3.363   4.584  0.00  0.00    -0.082 C 
ATOM     10  C   UNL     1       2.340  -2.763   3.673  0.00  0.00    -0.010 C 
ATOM     11  C   UNL     1       2.882  -4.110  -0.204  0.00  0.00    +0.249 C 
ATOM     12  O   UNL     1       4.020  -4.524  -0.098  0.00  0.00    -0.270 OA
ATOM     13  H   UNL     1       2.153  -3.483   6.180  0.00  0.00    -0.086 HD
ATOM     14  H   UNL     1       3.484  -4.442   6.312  0.00  0.00    -0.086 HD
ENDROOT
BRANCH  11  15
ATOM     15  C   UNL     1       2.448  -3.454  -1.454  0.00  0.00    +0.073 A 
ATOM     16  C   UNL     1       1.188  -3.729  -1.990  0.00  0.00    +0.016 A 
ATOM     17  C   UNL     1       0.788  -3.114  -3.157  0.00  0.00    +0.002 A 
ATOM     18  C   UNL     1       1.632  -2.224  -3.800  0.00  0.00    +0.023 A 
ATOM     19  C   UNL     1       2.882  -1.945  -3.278  0.00  0.00    +0.077 A 
ATOM     20  C   UNL     1       3.295  -2.552  -2.104  0.00  0.00    +0.154 A 
ATOM     21  F   UNL     1       4.514  -2.276  -1.591  0.00  0.00    -0.203 F 
ATOM     22 CL   UNL     1       3.933  -0.829  -4.093  0.00  0.00    -0.081 Cl
ENDBRANCH  11  15
BRANCH   1  24
ATOM     23  N   UNL     1      -0.158  -1.052   3.145  0.00  0.00    -0.312 N 
ATOM     24  C   UNL     1       0.441  -1.799   2.197  0.00  0.00    +0.218 C 
ATOM     25  O   UNL     1       1.061  -1.262   1.303  0.00  0.00    -0.275 OA
ATOM     26  H   UNL     1      -0.654  -1.482   3.859  0.00  0.00    +0.149 HD
BRANCH  23  27
ATOM     27  C   UNL     1      -0.061   0.409   3.096  0.00  0.00    +0.148 C 
BRANCH  27  29
ATOM     28  C   UNL     1      -0.722   2.536   4.227  0.00  0.00    +0.053 C 
ATOM     29  C   UNL     1      -0.823   1.010   4.278  0.00  0.00    +0.187 C 
BRANCH  29  30
ATOM     30  O   UNL     1      -2.197   0.622   4.207  0.00  0.00    -0.488 OA
BRANCH  30  31
ATOM     31  C   UNL     1      -2.880   0.552   5.380  0.00  0.00    +0.121 A 
ATOM     32  C   UNL     1      -4.181   0.073   5.398  0.00  0.00    +0.048 A 
ATOM     33  C   UNL     1      -4.875   0.002   6.591  0.00  0.00    +0.042 A 
ATOM     34  C   UNL     1      -4.271   0.410   7.769  0.00  0.00    +0.124 A 
ATOM     35  C   UNL     1      -2.972   0.889   7.752  0.00  0.00    +0.042 A 
ATOM     36  C   UNL     1      -2.274   0.954   6.562  0.00  0.00    +0.048 A 
ATOM     37  F   UNL     1      -4.950   0.341   8.935  0.00  0.00    -0.205 F 
ENDBRANCH  30  31
ENDBRANCH  29  30
ENDBRANCH  27  29
ENDBRANCH  23  27
ENDBRANCH   1  24
TORSDOF 6
