REMARK  Name = ZINC40548432
REMARK  10 active torsions:
REMARK  status: ('A' for Active; 'I' for Inactive)
REMARK    1  A    between atoms: C_1  and  C_2
REMARK    2  A    between atoms: C_4  and  C_38
REMARK    3  A    between atoms: C_5  and  O_37
REMARK    4  A    between atoms: C_6  and  C_8
REMARK    5  A    between atoms: N_16  and  C_29
REMARK    6  A    between atoms: C_17  and  C_19
REMARK    7  A    between atoms: C_22  and  C_25
REMARK    8  A    between atoms: C_25  and  C_26
REMARK    9  A    between atoms: C_25  and  C_27
REMARK   10  A    between atoms: C_25  and  C_28
REMARK                            x       y       z     vdW  Elec       q    Type
REMARK                         _______ _______ _______ _____ _____    ______ ____
ROOT
ATOM      1  C   UNL     1       0.047  -2.837   2.465  0.00  0.00    +0.102 A 
ATOM      2  C   UNL     1       0.140  -2.289   3.748  0.00  0.00    +0.035 A 
ATOM      3  C   UNL     1       0.118  -3.362   4.619  0.00  0.00    +0.126 A 
ATOM      4  N   UNL     1       0.015  -4.479   3.840  0.00  0.00    -0.272 N 
ATOM      5  H   UNL     1      -0.024  -5.389   4.174  0.00  0.00    +0.189 HD
ATOM      6  N   UNL     1      -0.029  -4.146   2.599  0.00  0.00    -0.173 NA
ATOM      7  C   UNL     1       0.213  -2.852   5.991  0.00  0.00    +0.266 C 
ATOM      8  O   UNL     1       0.219  -3.545   6.990  0.00  0.00    -0.268 OA
ATOM      9  N   UNL     1       0.292  -1.509   5.987  0.00  0.00    -0.280 N 
ATOM     10  C   UNL     1       0.253  -1.049   4.593  0.00  0.00    +0.142 C 
ENDROOT
BRANCH   1  16
ATOM     11  C   UNL     1      -1.676   0.950  -0.295  0.00  0.00    +0.044 C 
ATOM     12  C   UNL     1      -0.795  -0.264  -0.144  0.00  0.00    -0.049 A 
ATOM     13  C   UNL     1      -0.002  -0.675  -1.201  0.00  0.00    +0.010 A 
ATOM     14  C   UNL     1       0.809  -1.786  -1.073  0.00  0.00    -0.008 A 
ATOM     15  C   UNL     1       0.831  -2.496   0.118  0.00  0.00    +0.129 A 
ATOM     16  C   UNL     1       0.030  -2.083   1.187  0.00  0.00    +0.044 A 
ATOM     17  C   UNL     1      -0.779  -0.958   1.048  0.00  0.00    +0.017 A 
ATOM     18  C   UNL     1       1.670  -2.228  -2.228  0.00  0.00    +0.047 C 
BRANCH  15  19
ATOM     19  O   UNL     1       1.627  -3.589   0.245  0.00  0.00    -0.506 OA
ATOM     20  H   UNL     1       2.514  -3.393   0.575  0.00  0.00    +0.292 HD
ENDBRANCH  15  19
ENDBRANCH   1  16
BRANCH   9  21
ATOM     21  C   UNL     1       0.399  -0.652   7.170  0.00  0.00    +0.100 C 
ATOM     22  C   UNL     1      -0.824  -0.875   8.075  0.00  0.00    +0.047 C 
ATOM     23  C   UNL     1      -0.539  -0.205   9.450  0.00  0.00    +0.168 C 
ATOM     24  S   UNL     1       1.229  -0.665   9.688  0.00  0.00    -0.029 S 
ATOM     25  O   UNL     1       1.296  -1.878  10.425  0.00  0.00    -0.174 OA
ATOM     26  O   UNL     1       1.944   0.473  10.149  0.00  0.00    -0.174 OA
ATOM     27  C   UNL     1       1.695  -1.000   7.942  0.00  0.00    +0.188 C 
ENDBRANCH   9  21
BRANCH  10  28
ATOM     28  C   UNL     1       1.520  -0.306   4.256  0.00  0.00    -0.022 A 
ATOM     29  C   UNL     1       2.742  -0.801   4.672  0.00  0.00    +0.006 A 
ATOM     30  C   UNL     1       3.905  -0.119   4.363  0.00  0.00    +0.004 A 
ATOM     31  C   UNL     1       3.845   1.057   3.639  0.00  0.00    -0.042 A 
ATOM     32  C   UNL     1       2.623   1.551   3.223  0.00  0.00    +0.004 A 
ATOM     33  C   UNL     1       1.461   0.867   3.528  0.00  0.00    +0.006 A 
BRANCH  31  34
ATOM     34  C   UNL     1       5.112   1.800   3.304  0.00  0.00    -0.013 C 
ATOM     35  C   UNL     1       6.027   0.899   2.471  0.00  0.00    +0.015 C 
ATOM     36  C   UNL     1       4.769   3.058   2.503  0.00  0.00    +0.015 C 
ATOM     37  C   UNL     1       5.828   2.198   4.596  0.00  0.00    +0.015 C 
ENDBRANCH  31  34
ENDBRANCH  10  28
TORSDOF 5
