REMARK  Name = ZINC09434016
REMARK  6 active torsions:
REMARK  status: ('A' for Active; 'I' for Inactive)
REMARK    1  A    between atoms: C_1  and  C_2
REMARK    2  A    between atoms: C_2  and  C_30
REMARK    3  A    between atoms: N_3  and  N_4
REMARK    4  A    between atoms: C_5  and  C_7
REMARK    5  A    between atoms: C_7  and  N_71
REMARK    6  A    between atoms: C_14  and  C_24
REMARK                            x       y       z     vdW  Elec       q    Type
REMARK                         _______ _______ _______ _____ _____    ______ ____
ROOT
ATOM      1  C   UNL     1      -3.136   7.798   1.451  0.00  0.00    -0.055 C 
ATOM      2  C   UNL     1      -4.468   8.517   1.698  0.00  0.00    +0.103 C 
ATOM      3  N   UNL     1      -5.320   8.325   0.514  0.00  0.00    -0.347 N 
ATOM      4  C   UNL     1      -6.658   8.523   0.353  0.00  0.00    +0.049 A 
ATOM      5  C   UNL     1      -7.652   8.935   1.238  0.00  0.00    +0.027 A 
ATOM      6  C   UNL     1      -8.938   9.043   0.740  0.00  0.00    +0.006 A 
ATOM      7  C   UNL     1      -9.243   8.760  -0.581  0.00  0.00    -0.044 A 
ATOM      8  C   UNL     1      -8.289   8.352  -1.478  0.00  0.00    +0.014 A 
ATOM      9  C   UNL     1      -6.978   8.229  -1.007  0.00  0.00    +0.003 A 
ATOM     10  C   UNL     1      -5.744   7.831  -1.629  0.00  0.00    -0.020 A 
ATOM     11  C   UNL     1      -4.797   7.893  -0.672  0.00  0.00    +0.009 A 
ATOM     12  C   UNL     1      -3.354   7.534  -0.950  0.00  0.00    -0.020 C 
ATOM     13  C   UNL     1      -2.970   8.128  -2.295  0.00  0.00    -0.009 C 
ATOM     14  C   UNL     1      -4.020   8.066  -3.377  0.00  0.00    +0.003 C 
ATOM     15  C   UNL     1      -5.347   7.414  -3.017  0.00  0.00    +0.037 C 
ATOM     16  N   UNL     1      -2.576   8.180   0.138  0.00  0.00    +0.392 N 
ATOM     17  H   UNL     1      -2.636   9.199   0.032  0.00  0.00    -0.080 HD
ENDROOT
BRANCH   7  18
ATOM     18  C   UNL     1     -10.669   8.905  -1.048  0.00  0.00    +0.019 C 
ATOM     19  C   UNL     1     -11.126  10.351  -0.849  0.00  0.00    +0.008 C 
ATOM     20  C   UNL     1     -12.574  10.498  -1.323  0.00  0.00    +0.001 C 
ATOM     21  C   UNL     1     -13.473   9.563  -0.512  0.00  0.00    +0.000 C 
ATOM     22  C   UNL     1     -13.016   8.116  -0.711  0.00  0.00    +0.001 C 
ATOM     23  C   UNL     1     -11.568   7.970  -0.237  0.00  0.00    +0.008 C 
ENDBRANCH   7  18
BRANCH  16  24
ATOM     24  C   UNL     1      -1.157   7.771   0.055  0.00  0.00    +0.021 C 
BRANCH  24  26
ATOM     25  N   UNL     1       0.956   8.343   1.207  0.00  0.00    -0.208 N 
ATOM     26  C   UNL     1      -0.353   8.604   1.020  0.00  0.00    +0.216 C 
ATOM     27  O   UNL     1      -0.884   9.509   1.628  0.00  0.00    -0.276 OA
ATOM     28  H   UNL     1       1.381   7.619   0.721  0.00  0.00    +0.177 HD
BRANCH  25  31
ATOM     29  C   UNL     1       3.623   7.742   1.529  0.00  0.00    +0.068 C 
ATOM     30  C   UNL     1       2.964   8.866   2.284  0.00  0.00    +0.063 C 
ATOM     31  N   UNL     1       1.704   9.118   2.104  0.00  0.00    -0.185 NA
BRANCH  30  32
ATOM     32  C   UNL     1       3.750   9.682   3.228  0.00  0.00    -0.002 A 
ATOM     33  C   UNL     1       3.142  10.725   3.930  0.00  0.00    +0.012 A 
ATOM     34  C   UNL     1       3.882  11.484   4.811  0.00  0.00    +0.039 A 
ATOM     35  C   UNL     1       5.228  11.213   5.002  0.00  0.00    +0.123 A 
ATOM     36  C   UNL     1       5.838  10.179   4.308  0.00  0.00    +0.039 A 
ATOM     37  C   UNL     1       5.107   9.414   3.424  0.00  0.00    +0.012 A 
ATOM     38  F   UNL     1       5.949  11.960   5.867  0.00  0.00    -0.205 F 
ENDBRANCH  30  32
ENDBRANCH  25  31
ENDBRANCH  24  26
ENDBRANCH  16  24
TORSDOF 5
