REMARK  Name = ZINC09298070
REMARK  8 active torsions:
REMARK  status: ('A' for Active; 'I' for Inactive)
REMARK    1  A    between atoms: C_1  and  C_2
REMARK    2  A    between atoms: C_9  and  N_18
REMARK    3  A    between atoms: C_10  and  C_11
REMARK    4  A    between atoms: C_14  and  O_16
REMARK    5  A    between atoms: O_16  and  C_17
REMARK    6  A    between atoms: C_19  and  C_21
REMARK    7  A    between atoms: C_24  and  S_27
REMARK    8  A    between atoms: S_27  and  N_30
REMARK                            x       y       z     vdW  Elec       q    Type
REMARK                         _______ _______ _______ _____ _____    ______ ____
ROOT
ATOM      1  N   UNL     1       1.930  -5.844  -1.737  0.00  0.00    -0.275 N 
ATOM      2  C   UNL     1       2.227  -6.105  -3.026  0.00  0.00    +0.249 C 
ATOM      3  O   UNL     1       2.198  -5.211  -3.849  0.00  0.00    -0.270 OA
ATOM      4  H   UNL     1       1.952  -6.557  -1.080  0.00  0.00    +0.156 HD
ENDROOT
BRANCH   1  12
ATOM      5  C   UNL     1      -0.019   1.526   0.010  0.00  0.00    +0.008 C 
ATOM      6  C   UNL     1       0.002  -0.004   0.002  0.00  0.00    -0.009 C 
ATOM      7  C   UNL     1       0.742  -0.514   1.242  0.00  0.00    +0.008 C 
ATOM      8  C   UNL     1       0.557  -2.027   1.373  0.00  0.00    +0.037 C 
ATOM      9  C   UNL     1       0.941  -2.684   0.053  0.00  0.00    -0.023 A 
ATOM     10  C   UNL     1       1.008  -1.966  -1.089  0.00  0.00    -0.004 A 
ATOM     11  S   UNL     1       1.484  -3.133  -2.332  0.00  0.00    -0.077 S 
ATOM     12  C   UNL     1       1.592  -4.558  -1.351  0.00  0.00    +0.085 A 
ATOM     13  C   UNL     1       1.258  -4.096  -0.085  0.00  0.00    +0.069 A 
ATOM     14  C   UNL     1       0.736  -0.502  -1.252  0.00  0.00    +0.046 C 
BRANCH  13  15
ATOM     15  C   UNL     1       1.226  -4.998   1.069  0.00  0.00    +0.255 C 
ATOM     16  O   UNL     1       0.198  -5.582   1.356  0.00  0.00    -0.270 OA
ATOM     17  N   UNL     1       2.336  -5.181   1.812  0.00  0.00    -0.217 N 
ATOM     18  C   UNL     1       2.306  -6.011   2.873  0.00  0.00    +0.407 C 
ATOM     19  O   UNL     1       1.280  -6.594   3.160  0.00  0.00    -0.226 OA
ATOM     20  H   UNL     1       3.155  -4.716   1.583  0.00  0.00    +0.161 HD
BRANCH  18  21
ATOM     21  O   UNL     1       3.414  -6.195   3.615  0.00  0.00    -0.453 OA
ATOM     22  C   UNL     1       3.309  -7.103   4.743  0.00  0.00    +0.282 C 
ENDBRANCH  18  21
ENDBRANCH  13  15
ENDBRANCH   1  12
BRANCH   2  23
ATOM     23  C   UNL     1       2.587  -7.478  -3.438  0.00  0.00    +0.037 A 
ATOM     24  C   UNL     1       2.626  -8.506  -2.493  0.00  0.00    +0.015 A 
ATOM     25  C   UNL     1       2.957  -9.786  -2.885  0.00  0.00    +0.029 A 
ATOM     26  C   UNL     1       3.261 -10.051  -4.209  0.00  0.00    +0.106 A 
ATOM     27  C   UNL     1       3.230  -9.036  -5.149  0.00  0.00    +0.029 A 
ATOM     28  C   UNL     1       2.895  -7.752  -4.771  0.00  0.00    +0.015 A 
BRANCH  26  29
ATOM     29  S   UNL     1       3.690 -11.688  -4.700  0.00  0.00    +0.061 S 
ATOM     30  O   UNL     1       3.117 -12.563  -3.739  0.00  0.00    -0.153 OA
ATOM     31  O   UNL     1       3.400 -11.785  -6.088  0.00  0.00    -0.153 OA
BRANCH  29  32
ATOM     32  N   UNL     1       5.333 -11.830  -4.549  0.00  0.00    -0.172 NA
ATOM     33  C   UNL     1       6.228 -11.506  -5.672  0.00  0.00    +0.137 C 
ATOM     34  C   UNL     1       7.314 -10.547  -5.158  0.00  0.00    +0.177 C 
ATOM     35  O   UNL     1       7.930 -11.114  -3.999  0.00  0.00    -0.377 OA
ATOM     36  C   UNL     1       7.041 -11.297  -2.894  0.00  0.00    +0.177 C 
ATOM     37  C   UNL     1       5.941 -12.289  -3.290  0.00  0.00    +0.137 C 
ENDBRANCH  29  32
ENDBRANCH  26  29
ENDBRANCH   2  23
TORSDOF 6
