REMARK  Name = ZINC36497867
REMARK  9 active torsions:
REMARK  status: ('A' for Active; 'I' for Inactive)
REMARK    1  A    between atoms: C_4  and  O_34
REMARK    2  A    between atoms: C_5  and  C_7
REMARK    3  A    between atoms: C_7  and  C_9
REMARK    4  A    between atoms: C_7  and  N_18
REMARK    5  A    between atoms: N_11  and  C_12
REMARK    6  A    between atoms: N_18  and  C_19
REMARK    7  A    between atoms: C_19  and  C_20
REMARK    8  A    between atoms: C_25  and  C_27
REMARK    9  A    between atoms: C_32  and  O_33
REMARK                            x       y       z     vdW  Elec       q    Type
REMARK                         _______ _______ _______ _____ _____    ______ ____
ROOT
ATOM      1  C   UNL     1       4.543  -6.716   0.366  0.00  0.00    +0.196 C 
ENDROOT
BRANCH   1   6
ATOM      2  C   UNL     1       4.558  -4.179  -2.430  0.00  0.00    +0.001 A 
ATOM      3  C   UNL     1       4.345  -4.981  -3.536  0.00  0.00    +0.004 A 
ATOM      4  C   UNL     1       4.196  -6.346  -3.383  0.00  0.00    +0.046 A 
ATOM      5  C   UNL     1       4.259  -6.912  -2.117  0.00  0.00    +0.122 A 
ATOM      6  C   UNL     1       4.473  -6.105  -1.009  0.00  0.00    +0.023 A 
ATOM      7  C   UNL     1       4.622  -4.740  -1.168  0.00  0.00    +0.009 A 
BRANCH   5   8
ATOM      8  O   UNL     1       4.112  -8.254  -1.964  0.00  0.00    -0.506 OA
ATOM      9  H   UNL     1       4.929  -8.756  -2.087  0.00  0.00    +0.292 HD
ENDBRANCH   5   8
ENDBRANCH   1   6
BRANCH   1  10
ATOM     10  C   UNL     1       5.310  -5.800   1.285  0.00  0.00    +0.238 C 
ATOM     11  O   UNL     1       4.747  -5.265   2.216  0.00  0.00    -0.273 OA
ATOM     12  N   UNL     1       6.622  -5.576   1.072  0.00  0.00    -0.311 N 
ATOM     13  H   UNL     1       7.053  -5.937   0.281  0.00  0.00    +0.149 HD
BRANCH  12  14
ATOM     14  C   UNL     1       7.396  -4.787   2.033  0.00  0.00    +0.073 C 
ATOM     15  C   UNL     1       7.240  -3.298   1.715  0.00  0.00    +0.022 C 
ATOM     16  C   UNL     1       8.048  -2.474   2.719  0.00  0.00    +0.002 C 
ATOM     17  C   UNL     1       9.525  -2.864   2.626  0.00  0.00    +0.000 C 
ATOM     18  C   UNL     1       9.681  -4.352   2.945  0.00  0.00    +0.002 C 
ATOM     19  C   UNL     1       8.873  -5.176   1.940  0.00  0.00    +0.022 C 
ENDBRANCH  12  14
ENDBRANCH   1  10
BRANCH   1  20
ATOM     20  N   UNL     1       3.186  -6.905   0.886  0.00  0.00    -0.274 N 
ATOM     21  C   UNL     1       2.776  -8.129   1.272  0.00  0.00    +0.251 C 
ATOM     22  O   UNL     1       1.618  -8.309   1.594  0.00  0.00    -0.270 OA
BRANCH  21  23
ATOM     23  C   UNL     1       3.734  -9.252   1.303  0.00  0.00    +0.078 A 
ATOM     24  C   UNL     1       5.051  -9.040   1.718  0.00  0.00    +0.017 A 
ATOM     25  C   UNL     1       5.940 -10.092   1.746  0.00  0.00    +0.001 A 
ATOM     26  C   UNL     1       5.534 -11.361   1.364  0.00  0.00    +0.004 A 
ATOM     27  C   UNL     1       4.235 -11.584   0.952  0.00  0.00    +0.046 A 
ATOM     28  C   UNL     1       3.326 -10.537   0.923  0.00  0.00    +0.129 A 
BRANCH  28  29
ATOM     29  O   UNL     1       2.048 -10.756   0.523  0.00  0.00    -0.506 OA
ATOM     30  H   UNL     1       1.909 -10.645  -0.428  0.00  0.00    +0.292 HD
ENDBRANCH  28  29
ENDBRANCH  21  23
BRANCH  20  31
ATOM     31  C   UNL     1       2.275  -5.762   0.987  0.00  0.00    +0.183 C 
BRANCH  31  32
ATOM     32  C   UNL     1       2.385  -5.151   2.360  0.00  0.00    +0.122 A 
ATOM     33  C   UNL     1       2.737  -3.881   2.629  0.00  0.00    +0.046 A 
ATOM     34  C   UNL     1       2.712  -3.738   4.036  0.00  0.00    +0.041 A 
ATOM     35  C   UNL     1       2.346  -4.930   4.541  0.00  0.00    +0.195 A 
ATOM     36  O   UNL     1       2.144  -5.780   3.521  0.00  0.00    -0.466 OA
ENDBRANCH  31  32
ENDBRANCH  20  31
ENDBRANCH   1  20
TORSDOF 9
