REMARK  Name = ZINC61518280
REMARK  4 active torsions:
REMARK  status: ('A' for Active; 'I' for Inactive)
REMARK    1  A    between atoms: C_1  and  C_2
REMARK    2  A    between atoms: C_2  and  C_4
REMARK    3  A    between atoms: C_2  and  O_14
REMARK    4  A    between atoms: C_4  and  N_5
REMARK                            x       y       z     vdW  Elec       q    Type
REMARK                         _______ _______ _______ _____ _____    ______ ____
ROOT
ATOM      1  N   UNL     1       0.634  -1.958  -1.325  0.00  0.00    -0.311 N 
ATOM      2  C   UNL     1       1.212  -2.634  -2.381  0.00  0.00    +0.220 A 
ATOM      3  N   UNL     1       1.850  -1.960  -3.334  0.00  0.00    -0.184 NA
ATOM      4  C   UNL     1       2.403  -2.611  -4.344  0.00  0.00    +0.228 A 
ATOM      5  N   UNL     1       2.321  -3.931  -4.407  0.00  0.00    -0.187 NA
ATOM      6  C   UNL     1       1.687  -4.604  -3.460  0.00  0.00    +0.228 A 
ATOM      7  N   UNL     1       1.136  -3.960  -2.445  0.00  0.00    -0.184 NA
ATOM      8 CL   UNL     1       1.582  -6.335  -3.549  0.00  0.00    -0.041 Cl
ATOM      9 CL   UNL     1       3.236  -1.732  -5.588  0.00  0.00    -0.041 Cl
ATOM     10  H   UNL     1       0.172  -2.451  -0.629  0.00  0.00    +0.149 HD
ENDROOT
BRANCH   1  11
ATOM     11  C   UNL     1       0.718  -0.497  -1.257  0.00  0.00    +0.135 C 
BRANCH  11  13
ATOM     12  C   UNL     1      -0.019   1.526   0.010  0.00  0.00    +0.039 C 
ATOM     13  C   UNL     1       0.002  -0.004   0.002  0.00  0.00    +0.128 C 
BRANCH  13  14
ATOM     14  O   UNL     1       0.693  -0.477   1.160  0.00  0.00    -0.391 OA
ATOM     15  H   UNL     1       0.294  -0.202   1.996  0.00  0.00    +0.210 HD
ENDBRANCH  13  14
ENDBRANCH  11  13
ENDBRANCH   1  11
TORSDOF 3
