REMARK  Name = ZINC66366236
REMARK  9 active torsions:
REMARK  status: ('A' for Active; 'I' for Inactive)
REMARK    1  A    between atoms: C_1  and  C_2
REMARK    2  A    between atoms: C_2  and  C_3
REMARK    3  A    between atoms: C_3  and  C_5
REMARK    4  A    between atoms: C_3  and  N_8
REMARK    5  A    between atoms: C_5  and  C_6
REMARK    6  A    between atoms: C_5  and  C_7
REMARK    7  A    between atoms: N_11  and  N_12
REMARK    8  A    between atoms: C_13  and  C_15
REMARK    9  A    between atoms: C_15  and  C_16
REMARK                            x       y       z     vdW  Elec       q    Type
REMARK                         _______ _______ _______ _____ _____    ______ ____
ROOT
ATOM      1  N   UNL     1       4.750   0.623  -1.103  0.00  0.00    -0.233 N 
ATOM      2  C   UNL     1       6.044   0.997  -1.060  0.00  0.00    +0.234 C 
ATOM      3  O   UNL     1       6.370   2.099  -1.447  0.00  0.00    -0.274 OA
ATOM      4  H   UNL     1       4.489  -0.258  -0.794  0.00  0.00    +0.173 HD
ENDROOT
BRANCH   1   8
ATOM      5  N   UNL     1       2.125  -0.091  -1.209  0.00  0.00    -0.295 N 
ATOM      6  C   UNL     1       2.487   1.134  -1.640  0.00  0.00    +0.316 C 
ATOM      7  O   UNL     1       1.647   1.901  -2.067  0.00  0.00    -0.251 OA
ATOM      8  N   UNL     1       3.781   1.508  -1.596  0.00  0.00    -0.218 N 
ATOM      9  H   UNL     1       2.795  -0.703  -0.868  0.00  0.00    +0.151 HD
ATOM     10  H   UNL     1       4.042   2.389  -1.906  0.00  0.00    +0.174 HD
BRANCH   5  11
ATOM     11  C   UNL     1       0.718  -0.497  -1.257  0.00  0.00    +0.077 C 
BRANCH  11  12
ATOM     12  C   UNL     1       0.630  -2.023  -1.329  0.00  0.00    +0.003 C 
ATOM     13  C   UNL     1       1.183  -2.627  -0.036  0.00  0.00    +0.009 C 
ATOM     14  C   UNL     1      -0.831  -2.442  -1.504  0.00  0.00    +0.009 C 
ENDBRANCH  11  12
BRANCH  11  16
ATOM     15  C   UNL     1      -0.019   1.526   0.010  0.00  0.00    +0.006 C 
ATOM     16  C   UNL     1       0.002  -0.004   0.002  0.00  0.00    +0.019 C 
ENDBRANCH  11  16
ENDBRANCH   5  11
ENDBRANCH   1   8
BRANCH   2  17
ATOM     17  C   UNL     1       7.086   0.046  -0.530  0.00  0.00    +0.134 C 
BRANCH  17  18
ATOM     18  C   UNL     1       8.441   0.702  -0.589  0.00  0.00    -0.014 A 
ATOM     19  C   UNL     1       9.343   0.585  -1.576  0.00  0.00    +0.087 A 
ATOM     20  N   UNL     1      10.456   1.323  -1.282  0.00  0.00    -0.360 N 
ATOM     21  H   UNL     1      11.242   1.395  -1.845  0.00  0.00    +0.165 HD
ATOM     22  C   UNL     1      10.294   1.949  -0.066  0.00  0.00    +0.047 A 
ATOM     23  C   UNL     1       9.023   1.592   0.419  0.00  0.00    +0.003 A 
ATOM     24  C   UNL     1       8.580   2.090   1.645  0.00  0.00    +0.010 A 
ATOM     25  C   UNL     1       9.383   2.926   2.368  0.00  0.00    +0.001 A 
ATOM     26  C   UNL     1      10.637   3.285   1.893  0.00  0.00    +0.002 A 
ATOM     27  C   UNL     1      11.098   2.797   0.689  0.00  0.00    +0.026 A 
ENDBRANCH  17  18
ENDBRANCH   2  17
TORSDOF 6
