REMARK  Name = ZINC39691321
REMARK  9 active torsions:
REMARK  status: ('A' for Active; 'I' for Inactive)
REMARK    1  A    between atoms: C_4  and  C_7
REMARK    2  A    between atoms: C_7  and  C_8
REMARK    3  A    between atoms: C_8  and  C_9
REMARK    4  A    between atoms: C_13  and  C_22
REMARK    5  A    between atoms: N_24  and  C_25
REMARK    6  A    between atoms: C_25  and  C_26
REMARK    7  A    between atoms: C_26  and  N_27
REMARK    8  A    between atoms: C_28  and  C_30
REMARK    9  A    between atoms: C_30  and  C_31
REMARK                            x       y       z     vdW  Elec       q    Type
REMARK                         _______ _______ _______ _____ _____    ______ ____
ROOT
ATOM      1  C   UNL     1       5.312  -1.472   1.514  0.00  0.00    +0.216 C 
ATOM      2  O   UNL     1       5.770  -1.690   0.412  0.00  0.00    -0.276 OA
ATOM      3  N   UNL     1       5.973  -1.887   2.613  0.00  0.00    -0.300 N 
ATOM      4  C   UNL     1       5.573  -1.722   4.030  0.00  0.00    +0.121 C 
ATOM      5  C   UNL     1       5.966  -3.055   4.705  0.00  0.00    +0.100 C 
ATOM      6  C   UNL     1       7.078  -3.632   3.813  0.00  0.00    -0.004 C 
ATOM      7  C   UNL     1       7.262  -2.617   2.677  0.00  0.00    +0.115 C 
ATOM      8  C   UNL     1       6.651  -4.981   3.243  0.00  0.00    -0.010 C 
ATOM      9  C   UNL     1       7.795  -5.562   2.407  0.00  0.00    -0.082 C 
ATOM     10  N   UNL     1       8.988  -5.719   3.248  0.00  0.00    +0.379 N 
ATOM     11  C   UNL     1       9.446  -4.406   3.717  0.00  0.00    -0.082 C 
ATOM     12  C   UNL     1       8.372  -3.776   4.609  0.00  0.00    -0.010 C 
ATOM     13  H   UNL     1       8.763  -6.299   4.043  0.00  0.00    -0.086 HD
ATOM     14  H   UNL     1       9.721  -6.158   2.711  0.00  0.00    -0.086 HD
ENDROOT
BRANCH   5  15
ATOM     15  C   UNL     1       4.786  -3.990   4.748  0.00  0.00    +0.218 C 
ATOM     16  O   UNL     1       3.937  -3.935   3.883  0.00  0.00    -0.275 OA
ATOM     17  N   UNL     1       4.672  -4.887   5.747  0.00  0.00    -0.314 N 
ATOM     18  H   UNL     1       5.351  -4.931   6.439  0.00  0.00    +0.149 HD
BRANCH  17  19
ATOM     19  C   UNL     1       3.525  -5.797   5.788  0.00  0.00    +0.123 C 
BRANCH  19  20
ATOM     20  C   UNL     1       3.638  -6.705   7.014  0.00  0.00    +0.123 C 
BRANCH  20  21
ATOM     21  N   UNL     1       2.490  -7.615   7.055  0.00  0.00    -0.314 N 
ATOM     22  C   UNL     1       2.377  -8.512   8.055  0.00  0.00    +0.217 C 
ATOM     23  O   UNL     1       3.225  -8.566   8.920  0.00  0.00    -0.275 OA
ATOM     24  H   UNL     1       1.811  -7.571   6.364  0.00  0.00    +0.149 HD
BRANCH  22  25
ATOM     25  C   UNL     1       1.196  -9.447   8.097  0.00  0.00    +0.131 C 
BRANCH  25  26
ATOM     26  C   UNL     1       1.307 -10.342   9.305  0.00  0.00    -0.031 A 
ATOM     27  C   UNL     1       1.872 -11.575   9.192  0.00  0.00    +0.005 A 
ATOM     28  C   UNL     1       1.984 -12.417  10.297  0.00  0.00    +0.001 A 
ATOM     29  C   UNL     1       1.531 -12.030  11.521  0.00  0.00    +0.008 A 
ATOM     30  C   UNL     1       0.941 -10.764  11.676  0.00  0.00    -0.018 A 
ATOM     31  C   UNL     1       0.833  -9.906  10.553  0.00  0.00    -0.014 A 
ATOM     32  C   UNL     1       0.249  -8.637  10.710  0.00  0.00    +0.009 A 
ATOM     33  C   UNL     1      -0.199  -8.248  11.934  0.00  0.00    +0.001 A 
ATOM     34  C   UNL     1      -0.087  -9.090  13.040  0.00  0.00    +0.001 A 
ATOM     35  C   UNL     1       0.461 -10.330  12.924  0.00  0.00    +0.008 A 
ENDBRANCH  25  26
ENDBRANCH  22  25
ENDBRANCH  20  21
ENDBRANCH  19  20
ENDBRANCH  17  19
ENDBRANCH   5  15
BRANCH   1  36
ATOM     36  C   UNL     1       4.003  -0.739   1.654  0.00  0.00    +0.100 C 
BRANCH  36  37
ATOM     37  C   UNL     1       3.466  -0.384   0.266  0.00  0.00    +0.044 C 
BRANCH  37  41
ATOM     38  C   UNL     1      -0.244   1.695   0.661  0.00  0.00    +0.000 A 
ATOM     39  C   UNL     1       0.944   2.401   0.637  0.00  0.00    +0.000 A 
ATOM     40  C   UNL     1       2.145   1.728   0.509  0.00  0.00    +0.003 A 
ATOM     41  C   UNL     1       2.157   0.350   0.406  0.00  0.00    -0.047 A 
ATOM     42  C   UNL     1       0.969  -0.356   0.431  0.00  0.00    +0.003 A 
ATOM     43  C   UNL     1      -0.232   0.317   0.557  0.00  0.00    +0.000 A 
ENDBRANCH  37  41
ENDBRANCH  36  37
ENDBRANCH   1  36
TORSDOF 9
