REMARK  Name = ZINC57948596
REMARK  5 active torsions:
REMARK  status: ('A' for Active; 'I' for Inactive)
REMARK    1  A    between atoms: C_1  and  C_2
REMARK    2  A    between atoms: C_5  and  C_10
REMARK    3  A    between atoms: N_8  and  C_9
REMARK    4  A    between atoms: C_15  and  C_20
REMARK    5  A    between atoms: C_23  and  C_25
REMARK                            x       y       z     vdW  Elec       q    Type
REMARK                         _______ _______ _______ _____ _____    ______ ____
ROOT
ATOM      1  C   UNL     1       0.059  -4.226   0.010  0.00  0.00    +0.148 A 
ATOM      2  N   UNL     1       0.069  -4.860   1.165  0.00  0.00    -0.190 NA
ATOM      3  C   UNL     1       0.086  -6.194   1.248  0.00  0.00    +0.282 A 
ATOM      4  O   UNL     1       0.094  -6.743   2.339  0.00  0.00    -0.265 OA
ATOM      5  C   UNL     1       0.096  -6.999   0.006  0.00  0.00    +0.080 A 
ATOM      6  C   UNL     1       0.115  -8.449  -0.159  0.00  0.00    +0.010 A 
ATOM      7  C   UNL     1       0.121  -8.960  -1.416  0.00  0.00    +0.057 A 
ATOM      8  S   UNL     1       0.101  -7.507  -2.449  0.00  0.00    -0.078 S 
ATOM      9  C   UNL     1       0.086  -6.266  -1.183  0.00  0.00    +0.092 A 
ATOM     10  N   UNL     1       0.062  -4.906  -1.174  0.00  0.00    -0.333 N 
ATOM     11  H   UNL     1       0.051  -4.418  -2.012  0.00  0.00    +0.168 HD
ENDROOT
BRANCH   1  16
ATOM     12  C   UNL     1      -0.018   1.503   0.010  0.00  0.00    +0.063 C 
ATOM     13  C   UNL     1       0.002  -0.004   0.002  0.00  0.00    +0.019 A 
ATOM     14  C   UNL     1       0.005  -0.663  -1.184  0.00  0.00    +0.022 A 
ATOM     15  C   UNL     1       0.024  -2.058  -1.210  0.00  0.00    +0.018 A 
ATOM     16  C   UNL     1       0.040  -2.755  -0.004  0.00  0.00    +0.082 A 
ATOM     17  C   UNL     1       0.036  -2.021   1.210  0.00  0.00    +0.262 A 
ATOM     18  O   UNL     1       0.050  -2.608   2.279  0.00  0.00    -0.267 OA
ATOM     19  N   UNL     1       0.022  -0.675   1.179  0.00  0.00    -0.315 N 
ATOM     20  C   UNL     1       0.024   0.075   2.437  0.00  0.00    +0.152 C 
ENDBRANCH   1  16
BRANCH   6  21
ATOM     21  C   UNL     1       0.128  -9.342   1.018  0.00  0.00    +0.021 A 
ATOM     22  C   UNL     1      -0.668 -10.421   1.291  0.00  0.00    +0.016 A 
ATOM     23  C   UNL     1      -0.469 -11.111   2.469  0.00  0.00    +0.011 A 
ATOM     24  C   UNL     1       0.507 -10.701   3.318  0.00  0.00    -0.013 A 
ATOM     25  S   UNL     1       1.192  -9.298   2.452  0.00  0.00    -0.093 S 
ATOM     26  C   UNL     1       0.912 -11.283   4.647  0.00  0.00    +0.051 C 
ENDBRANCH   6  21
TORSDOF 2
