REMARK  Name = ZINC35990900
REMARK  8 active torsions:
REMARK  status: ('A' for Active; 'I' for Inactive)
REMARK    1  A    between atoms: C_1  and  C_2
REMARK    2  A    between atoms: C_2  and  O_3
REMARK    3  A    between atoms: O_3  and  C_4
REMARK    4  A    between atoms: C_4  and  C_6
REMARK    5  A    between atoms: C_7  and  C_22
REMARK    6  A    between atoms: N_8  and  C_21
REMARK    7  A    between atoms: C_12  and  C_14
REMARK    8  A    between atoms: C_22  and  N_23
REMARK                            x       y       z     vdW  Elec       q    Type
REMARK                         _______ _______ _______ _____ _____    ______ ____
ROOT
ATOM      1  C   UNL     1      -2.387  -2.553   0.670  0.00  0.00    +0.080 C 
ATOM      2  C   UNL     1      -2.882  -3.718   0.200  0.00  0.00    +0.041 C 
ATOM      3  N   UNL     1      -4.182  -3.818  -0.208  0.00  0.00    -0.260 N 
ATOM      4  C   UNL     1      -5.050  -2.799  -0.178  0.00  0.00    +0.307 C 
ATOM      5  O   UNL     1      -6.188  -2.985  -0.562  0.00  0.00    -0.252 OA
ATOM      6  N   UNL     1      -4.704  -1.575   0.266  0.00  0.00    -0.288 N 
ATOM      7  C   UNL     1      -3.324  -1.363   0.735  0.00  0.00    +0.144 C 
ATOM      8  C   UNL     1      -4.652  -5.112  -0.707  0.00  0.00    +0.139 C 
ATOM      9  H   UNL     1      -5.349  -0.850   0.279  0.00  0.00    +0.151 HD
ENDROOT
BRANCH   7  10
ATOM     10  C   UNL     1      -2.723  -0.254  -0.088  0.00  0.00    -0.022 A 
ATOM     11  C   UNL     1      -2.861  -0.261  -1.464  0.00  0.00    +0.007 A 
ATOM     12  C   UNL     1      -2.310   0.756  -2.220  0.00  0.00    +0.020 A 
ATOM     13  C   UNL     1      -1.620   1.783  -1.599  0.00  0.00    +0.041 A 
ATOM     14  C   UNL     1      -1.482   1.790  -0.222  0.00  0.00    +0.020 A 
ATOM     15  C   UNL     1      -2.039   0.775   0.533  0.00  0.00    +0.007 A 
ATOM     16 CL   UNL     1      -0.927   3.061  -2.547  0.00  0.00    -0.084 Cl
ENDBRANCH   7  10
BRANCH   1  17
ATOM     17  C   UNL     1      -1.042  -2.448   1.094  0.00  0.00    +0.339 C 
ATOM     18  O   UNL     1      -0.340  -3.441   1.143  0.00  0.00    -0.245 OA
BRANCH  17  19
ATOM     19  O   UNL     1      -0.536  -1.247   1.443  0.00  0.00    -0.462 OA
BRANCH  19  21
ATOM     20  C   UNL     1       1.222   0.222   2.214  0.00  0.00    +0.048 C 
ATOM     21  C   UNL     1       0.830  -1.214   1.861  0.00  0.00    +0.229 C 
ENDBRANCH  19  21
ENDBRANCH  17  19
ENDBRANCH   1  17
BRANCH   2  22
ATOM     22  C   UNL     1      -1.986  -4.927   0.124  0.00  0.00    +0.136 C 
BRANCH  22  23
ATOM     23  N   UNL     1      -1.901  -5.558   1.448  0.00  0.00    -0.300 NA
ATOM     24  C   UNL     1      -3.160  -6.237   1.790  0.00  0.00    +0.066 C 
ATOM     25  C   UNL     1      -3.051  -6.828   3.197  0.00  0.00    -0.067 C 
ATOM     26  N   UNL     1      -1.933  -7.780   3.243  0.00  0.00    +0.381 N 
ATOM     27  C   UNL     1      -0.680  -7.082   2.924  0.00  0.00    -0.067 C 
ATOM     28  C   UNL     1      -0.769  -6.493   1.514  0.00  0.00    +0.066 C 
ATOM     29  H   UNL     1      -1.869  -8.179   4.168  0.00  0.00    -0.086 HD
ATOM     30  H   UNL     1      -2.090  -8.515   2.570  0.00  0.00    -0.086 HD
ENDBRANCH  22  23
ENDBRANCH   2  22
TORSDOF 6
