REMARK  Name = ZINC64337960
REMARK  11 active torsions:
REMARK  status: ('A' for Active; 'I' for Inactive)
REMARK    1  A    between atoms: C_1  and  C_2
REMARK    2  A    between atoms: C_2  and  O_3
REMARK    3  A    between atoms: O_3  and  C_4
REMARK    4  A    between atoms: C_7  and  N_10
REMARK    5  A    between atoms: C_11  and  C_27
REMARK    6  A    between atoms: C_14  and  S_15
REMARK    7  A    between atoms: S_15  and  C_16
REMARK    8  A    between atoms: C_16  and  C_18
REMARK    9  A    between atoms: C_16  and  C_21
REMARK   10  A    between atoms: C_18  and  C_19
REMARK   11  A    between atoms: C_18  and  C_20
REMARK                            x       y       z     vdW  Elec       q    Type
REMARK                         _______ _______ _______ _____ _____    ______ ____
ROOT
ATOM      1  N   UNL     1       1.156  -6.011  -1.942  0.00  0.00    -0.270 N 
ATOM      2  C   UNL     1       2.290  -6.800  -1.833  0.00  0.00    +0.168 A 
ATOM      3  N   UNL     1       1.891  -8.062  -1.915  0.00  0.00    -0.128 NA
ATOM      4  N   UNL     1       0.615  -8.106  -2.064  0.00  0.00    -0.122 NA
ATOM      5  C   UNL     1       0.115  -6.879  -2.081  0.00  0.00    +0.197 A 
ENDROOT
BRANCH   2   6
ATOM      6  C   UNL     1       3.608  -6.350  -1.667  0.00  0.00    +0.025 C 
ATOM      7  C   UNL     1       4.759  -7.131  -1.562  0.00  0.00    +0.006 A 
ATOM      8  C   UNL     1       4.970  -8.526  -1.585  0.00  0.00    +0.010 A 
ATOM      9  C   UNL     1       6.228  -9.020  -1.458  0.00  0.00    +0.001 A 
ATOM     10  C   UNL     1       7.332  -8.178  -1.304  0.00  0.00    +0.002 A 
ATOM     11  C   UNL     1       7.203  -6.828  -1.273  0.00  0.00    +0.026 A 
ATOM     12  C   UNL     1       5.919  -6.239  -1.400  0.00  0.00    +0.043 A 
ATOM     13  N   UNL     1       5.535  -4.978  -1.402  0.00  0.00    -0.380 N 
ATOM     14  C   UNL     1       4.080  -4.916  -1.573  0.00  0.00    +0.152 C 
ATOM     15  H   UNL     1       6.122  -4.212  -1.309  0.00  0.00    +0.160 HD
ENDBRANCH   2   6
BRANCH   1  19
ATOM     16  C   UNL     1       0.969  -1.846  -1.844  0.00  0.00    +0.121 A 
ATOM     17  C   UNL     1       0.375  -2.591  -0.835  0.00  0.00    +0.047 A 
ATOM     18  C   UNL     1       0.437  -3.970  -0.867  0.00  0.00    +0.030 A 
ATOM     19  C   UNL     1       1.093  -4.611  -1.909  0.00  0.00    +0.051 A 
ATOM     20  C   UNL     1       1.686  -3.865  -2.919  0.00  0.00    +0.030 A 
ATOM     21  C   UNL     1       1.620  -2.486  -2.888  0.00  0.00    +0.047 A 
BRANCH  16  22
ATOM     22  O   UNL     1       0.907  -0.488  -1.812  0.00  0.00    -0.492 OA
BRANCH  22  24
ATOM     23  C   UNL     1       0.257   1.628  -0.843  0.00  0.00    +0.048 C 
ATOM     24  C   UNL     1       0.222   0.105  -0.707  0.00  0.00    +0.225 C 
ENDBRANCH  22  24
ENDBRANCH  16  22
ENDBRANCH   1  19
BRANCH   5  25
ATOM     25  S   UNL     1      -1.585  -6.449  -2.257  0.00  0.00    -0.073 S 
BRANCH  25  26
ATOM     26  C   UNL     1      -2.414  -8.039  -2.531  0.00  0.00    +0.143 C 
BRANCH  26  27
ATOM     27  C   UNL     1      -2.321  -8.876  -1.282  0.00  0.00    +0.234 C 
ATOM     28  O   UNL     1      -2.183  -8.342  -0.203  0.00  0.00    -0.274 OA
ATOM     29  N   UNL     1      -2.391 -10.220  -1.364  0.00  0.00    -0.239 N 
ATOM     30  C   UNL     1      -2.308 -10.969  -0.247  0.00  0.00    +0.303 C 
ATOM     31  O   UNL     1      -2.170 -10.432   0.835  0.00  0.00    -0.253 OA
ATOM     32  N   UNL     1      -2.378 -12.312  -0.329  0.00  0.00    -0.313 N 
ATOM     33  H   UNL     1      -2.502 -10.648  -2.228  0.00  0.00    +0.159 HD
ATOM     34  H   UNL     1      -2.489 -12.740  -1.193  0.00  0.00    +0.146 HD
ATOM     35  H   UNL     1      -2.319 -12.851   0.475  0.00  0.00    +0.146 HD
ENDBRANCH  26  27
BRANCH  26  36
ATOM     36  C   UNL     1      -3.885  -7.795  -2.874  0.00  0.00    +0.005 C 
ATOM     37  C   UNL     1      -3.979  -6.950  -4.146  0.00  0.00    +0.009 C 
ATOM     38  C   UNL     1      -4.586  -9.136  -3.099  0.00  0.00    +0.009 C 
ENDBRANCH  26  36
ENDBRANCH  25  26
ENDBRANCH   5  25
TORSDOF 8
