REMARK  Name = ZINC38702263
REMARK  11 active torsions:
REMARK  status: ('A' for Active; 'I' for Inactive)
REMARK    1  A    between atoms: C_1  and  C_2
REMARK    2  A    between atoms: C_2  and  C_3
REMARK    3  A    between atoms: C_3  and  C_4
REMARK    4  A    between atoms: C_4  and  O_5
REMARK    5  A    between atoms: O_5  and  C_6
REMARK    6  A    between atoms: C_10  and  C_12
REMARK    7  A    between atoms: C_15  and  C_31
REMARK    8  A    between atoms: N_22  and  C_23
REMARK    9  A    between atoms: C_33  and  C_39
REMARK   10  A    between atoms: C_34  and  C_38
REMARK   11  A    between atoms: C_36  and  O_37
REMARK                            x       y       z     vdW  Elec       q    Type
REMARK                         _______ _______ _______ _____ _____    ______ ____
ROOT
ATOM      1  C   UNL     1      -5.503  -6.461  -0.054  0.00  0.00    +0.142 C 
ATOM      2  C   UNL     1      -6.040  -6.805  -1.416  0.00  0.00    +0.035 A 
ATOM      3  C   UNL     1      -6.395  -6.355  -2.692  0.00  0.00    +0.102 A 
ATOM      4  N   UNL     1      -6.830  -7.398  -3.372  0.00  0.00    -0.173 NA
ATOM      5  N   UNL     1      -6.785  -8.461  -2.651  0.00  0.00    -0.272 N 
ATOM      6  H   UNL     1      -7.056  -9.345  -2.946  0.00  0.00    +0.189 HD
ATOM      7  C   UNL     1      -6.299  -8.163  -1.411  0.00  0.00    +0.126 A 
ATOM      8  C   UNL     1      -5.946  -8.699  -0.091  0.00  0.00    +0.266 C 
ATOM      9  O   UNL     1      -6.057  -9.866   0.236  0.00  0.00    -0.268 OA
ATOM     10  N   UNL     1      -5.483  -7.718   0.706  0.00  0.00    -0.280 N 
ENDROOT
BRANCH   3  11
ATOM     11  C   UNL     1      -6.300  -4.960  -3.189  0.00  0.00    +0.044 A 
ATOM     12  C   UNL     1      -6.734  -3.903  -2.394  0.00  0.00    +0.017 A 
ATOM     13  C   UNL     1      -6.644  -2.607  -2.861  0.00  0.00    -0.047 A 
ATOM     14  C   UNL     1      -6.122  -2.354  -4.117  0.00  0.00    -0.044 A 
ATOM     15  C   UNL     1      -5.688  -3.396  -4.915  0.00  0.00    +0.049 A 
ATOM     16  C   UNL     1      -5.768  -4.701  -4.456  0.00  0.00    +0.126 A 
ATOM     17  C   UNL     1      -6.027  -0.936  -4.618  0.00  0.00    +0.044 C 
ATOM     18  C   UNL     1      -7.115  -1.464  -1.999  0.00  0.00    +0.044 C 
BRANCH  16  19
ATOM     19  O   UNL     1      -5.336  -5.726  -5.236  0.00  0.00    -0.506 OA
ATOM     20  H   UNL     1      -5.994  -6.042  -5.870  0.00  0.00    +0.292 HD
ENDBRANCH  16  19
ENDBRANCH   3  11
BRANCH  10  21
ATOM     21  C   UNL     1      -5.035  -7.876   2.092  0.00  0.00    +0.100 C 
ATOM     22  C   UNL     1      -3.880  -8.890   2.152  0.00  0.00    +0.047 C 
ATOM     23  C   UNL     1      -3.616  -9.303   3.620  0.00  0.00    +0.168 C 
ATOM     24  S   UNL     1      -5.267  -9.088   4.403  0.00  0.00    -0.029 S 
ATOM     25  O   UNL     1      -5.788 -10.366   4.740  0.00  0.00    -0.174 OA
ATOM     26  O   UNL     1      -5.177  -8.083   5.403  0.00  0.00    -0.174 OA
ATOM     27  C   UNL     1      -6.203  -8.421   2.963  0.00  0.00    +0.188 C 
ENDBRANCH  10  21
BRANCH   1  32
ATOM     28  C   UNL     1      -2.595  -4.050  -0.043  0.00  0.00    +0.121 A 
ATOM     29  C   UNL     1      -1.543  -4.886  -0.391  0.00  0.00    +0.045 A 
ATOM     30  C   UNL     1      -1.778  -6.226  -0.627  0.00  0.00    +0.004 A 
ATOM     31  C   UNL     1      -3.059  -6.735  -0.518  0.00  0.00    +0.006 A 
ATOM     32  C   UNL     1      -4.108  -5.904  -0.172  0.00  0.00    -0.019 A 
ATOM     33  C   UNL     1      -3.878  -4.563   0.072  0.00  0.00    +0.051 A 
BRANCH  28  34
ATOM     34  O   UNL     1      -2.366  -2.730   0.191  0.00  0.00    -0.492 OA
BRANCH  34  35
ATOM     35  C   UNL     1      -1.020  -2.271   0.055  0.00  0.00    +0.229 C 
BRANCH  35  36
ATOM     36  C   UNL     1      -0.960  -0.772   0.355  0.00  0.00    +0.041 C 
BRANCH  36  38
ATOM     37  C   UNL     1       0.542   1.219   0.509  0.00  0.00    +0.004 C 
ATOM     38  C   UNL     1       0.482  -0.280   0.209  0.00  0.00    -0.000 C 
ENDBRANCH  36  38
ENDBRANCH  35  36
ENDBRANCH  34  35
ENDBRANCH  28  34
ENDBRANCH   1  32
TORSDOF 8
