REMARK  Name = ZINC18935301
REMARK  9 active torsions:
REMARK  status: ('A' for Active; 'I' for Inactive)
REMARK    1  A    between atoms: C_1  and  N_2
REMARK    2  A    between atoms: C_5  and  C_18
REMARK    3  A    between atoms: C_6  and  N_17
REMARK    4  A    between atoms: N_7  and  C_10
REMARK    5  A    between atoms: C_10  and  C_11
REMARK    6  A    between atoms: C_18  and  C_20
REMARK    7  A    between atoms: C_20  and  N_60
REMARK    8  A    between atoms: C_21  and  N_60
REMARK    9  A    between atoms: C_22  and  N_60
REMARK                            x       y       z     vdW  Elec       q    Type
REMARK                         _______ _______ _______ _____ _____    ______ ____
ROOT
ATOM      1  C   UNL     1      -1.488   1.705  -0.304  0.00  0.00    +0.157 C 
ATOM      2  N   UNL     1      -0.157   1.110  -0.152  0.00  0.00    -0.263 N 
ATOM      3  C   UNL     1       0.937   1.893  -0.252  0.00  0.00    +0.269 A 
ATOM      4  O   UNL     1       0.830   3.087  -0.462  0.00  0.00    -0.267 OA
ATOM      5  C   UNL     1       2.260   1.273  -0.103  0.00  0.00    +0.118 A 
ATOM      6  C   UNL     1       2.315  -0.111   0.137  0.00  0.00    +0.116 A 
ATOM      7  N   UNL     1       1.146  -0.813   0.220  0.00  0.00    -0.277 N 
ATOM      8  C   UNL     1      -0.043  -0.208   0.078  0.00  0.00    +0.333 A 
ATOM      9  O   UNL     1      -1.054  -0.877   0.161  0.00  0.00    -0.246 OA
ENDROOT
BRANCH   6  10
ATOM     10  N   UNL     1       3.512  -0.741   0.282  0.00  0.00    -0.344 N 
ATOM     11  H   UNL     1       4.302  -0.389  -0.157  0.00  0.00    +0.144 HD
ATOM     12  H   UNL     1       3.575  -1.542   0.826  0.00  0.00    +0.144 HD
ENDBRANCH   6  10
BRANCH   5  13
ATOM     13  C   UNL     1       3.439   2.043  -0.198  0.00  0.00    +0.155 C 
ATOM     14  O   UNL     1       4.525   1.500  -0.144  0.00  0.00    -0.294 OA
BRANCH  13  15
ATOM     15  C   UNL     1       3.352   3.538  -0.365  0.00  0.00    +0.003 C 
BRANCH  15  17
ATOM     16  C   UNL     1       5.315   3.843  -1.750  0.00  0.00    -0.095 C 
ATOM     17  N   UNL     1       4.722   4.089  -0.418  0.00  0.00    +0.387 N 
ATOM     18  H   UNL     1       5.297   3.624   0.294  0.00  0.00    -0.081 HD
BRANCH  17  19
ATOM     19  C   UNL     1       4.694   5.540  -0.139  0.00  0.00    -0.037 C 
ATOM     20  C   UNL     1       3.671   6.233  -1.037  0.00  0.00    -0.010 C 
ATOM     21  C   UNL     1       3.517   7.684  -0.564  0.00  0.00    +0.003 C 
ATOM     22  C   UNL     1       2.804   7.677   0.787  0.00  0.00    +0.035 C 
ATOM     23  C   UNL     1       3.482   6.726   1.738  0.00  0.00    -0.046 A 
ATOM     24  C   UNL     1       4.347   5.742   1.313  0.00  0.00    -0.058 A 
ATOM     25  C   UNL     1       4.933   4.893   2.242  0.00  0.00    +0.002 A 
ATOM     26  C   UNL     1       4.659   5.030   3.588  0.00  0.00    +0.000 A 
ATOM     27  C   UNL     1       3.795   6.021   4.015  0.00  0.00    +0.000 A 
ATOM     28  C   UNL     1       3.209   6.864   3.093  0.00  0.00    +0.004 A 
ENDBRANCH  17  19
ENDBRANCH  15  17
ENDBRANCH  13  15
ENDBRANCH   5  13
BRANCH   7  29
ATOM     29  C   UNL     1       1.192  -2.256   0.470  0.00  0.00    +0.163 C 
BRANCH  29  30
ATOM     30  C   UNL     1       1.252  -2.992  -0.844  0.00  0.00    -0.028 A 
ATOM     31  C   UNL     1       0.084  -3.377  -1.474  0.00  0.00    +0.005 A 
ATOM     32  C   UNL     1       0.139  -4.048  -2.682  0.00  0.00    +0.000 A 
ATOM     33  C   UNL     1       1.362  -4.342  -3.254  0.00  0.00    +0.000 A 
ATOM     34  C   UNL     1       2.531  -3.961  -2.621  0.00  0.00    +0.000 A 
ATOM     35  C   UNL     1       2.476  -3.286  -1.416  0.00  0.00    +0.005 A 
ENDBRANCH  29  30
ENDBRANCH   7  29
TORSDOF 7
