REMARK  Name = ZINC36155927
REMARK  12 active torsions:
REMARK  status: ('A' for Active; 'I' for Inactive)
REMARK    1  A    between atoms: C_1  and  C_2
REMARK    2  A    between atoms: C_2  and  C_3
REMARK    3  A    between atoms: C_3  and  C_4
REMARK    4  A    between atoms: C_4  and  C_6
REMARK    5  A    between atoms: C_4  and  O_37
REMARK    6  A    between atoms: C_6  and  N_7
REMARK    7  A    between atoms: N_7  and  C_8
REMARK    8  A    between atoms: N_7  and  C_14
REMARK    9  A    between atoms: C_8  and  C_9
REMARK   10  A    between atoms: C_14  and  C_15
REMARK   11  A    between atoms: N_27  and  C_30
REMARK   12  A    between atoms: C_30  and  C_31
REMARK                            x       y       z     vdW  Elec       q    Type
REMARK                         _______ _______ _______ _____ _____    ______ ____
ROOT
ATOM      1  C   UNL     1      -3.984  -6.116  -0.316  0.00  0.00    +0.094 A 
ATOM      2  N   UNL     1      -5.120  -6.835  -0.505  0.00  0.00    -0.312 N 
ATOM      3  H   UNL     1      -5.965  -6.369  -0.609  0.00  0.00    +0.170 HD
ATOM      4  C   UNL     1      -5.099  -8.180  -0.550  0.00  0.00    +0.260 A 
ATOM      5  O   UNL     1      -6.128  -8.810  -0.720  0.00  0.00    -0.267 OA
ATOM      6  C   UNL     1      -3.846  -8.859  -0.394  0.00  0.00    +0.075 A 
ATOM      7  C   UNL     1      -3.582 -10.295  -0.407  0.00  0.00    -0.020 A 
ATOM      8  C   UNL     1      -2.300 -10.686  -0.236  0.00  0.00    +0.010 A 
ATOM      9  S   UNL     1      -1.383  -9.182  -0.054  0.00  0.00    -0.072 S 
ATOM     10  C   UNL     1      -2.727  -8.031  -0.205  0.00  0.00    +0.116 A 
ATOM     11  N   UNL     1      -2.827  -6.706  -0.177  0.00  0.00    -0.229 NA
ATOM     12  C   UNL     1      -1.792 -12.094  -0.209  0.00  0.00    +0.127 C 
ATOM     13  N   UNL     1      -2.945 -12.998  -0.042  0.00  0.00    -0.293 NA
ATOM     14  C   UNL     1      -4.009 -12.662  -0.998  0.00  0.00    +0.090 C 
ATOM     15  C   UNL     1      -4.676 -11.342  -0.602  0.00  0.00    +0.052 C 
ENDROOT
BRANCH   1  16
ATOM     16  C   UNL     1      -4.058  -4.611  -0.273  0.00  0.00    -0.003 C 
BRANCH  16  17
ATOM     17  N   UNL     1      -2.712  -4.060  -0.068  0.00  0.00    +0.391 N 
ATOM     18  H   UNL     1      -2.300  -4.478   0.753  0.00  0.00    -0.080 HD
BRANCH  17  19
ATOM     19  C   UNL     1      -2.801  -2.606   0.115  0.00  0.00    -0.046 C 
BRANCH  19  20
ATOM     20  C   UNL     1      -3.500  -2.300   1.441  0.00  0.00    +0.098 C 
BRANCH  20  21
ATOM     21  O   UNL     1      -4.875  -2.682   1.354  0.00  0.00    -0.394 OA
ATOM     22  H   UNL     1      -5.367  -2.224   0.659  0.00  0.00    +0.210 HD
ENDBRANCH  20  21
BRANCH  20  23
ATOM     23  C   UNL     1      -3.406  -0.801   1.734  0.00  0.00    +0.029 C 
BRANCH  23  25
ATOM     24  C   UNL     1      -3.900   0.986   3.409  0.00  0.00    +0.004 C 
ATOM     25  C   UNL     1      -3.994  -0.513   3.116  0.00  0.00    -0.001 C 
ENDBRANCH  23  25
ENDBRANCH  20  23
ENDBRANCH  19  20
ENDBRANCH  17  19
BRANCH  17  26
ATOM     26  C   UNL     1      -1.877  -4.357  -1.239  0.00  0.00    -0.002 C 
BRANCH  26  27
ATOM     27  C   UNL     1      -0.460  -3.921  -0.970  0.00  0.00    +0.089 A 
ATOM     28  C   UNL     1       0.530  -4.705  -0.507  0.00  0.00    +0.042 A 
ATOM     29  C   UNL     1       1.682  -3.892  -0.404  0.00  0.00    +0.041 A 
ATOM     30  C   UNL     1       1.327  -2.659  -0.810  0.00  0.00    +0.195 A 
ATOM     31  O   UNL     1       0.030  -2.684  -1.157  0.00  0.00    -0.470 OA
ENDBRANCH  26  27
ENDBRANCH  17  26
ENDBRANCH  16  17
ENDBRANCH   1  16
BRANCH  13  32
ATOM     32  C   UNL     1      -2.538 -14.402  -0.179  0.00  0.00    +0.120 C 
BRANCH  32  33
ATOM     33  C   UNL     1      -1.623 -14.774   0.959  0.00  0.00    -0.033 A 
ATOM     34  C   UNL     1      -0.257 -14.601   0.833  0.00  0.00    +0.005 A 
ATOM     35  C   UNL     1       0.582 -14.941   1.878  0.00  0.00    +0.000 A 
ATOM     36  C   UNL     1       0.055 -15.455   3.048  0.00  0.00    +0.000 A 
ATOM     37  C   UNL     1      -1.310 -15.627   3.175  0.00  0.00    +0.000 A 
ATOM     38  C   UNL     1      -2.150 -15.282   2.132  0.00  0.00    +0.005 A 
ENDBRANCH  32  33
ENDBRANCH  13  32
TORSDOF 11
