REMARK  Name = ZINC13098203
REMARK  7 active torsions:
REMARK  status: ('A' for Active; 'I' for Inactive)
REMARK    1  A    between atoms: C_1  and  C_2
REMARK    2  A    between atoms: C_2  and  C_4
REMARK    3  A    between atoms: C_2  and  O_11
REMARK    4  A    between atoms: N_9  and  C_10
REMARK    5  A    between atoms: O_11  and  C_12
REMARK    6  A    between atoms: C_12  and  C_14
REMARK    7  A    between atoms: C_28  and  C_29
REMARK                            x       y       z     vdW  Elec       q    Type
REMARK                         _______ _______ _______ _____ _____    ______ ____
ROOT
ATOM      1  C   UNL     1      -7.311   0.935   0.727  0.00  0.00    +0.073 A 
ATOM      2  C   UNL     1      -7.293  -0.502   0.450  0.00  0.00    +0.015 A 
ATOM      3  C   UNL     1      -8.451  -1.280   0.541  0.00  0.00    +0.011 A 
ATOM      4  C   UNL     1      -8.390  -2.615   0.271  0.00  0.00    +0.001 A 
ATOM      5  C   UNL     1      -7.186  -3.215  -0.094  0.00  0.00    +0.002 A 
ATOM      6  C   UNL     1      -6.040  -2.487  -0.191  0.00  0.00    +0.028 A 
ATOM      7  C   UNL     1      -6.065  -1.107   0.081  0.00  0.00    +0.072 A 
ATOM      8  N   UNL     1      -4.959  -0.368  -0.003  0.00  0.00    -0.247 NA
ATOM      9  C   UNL     1      -4.948   0.931   0.244  0.00  0.00    +0.072 A 
ATOM     10  C   UNL     1      -6.114   1.628   0.611  0.00  0.00    -0.007 A 
ATOM     11  C   UNL     1      -6.104   3.108   0.876  0.00  0.00    +0.038 C 
ATOM     12  C   UNL     1      -4.705   3.597   1.240  0.00  0.00    +0.009 C 
ATOM     13  C   UNL     1      -3.719   3.177   0.148  0.00  0.00    +0.037 C 
ATOM     14  C   UNL     1      -3.668   1.665   0.130  0.00  0.00    -0.021 C 
ATOM     15  C   UNL     1      -2.499   1.010   0.019  0.00  0.00    +0.013 C 
ENDROOT
BRANCH  15  16
ATOM     16  C   UNL     1      -1.261   1.755  -0.264  0.00  0.00    -0.021 A 
ATOM     17  C   UNL     1      -0.041   1.311   0.255  0.00  0.00    +0.012 A 
ATOM     18  C   UNL     1       1.115   2.014  -0.006  0.00  0.00    +0.050 A 
ATOM     19  C   UNL     1       1.075   3.160  -0.789  0.00  0.00    +0.166 A 
ATOM     20  C   UNL     1      -0.138   3.605  -1.316  0.00  0.00    +0.167 A 
ATOM     21  C   UNL     1      -1.302   2.905  -1.058  0.00  0.00    +0.057 A 
ATOM     22  O   UNL     1       0.091   4.739  -2.041  0.00  0.00    -0.453 OA
ATOM     23  C   UNL     1       1.384   5.211  -1.616  0.00  0.00    +0.466 C 
ATOM     24  O   UNL     1       2.061   4.016  -1.186  0.00  0.00    -0.453 OA
ENDBRANCH  15  16
BRANCH   1  25
ATOM     25  C   UNL     1      -8.559   1.623   1.117  0.00  0.00    +0.341 C 
ATOM     26  O   UNL     1      -9.282   2.099   0.265  0.00  0.00    -0.245 OA
BRANCH  25  27
ATOM     27  O   UNL     1      -8.895   1.723   2.418  0.00  0.00    -0.449 OA
BRANCH  27  29
ATOM     28  C   UNL     1     -11.287   1.406   2.747  0.00  0.00    +0.062 C 
ATOM     29  C   UNL     1     -10.135   2.413   2.727  0.00  0.00    +0.259 C 
BRANCH  29  30
ATOM     30  C   UNL     1     -10.021   3.071   4.078  0.00  0.00    +0.261 C 
ATOM     31  O   UNL     1      -8.995   2.970   4.717  0.00  0.00    -0.271 OA
ATOM     32  N   UNL     1     -11.058   3.773   4.576  0.00  0.00    -0.237 N 
ATOM     33  C   UNL     1     -10.955   4.362   5.784  0.00  0.00    +0.306 C 
ATOM     34  O   UNL     1      -9.927   4.260   6.424  0.00  0.00    -0.252 OA
ATOM     35  N   UNL     1     -11.993   5.064   6.282  0.00  0.00    -0.302 N 
ATOM     36  C   UNL     1     -11.881   5.704   7.595  0.00  0.00    +0.129 C 
ATOM     37  H   UNL     1     -11.878   3.854   4.065  0.00  0.00    +0.159 HD
ATOM     38  H   UNL     1     -12.813   5.145   5.770  0.00  0.00    +0.150 HD
ENDBRANCH  29  30
ENDBRANCH  27  29
ENDBRANCH  25  27
ENDBRANCH   1  25
TORSDOF 5
