REMARK  Name = ZINC04502606
REMARK  9 active torsions:
REMARK  status: ('A' for Active; 'I' for Inactive)
REMARK    1  A    between atoms: C_1  and  C_2
REMARK    2  A    between atoms: C_2  and  C_3
REMARK    3  A    between atoms: C_3  and  C_4
REMARK    4  A    between atoms: C_3  and  C_5
REMARK    5  A    between atoms: C_3  and  C_6
REMARK    6  A    between atoms: C_13  and  N_17
REMARK    7  A    between atoms: C_14  and  C_15
REMARK    8  A    between atoms: C_18  and  C_20
REMARK    9  A    between atoms: C_20  and  N_55
REMARK                            x       y       z     vdW  Elec       q    Type
REMARK                         _______ _______ _______ _____ _____    ______ ____
ROOT
ATOM      1  C   UNL     1       2.415   1.450   0.366  0.00  0.00    -0.000 C 
ATOM      2  C   UNL     1       2.431   0.172  -0.478  0.00  0.00    +0.009 C 
ATOM      3  C   UNL     1       1.319  -0.771  -0.015  0.00  0.00    +0.037 C 
ATOM      4  C   UNL     1       0.002  -0.004   0.002  0.00  0.00    -0.018 A 
ATOM      5  C   UNL     1      -0.016   1.347   0.009  0.00  0.00    -0.004 A 
ATOM      6  S   UNL     1      -1.734   1.776   0.036  0.00  0.00    -0.077 S 
ATOM      7  C   UNL     1      -2.419   0.184   0.028  0.00  0.00    +0.090 A 
ATOM      8  C   UNL     1      -1.304  -0.640   0.012  0.00  0.00    +0.084 A 
ATOM      9  C   UNL     1       1.166   2.267   0.003  0.00  0.00    +0.047 C 
ENDROOT
BRANCH   7  10
ATOM     10  N   UNL     1      -3.759  -0.178   0.040  0.00  0.00    -0.281 N 
ATOM     11  C   UNL     1      -4.714   0.773   0.055  0.00  0.00    +0.201 C 
ATOM     12  O   UNL     1      -4.402   1.945   0.057  0.00  0.00    -0.278 OA
ATOM     13  H   UNL     1      -4.008  -1.115   0.038  0.00  0.00    +0.155 HD
BRANCH  11  14
ATOM     14  C   UNL     1      -6.168   0.380   0.068  0.00  0.00    +0.019 C 
BRANCH  14  20
ATOM     15  C   UNL     1      -6.835   2.329   1.342  0.00  0.00    -0.050 C 
ATOM     16  C   UNL     1      -7.674   3.609   1.290  0.00  0.00    +0.141 C 
ATOM     17  O   UNL     1      -9.040   3.268   1.039  0.00  0.00    -0.383 OA
ATOM     18  C   UNL     1      -9.239   2.547  -0.179  0.00  0.00    +0.141 C 
ATOM     19  C   UNL     1      -8.417   1.256  -0.143  0.00  0.00    -0.050 C 
ATOM     20  N   UNL     1      -6.995   1.606   0.062  0.00  0.00    +0.388 N 
ATOM     21  H   UNL     1      -6.687   2.213  -0.706  0.00  0.00    -0.081 HD
ENDBRANCH  14  20
ENDBRANCH  11  14
ENDBRANCH   7  10
BRANCH   1  22
ATOM     22  C   UNL     1       3.670   2.275   0.072  0.00  0.00    -0.032 C 
ATOM     23  C   UNL     1       4.913   1.453   0.417  0.00  0.00    +0.011 C 
ATOM     24  C   UNL     1       3.700   2.645  -1.413  0.00  0.00    +0.011 C 
BRANCH  22  26
ATOM     25  C   UNL     1       4.906   4.375   0.621  0.00  0.00    +0.004 C 
ATOM     26  C   UNL     1       3.651   3.551   0.916  0.00  0.00    +0.003 C 
ENDBRANCH  22  26
ENDBRANCH   1  22
BRANCH   8  27
ATOM     27  C   UNL     1      -1.435  -2.066   0.006  0.00  0.00    +0.102 C 
ATOM     28  N   UNL     1      -1.539  -3.197   0.002  0.00  0.00    -0.191 NA
ENDBRANCH   8  27
TORSDOF 6
