REMARK  Name = ZINC09437800
REMARK  14 active torsions:
REMARK  status: ('A' for Active; 'I' for Inactive)
REMARK    1  A    between atoms: C_1  and  C_2
REMARK    2  A    between atoms: C_2  and  C_4
REMARK    3  A    between atoms: C_2  and  O_11
REMARK    4  A    between atoms: N_9  and  C_10
REMARK    5  A    between atoms: O_11  and  C_12
REMARK    6  A    between atoms: C_12  and  C_14
REMARK    7  A    between atoms: C_17  and  C_20
REMARK    8  A    between atoms: C_20  and  N_21
REMARK    9  A    between atoms: N_21  and  S_22
REMARK   10  A    between atoms: S_22  and  C_25
REMARK   11  A    between atoms: C_28  and  C_31
REMARK   12  A    between atoms: C_31  and  C_32
REMARK   13  A    between atoms: C_31  and  C_33
REMARK   14  A    between atoms: C_31  and  C_34
REMARK                            x       y       z     vdW  Elec       q    Type
REMARK                         _______ _______ _______ _____ _____    ______ ____
ROOT
ATOM      1  C   UNL     1       0.614  -1.195   3.518  0.00  0.00    +0.059 A 
ATOM      2  C   UNL     1       1.988  -1.436   3.541  0.00  0.00    +0.015 A 
ATOM      3  C   UNL     1       2.587  -1.889   4.698  0.00  0.00    +0.006 A 
ATOM      4  C   UNL     1       1.826  -2.114   5.832  0.00  0.00    -0.032 A 
ATOM      5  C   UNL     1       0.462  -1.882   5.815  0.00  0.00    +0.006 A 
ATOM      6  C   UNL     1      -0.148  -1.424   4.666  0.00  0.00    +0.015 A 
ENDROOT
BRANCH   1   7
ATOM      7  C   UNL     1      -0.034  -0.705   2.284  0.00  0.00    +0.340 C 
ATOM      8  O   UNL     1      -1.231  -0.501   2.265  0.00  0.00    -0.245 OA
BRANCH   7   9
ATOM      9  O   UNL     1       0.704  -0.485   1.178  0.00  0.00    -0.449 OA
BRANCH   9  11
ATOM     10  C   UNL     1      -0.019   1.526   0.010  0.00  0.00    +0.062 C 
ATOM     11  C   UNL     1       0.002  -0.004   0.002  0.00  0.00    +0.259 C 
BRANCH  11  12
ATOM     12  C   UNL     1       0.707  -0.490  -1.238  0.00  0.00    +0.261 C 
ATOM     13  O   UNL     1       1.753  -1.097  -1.142  0.00  0.00    -0.271 OA
ATOM     14  N   UNL     1       0.176  -0.250  -2.453  0.00  0.00    -0.237 N 
ATOM     15  C   UNL     1       0.807  -0.685  -3.562  0.00  0.00    +0.306 C 
ATOM     16  O   UNL     1       1.855  -1.293  -3.466  0.00  0.00    -0.252 OA
ATOM     17  N   UNL     1       0.276  -0.445  -4.777  0.00  0.00    -0.302 N 
ATOM     18  C   UNL     1       0.962  -0.917  -5.983  0.00  0.00    +0.129 C 
ATOM     19  H   UNL     1      -0.660   0.235  -2.530  0.00  0.00    +0.159 HD
ATOM     20  H   UNL     1      -0.560   0.041  -4.854  0.00  0.00    +0.150 HD
ENDBRANCH  11  12
ENDBRANCH   9  11
ENDBRANCH   7   9
ENDBRANCH   1   7
BRANCH   4  21
ATOM     21  C   UNL     1       2.486  -2.615   7.091  0.00  0.00    +0.141 C 
BRANCH  21  22
ATOM     22  N   UNL     1       2.482  -4.080   7.096  0.00  0.00    -0.186 NA
ATOM     23  H   UNL     1       1.911  -4.565   6.480  0.00  0.00    +0.148 HD
BRANCH  22  24
ATOM     24  S   UNL     1       3.454  -4.907   8.151  0.00  0.00    +0.059 S 
ATOM     25  O   UNL     1       3.207  -6.289   7.932  0.00  0.00    -0.153 OA
ATOM     26  O   UNL     1       4.751  -4.337   8.041  0.00  0.00    -0.153 OA
BRANCH  24  27
ATOM     27  C   UNL     1       2.881  -4.545   9.778  0.00  0.00    +0.105 A 
ATOM     28  C   UNL     1       3.403  -3.468  10.471  0.00  0.00    +0.029 A 
ATOM     29  C   UNL     1       2.951  -3.182  11.745  0.00  0.00    +0.006 A 
ATOM     30  C   UNL     1       1.984  -3.978  12.331  0.00  0.00    -0.042 A 
ATOM     31  C   UNL     1       1.466  -5.057  11.640  0.00  0.00    +0.006 A 
ATOM     32  C   UNL     1       1.915  -5.341  10.364  0.00  0.00    +0.029 A 
BRANCH  30  33
ATOM     33  C   UNL     1       1.494  -3.669  13.722  0.00  0.00    -0.013 C 
ATOM     34  C   UNL     1       1.773  -4.862  14.638  0.00  0.00    +0.015 C 
ATOM     35  C   UNL     1       2.223  -2.434  14.257  0.00  0.00    +0.015 C 
ATOM     36  C   UNL     1      -0.011  -3.395  13.684  0.00  0.00    +0.015 C 
ENDBRANCH  30  33
ENDBRANCH  24  27
ENDBRANCH  22  24
ENDBRANCH  21  22
ENDBRANCH   4  21
TORSDOF 9
