REMARK  Name = ZINC22371651
REMARK  12 active torsions:
REMARK  status: ('A' for Active; 'I' for Inactive)
REMARK    1  A    between atoms: C_1  and  C_2
REMARK    2  A    between atoms: C_2  and  C_3
REMARK    3  A    between atoms: N_9  and  C_10
REMARK    4  A    between atoms: C_10  and  C_11
REMARK    5  A    between atoms: C_11  and  C_12
REMARK    6  A    between atoms: C_12  and  N_13
REMARK    7  A    between atoms: C_14  and  C_16
REMARK    8  A    between atoms: C_16  and  N_17
REMARK    9  A    between atoms: N_17  and  C_18
REMARK   10  A    between atoms: N_17  and  S_25
REMARK   11  A    between atoms: C_21  and  C_24
REMARK   12  A    between atoms: S_25  and  C_28
REMARK                            x       y       z     vdW  Elec       q    Type
REMARK                         _______ _______ _______ _____ _____    ______ ____
ROOT
ATOM      1  N   UNL     1       0.248  -0.060   0.517  0.00  0.00    -0.194 N 
ENDROOT
BRANCH   1   2
ATOM      2  C   UNL     1      -0.842  -0.924   0.392  0.00  0.00    +0.052 A 
ATOM      3  C   UNL     1      -2.136  -0.433   0.499  0.00  0.00    +0.025 A 
ATOM      4  C   UNL     1      -3.212  -1.290   0.370  0.00  0.00    +0.005 A 
ATOM      5  C   UNL     1      -3.000  -2.638   0.145  0.00  0.00    -0.050 A 
ATOM      6  C   UNL     1      -1.712  -3.132   0.043  0.00  0.00    +0.005 A 
ATOM      7  C   UNL     1      -0.633  -2.279   0.166  0.00  0.00    +0.025 A 
ATOM      8  C   UNL     1      -4.176  -3.571   0.011  0.00  0.00    +0.044 C 
ENDBRANCH   1   2
BRANCH   1   9
ATOM      9  S   UNL     1       0.265   1.376  -0.309  0.00  0.00    +0.075 S 
ATOM     10  O   UNL     1       1.610   1.599  -0.708  0.00  0.00    -0.150 OA
ATOM     11  O   UNL     1      -0.807   1.321  -1.240  0.00  0.00    -0.150 OA
BRANCH   9  12
ATOM     12  C   UNL     1      -0.135   2.646   0.845  0.00  0.00    +0.109 A 
ATOM     13  C   UNL     1      -1.430   3.121   0.928  0.00  0.00    +0.030 A 
ATOM     14  C   UNL     1      -1.746   4.113   1.838  0.00  0.00    +0.022 A 
ATOM     15  C   UNL     1      -0.762   4.638   2.657  0.00  0.00    +0.041 A 
ATOM     16  C   UNL     1       0.535   4.166   2.569  0.00  0.00    +0.022 A 
ATOM     17  C   UNL     1       0.848   3.170   1.664  0.00  0.00    +0.030 A 
ATOM     18 CL   UNL     1      -1.156   5.889   3.795  0.00  0.00    -0.084 Cl
ENDBRANCH   9  12
ENDBRANCH   1   9
BRANCH   1  19
ATOM     19  C   UNL     1       1.376  -0.422   1.378  0.00  0.00    +0.227 C 
BRANCH  19  21
ATOM     20  N   UNL     1       1.976  -0.252   3.772  0.00  0.00    -0.314 N 
ATOM     21  C   UNL     1       1.075  -0.016   2.798  0.00  0.00    +0.232 C 
ATOM     22  O   UNL     1       0.022   0.524   3.064  0.00  0.00    -0.274 OA
ATOM     23  H   UNL     1       2.931  -0.741   3.531  0.00  0.00    +0.149 HD
BRANCH  20  24
ATOM     24  C   UNL     1       1.683   0.143   5.152  0.00  0.00    +0.102 C 
BRANCH  24  25
ATOM     25  C   UNL     1       2.862  -0.235   6.052  0.00  0.00    +0.000 C 
BRANCH  25  26
ATOM     26  C   UNL     1       2.556   0.178   7.493  0.00  0.00    -0.077 C 
BRANCH  26  32
ATOM     27  C   UNL     1       3.583   0.472   9.665  0.00  0.00    -0.069 C 
ATOM     28  C   UNL     1       4.845   0.188  10.482  0.00  0.00    -0.015 C 
ATOM     29  C   UNL     1       5.002  -1.324  10.662  0.00  0.00    -0.003 C 
ATOM     30  C   UNL     1       5.059  -1.991   9.285  0.00  0.00    -0.019 C 
ATOM     31  C   UNL     1       3.791  -1.644   8.502  0.00  0.00    -0.078 C 
ATOM     32  N   UNL     1       3.687  -0.186   8.357  0.00  0.00    +0.382 N 
ATOM     33  H   UNL     1       4.610   0.169   7.875  0.00  0.00    -0.081 HD
BRANCH  27  35
ATOM     34  C   UNL     1       4.603   2.504   8.629  0.00  0.00    +0.002 C 
ATOM     35  C   UNL     1       3.433   1.982   9.466  0.00  0.00    -0.019 C 
ENDBRANCH  27  35
ENDBRANCH  26  32
ENDBRANCH  25  26
ENDBRANCH  24  25
ENDBRANCH  20  24
ENDBRANCH  19  21
ENDBRANCH   1  19
TORSDOF 10
