REMARK  Name = ZINC23732938
REMARK  6 active torsions:
REMARK  status: ('A' for Active; 'I' for Inactive)
REMARK    1  A    between atoms: C_1  and  C_2
REMARK    2  A    between atoms: C_2  and  O_3
REMARK    3  A    between atoms: O_3  and  C_4
REMARK    4  A    between atoms: C_4  and  C_6
REMARK    5  A    between atoms: C_7  and  C_21
REMARK    6  A    between atoms: C_11  and  C_13
REMARK                            x       y       z     vdW  Elec       q    Type
REMARK                         _______ _______ _______ _____ _____    ______ ____
ROOT
ATOM      1  C   UNL     1      -1.119   3.872   2.724  0.00  0.00    +0.083 C 
ATOM      2  C   UNL     1      -1.452   5.192   2.691  0.00  0.00    +0.053 C 
ATOM      3  N   UNL     1      -2.404   5.673   3.567  0.00  0.00    -0.287 N 
ATOM      4  C   UNL     1      -2.744   4.928   4.674  0.00  0.00    +0.178 C 
ATOM      5  N   UNL     1      -2.462   3.668   4.755  0.00  0.00    -0.306 N 
ATOM      6  C   UNL     1      -1.787   2.935   3.690  0.00  0.00    +0.142 C 
ATOM      7  N   UNL     1      -3.399   5.538   5.718  0.00  0.00    -0.272 NA
ATOM      8  H   UNL     1      -2.885   6.644   3.378  0.00  0.00    +0.155 HD
ATOM      9  H   UNL     1      -3.677   4.955   6.608  0.00  0.00    +0.189 HD
ATOM     10  H   UNL     1      -2.756   3.148   5.680  0.00  0.00    +0.150 HD
ENDROOT
BRANCH   6  11
ATOM     11  C   UNL     1      -2.794   2.096   2.947  0.00  0.00    -0.022 A 
ATOM     12  C   UNL     1      -4.039   2.616   2.645  0.00  0.00    +0.007 A 
ATOM     13  C   UNL     1      -4.961   1.849   1.959  0.00  0.00    +0.020 A 
ATOM     14  C   UNL     1      -4.643   0.557   1.583  0.00  0.00    +0.041 A 
ATOM     15  C   UNL     1      -3.399   0.034   1.890  0.00  0.00    +0.020 A 
ATOM     16  C   UNL     1      -2.475   0.804   2.571  0.00  0.00    +0.007 A 
ATOM     17 CL   UNL     1      -5.803  -0.410   0.727  0.00  0.00    -0.084 Cl
ENDBRANCH   6  11
BRANCH   2  18
ATOM     18  C   UNL     1      -0.801   6.101   1.725  0.00  0.00    -0.003 A 
ATOM     19  C   UNL     1       0.005   7.146   2.180  0.00  0.00    +0.010 A 
ATOM     20  C   UNL     1       0.615   7.988   1.273  0.00  0.00    +0.001 A 
ATOM     21  C   UNL     1       0.418   7.806  -0.085  0.00  0.00    +0.000 A 
ATOM     22  C   UNL     1      -0.384   6.775  -0.542  0.00  0.00    +0.001 A 
ATOM     23  C   UNL     1      -0.995   5.923   0.354  0.00  0.00    +0.010 A 
ENDBRANCH   2  18
BRANCH   1  24
ATOM     24  C   UNL     1      -0.141   3.379   1.839  0.00  0.00    +0.339 C 
ATOM     25  O   UNL     1       0.483   4.148   1.131  0.00  0.00    -0.245 OA
BRANCH  24  26
ATOM     26  O   UNL     1       0.105   2.053   1.777  0.00  0.00    -0.462 OA
BRANCH  26  28
ATOM     27  C   UNL     1       1.248   0.100   0.927  0.00  0.00    +0.048 C 
ATOM     28  C   UNL     1       1.111   1.622   0.857  0.00  0.00    +0.229 C 
ENDBRANCH  26  28
ENDBRANCH  24  26
ENDBRANCH   1  24
TORSDOF 5
