REMARK  Name = ZINC35465363
REMARK  9 active torsions:
REMARK  status: ('A' for Active; 'I' for Inactive)
REMARK    1  A    between atoms: C_1  and  C_2
REMARK    2  A    between atoms: C_5  and  O_30
REMARK    3  A    between atoms: C_9  and  C_29
REMARK    4  A    between atoms: C_11  and  O_28
REMARK    5  A    between atoms: C_14  and  C_27
REMARK    6  A    between atoms: C_20  and  O_26
REMARK    7  A    between atoms: C_23  and  C_24
REMARK    8  A    between atoms: C_23  and  C_25
REMARK    9  A    between atoms: O_30  and  C_31
REMARK                            x       y       z     vdW  Elec       q    Type
REMARK                         _______ _______ _______ _____ _____    ______ ____
ROOT
ATOM      1  C   UNL     1       1.258   2.217   0.279  0.00  0.00    +0.048 C 
ATOM      2  C   UNL     1       1.045   0.744   0.049  0.00  0.00    -0.001 A 
ATOM      3  C   UNL     1       1.177   0.200  -1.204  0.00  0.00    +0.014 A 
ATOM      4  C   UNL     1       0.951  -1.177  -1.438  0.00  0.00    +0.108 A 
ATOM      5  C   UNL     1       0.550  -2.030  -0.399  0.00  0.00    +0.141 A 
ATOM      6  C   UNL     1       0.472  -1.468   0.867  0.00  0.00    +0.037 A 
ATOM      7  C   UNL     1       0.748  -0.131   1.111  0.00  0.00    +0.131 A 
ATOM      8  O   UNL     1       0.819   0.319   2.374  0.00  0.00    -0.485 OA
ATOM      9  C   UNL     1       0.110  -0.249   3.476  0.00  0.00    +0.114 C 
ATOM     10  C   UNL     1       1.091  -0.520   4.608  0.00  0.00    +0.082 C 
ATOM     11  C   UNL     1       0.445  -1.190   5.814  0.00  0.00    +0.154 C 
ATOM     12  C   UNL     1      -0.213  -2.496   5.434  0.00  0.00    +0.135 C 
ATOM     13  C   UNL     1      -1.135  -2.347   4.241  0.00  0.00    +0.009 C 
ATOM     14  C   UNL     1      -0.649  -1.502   3.084  0.00  0.00    +0.046 C 
ATOM     15  C   UNL     1       0.091  -2.334   2.044  0.00  0.00    +0.050 C 
ATOM     16  C   UNL     1      -1.609  -3.735   3.771  0.00  0.00    +0.018 C 
ATOM     17  C   UNL     1      -2.370  -4.360   4.955  0.00  0.00    +0.098 C 
ATOM     18  C   UNL     1      -1.407  -4.288   6.157  0.00  0.00    +0.284 C 
ATOM     19  O   UNL     1      -1.151  -2.908   6.499  0.00  0.00    -0.314 OA
ATOM     20  O   UNL     1      -0.171  -4.838   5.649  0.00  0.00    -0.318 OA
ATOM     21  C   UNL     1       0.715  -3.698   5.515  0.00  0.00    +0.101 C 
ATOM     22  C   UNL     1       1.536  -3.681   6.833  0.00  0.00    +0.044 C 
ATOM     23  C   UNL     1       1.692  -3.886   4.373  0.00  0.00    +0.044 C 
ATOM     24  C   UNL     1      -2.435  -1.654   4.769  0.00  0.00    +0.014 C 
ATOM     25  C   UNL     1      -0.870   0.864   3.905  0.00  0.00    +0.056 C 
ATOM     26  C   UNL     1       1.231  -1.447  -2.842  0.00  0.00    +0.343 C 
ATOM     27  O   UNL     1       1.161  -2.539  -3.372  0.00  0.00    -0.245 OA
ATOM     28  O   UNL     1       1.589  -0.307  -3.466  0.00  0.00    -0.456 OA
ATOM     29  C   UNL     1       1.540   0.784  -2.532  0.00  0.00    +0.269 C 
ENDROOT
BRANCH  18  30
ATOM     30  O   UNL     1      -1.896  -5.019   7.274  0.00  0.00    -0.343 OA
ATOM     31  H   UNL     1      -1.314  -4.993   8.046  0.00  0.00    +0.215 HD
ENDBRANCH  18  30
BRANCH  11  32
ATOM     32  O   UNL     1      -0.491  -0.331   6.456  0.00  0.00    -0.389 OA
ATOM     33  H   UNL     1      -0.106   0.493   6.786  0.00  0.00    +0.210 HD
ENDBRANCH  11  32
BRANCH   5  34
ATOM     34  O   UNL     1       0.254  -3.333  -0.633  0.00  0.00    -0.494 OA
ATOM     35  C   UNL     1       1.328  -4.271  -0.534  0.00  0.00    +0.277 C 
ENDBRANCH   5  34
TORSDOF 3
