REMARK  Name = ZINC58385528
REMARK  7 active torsions:
REMARK  status: ('A' for Active; 'I' for Inactive)
REMARK    1  A    between atoms: C_1  and  C_2
REMARK    2  A    between atoms: C_2  and  C_3
REMARK    3  A    between atoms: C_2  and  N_15
REMARK    4  A    between atoms: C_16  and  C_18
REMARK    5  A    between atoms: C_20  and  S_27
REMARK    6  A    between atoms: C_23  and  N_24
REMARK    7  A    between atoms: S_27  and  C_28
REMARK                            x       y       z     vdW  Elec       q    Type
REMARK                         _______ _______ _______ _____ _____    ______ ____
ROOT
ATOM      1  N   UNL     1      -0.015  -0.939   1.306  0.00  0.00    -0.305 N 
ATOM      2  C   UNL     1      -0.371  -0.795   2.598  0.00  0.00    +0.247 C 
ATOM      3  O   UNL     1      -1.458  -0.331   2.881  0.00  0.00    -0.270 OA
ATOM      4  H   UNL     1       0.853  -1.309   1.080  0.00  0.00    +0.150 HD
ENDROOT
BRANCH   2   5
ATOM      5  C   UNL     1       0.562  -1.202   3.671  0.00  0.00    +0.068 A 
ATOM      6  C   UNL     1       1.078  -2.497   3.695  0.00  0.00    +0.030 A 
ATOM      7  C   UNL     1       1.952  -2.871   4.705  0.00  0.00    +0.008 A 
ATOM      8  C   UNL     1       2.311  -1.955   5.689  0.00  0.00    +0.017 A 
ATOM      9  C   UNL     1       1.799  -0.672   5.664  0.00  0.00    +0.034 A 
ATOM     10  C   UNL     1       0.932  -0.289   4.660  0.00  0.00    +0.138 A 
BRANCH  10  11
ATOM     11  N   UNL     1       0.391   1.089   4.635  0.00  0.00    +0.057 N 
ATOM     12  O   UNL     1       0.612   1.841   5.555  0.00  0.00    -0.126 OA
ATOM     13  O   UNL     1      -0.272   1.461   3.695  0.00  0.00    -0.126 OA
ENDBRANCH  10  11
BRANCH   7  14
ATOM     14  S   UNL     1       2.608  -4.506   4.742  0.00  0.00    -0.129 S 
ATOM     15  C   UNL     1       3.675  -4.518   6.210  0.00  0.00    +0.090 C 
ENDBRANCH   7  14
ENDBRANCH   2   5
BRANCH   1  17
ATOM     16  C   UNL     1      -0.778   0.961  -0.032  0.00  0.00    +0.033 C 
ATOM     17  C   UNL     1      -0.939  -0.535   0.243  0.00  0.00    +0.100 C 
BRANCH  17  18
ATOM     18  C   UNL     1      -0.631  -1.312  -1.012  0.00  0.00    -0.025 A 
ATOM     19  C   UNL     1       0.685  -1.557  -1.365  0.00  0.00    +0.007 A 
ATOM     20  C   UNL     1       0.978  -2.268  -2.512  0.00  0.00    +0.028 A 
ATOM     21  C   UNL     1      -0.051  -2.738  -3.314  0.00  0.00    +0.067 A 
ATOM     22  C   UNL     1      -1.379  -2.491  -2.958  0.00  0.00    +0.067 A 
ATOM     23  C   UNL     1      -1.662  -1.781  -1.801  0.00  0.00    +0.033 A 
ATOM     24  N   UNL     1      -2.175  -3.077  -3.939  0.00  0.00    -0.306 N 
ATOM     25  H   UNL     1      -3.144  -3.071  -3.962  0.00  0.00    +0.170 HD
ATOM     26  C   UNL     1      -1.369  -3.655  -4.850  0.00  0.00    +0.325 A 
ATOM     27  O   UNL     1      -1.746  -4.254  -5.839  0.00  0.00    -0.247 OA
ATOM     28  N   UNL     1      -0.082  -3.467  -4.500  0.00  0.00    -0.306 N 
ATOM     29  H   UNL     1       0.692  -3.785  -4.991  0.00  0.00    +0.170 HD
ENDBRANCH  17  18
ENDBRANCH   1  17
TORSDOF 5
