REMARK  Name = ZINC64436002
REMARK  6 active torsions:
REMARK  status: ('A' for Active; 'I' for Inactive)
REMARK    1  A    between atoms: C_4  and  N_7
REMARK    2  A    between atoms: C_8  and  C_20
REMARK    3  A    between atoms: C_11  and  C_13
REMARK    4  A    between atoms: N_22  and  C_23
REMARK    5  A    between atoms: C_23  and  C_24
REMARK    6  A    between atoms: C_24  and  C_25
REMARK                            x       y       z     vdW  Elec       q    Type
REMARK                         _______ _______ _______ _____ _____    ______ ____
ROOT
ATOM      1  N   UNL     1       3.620  -0.649  -0.036  0.00  0.00    -0.237 N 
ATOM      2  C   UNL     1       3.820  -2.107  -0.052  0.00  0.00    +0.204 C 
ATOM      3  C   UNL     1       5.321  -2.289  -0.065  0.00  0.00    +0.031 C 
ATOM      4  C   UNL     1       5.869  -1.077  -0.057  0.00  0.00    +0.050 C 
ATOM      5  N   UNL     1       4.901  -0.082  -0.046  0.00  0.00    -0.263 N 
ATOM      6  H   UNL     1       5.085   0.871  -0.044  0.00  0.00    +0.170 HD
ENDROOT
BRANCH   4   7
ATOM      7  C   UNL     1       7.328  -0.821  -0.066  0.00  0.00    -0.003 A 
ATOM      8  C   UNL     1       8.225  -1.888  -0.088  0.00  0.00    +0.011 A 
ATOM      9  C   UNL     1       9.583  -1.644  -0.096  0.00  0.00    +0.020 A 
ATOM     10  C   UNL     1      10.055  -0.343  -0.081  0.00  0.00    +0.041 A 
ATOM     11  C   UNL     1       9.168   0.721  -0.058  0.00  0.00    +0.020 A 
ATOM     12  C   UNL     1       7.809   0.488  -0.056  0.00  0.00    +0.011 A 
ATOM     13 CL   UNL     1      11.765  -0.043  -0.091  0.00  0.00    -0.084 Cl
ENDBRANCH   4   7
BRANCH   1  17
ATOM     14  C   UNL     1      -0.017   1.379   0.010  0.00  0.00    +0.000 A 
ATOM     15  C   UNL     1       1.169   2.089   0.002  0.00  0.00    +0.002 A 
ATOM     16  C   UNL     1       2.377   1.420  -0.013  0.00  0.00    +0.025 A 
ATOM     17  C   UNL     1       2.400   0.031  -0.021  0.00  0.00    +0.049 A 
ATOM     18  C   UNL     1       1.206  -0.680  -0.013  0.00  0.00    +0.025 A 
ATOM     19  C   UNL     1       0.002  -0.004   0.002  0.00  0.00    +0.002 A 
ENDBRANCH   1  17
BRANCH   2  20
ATOM     20  C   UNL     1       3.205  -2.708  -1.290  0.00  0.00    +0.239 C 
ATOM     21  O   UNL     1       2.646  -1.996  -2.096  0.00  0.00    -0.273 OA
ATOM     22  N   UNL     1       3.277  -4.038  -1.500  0.00  0.00    -0.313 N 
ATOM     23  H   UNL     1       3.724  -4.608  -0.855  0.00  0.00    +0.149 HD
BRANCH  22  24
ATOM     24  C   UNL     1       2.679  -4.622  -2.704  0.00  0.00    +0.110 C 
BRANCH  24  25
ATOM     25  C   UNL     1       2.900  -6.136  -2.699  0.00  0.00    +0.073 C 
BRANCH  25  26
ATOM     26  C   UNL     1       2.285  -6.737  -3.936  0.00  0.00    +0.035 A 
ATOM     27  H   UNL     1       2.100  -7.648  -6.914  0.00  0.00    +0.166 HD
ATOM     28  C   UNL     1       2.871  -6.832  -5.145  0.00  0.00    +0.105 A 
ATOM     29  N   UNL     1       1.969  -7.439  -5.976  0.00  0.00    -0.352 N 
ATOM     30  C   UNL     1       0.862  -7.695  -5.246  0.00  0.00    +0.171 A 
ATOM     31  N   UNL     1       1.060  -7.277  -4.026  0.00  0.00    -0.350 N 
ATOM     32  H   UNL     1       0.422  -7.344  -3.299  0.00  0.00    +0.166 HD
ENDBRANCH  25  26
ENDBRANCH  24  25
ENDBRANCH  22  24
ENDBRANCH   2  20
TORSDOF 6
