REMARK  Name = ZINC23047798
REMARK  13 active torsions:
REMARK  status: ('A' for Active; 'I' for Inactive)
REMARK    1  A    between atoms: C_1  and  C_2
REMARK    2  A    between atoms: C_3  and  C_27
REMARK    3  A    between atoms: C_5  and  N_11
REMARK    4  A    between atoms: C_6  and  C_7
REMARK    5  A    between atoms: C_7  and  O_9
REMARK    6  A    between atoms: O_9  and  C_10
REMARK    7  A    between atoms: C_12  and  C_14
REMARK    8  A    between atoms: C_14  and  O_15
REMARK    9  A    between atoms: O_15  and  C_16
REMARK   10  A    between atoms: C_16  and  C_18
REMARK   11  A    between atoms: C_21  and  C_24
REMARK   12  A    between atoms: C_24  and  O_25
REMARK   13  A    between atoms: O_25  and  C_26
REMARK                            x       y       z     vdW  Elec       q    Type
REMARK                         _______ _______ _______ _____ _____    ______ ____
ROOT
ATOM      1  N   UNL     1       4.806   1.562  -0.035  0.00  0.00    -0.277 N 
ATOM      2  C   UNL     1       3.554   2.060  -0.021  0.00  0.00    +0.255 C 
ATOM      3  O   UNL     1       3.379   3.260  -0.013  0.00  0.00    -0.272 OA
ATOM      4  H   UNL     1       4.965   0.473  -0.043  0.00  0.00    +0.155 HD
ENDROOT
BRANCH   1   9
ATOM      5  C   UNL     1       9.665   2.983  -0.074  0.00  0.00    +0.045 C 
ATOM      6  C   UNL     1       8.175   3.208  -0.059  0.00  0.00    -0.025 A 
ATOM      7  C   UNL     1       7.653   4.447  -0.047  0.00  0.00    -0.008 A 
ATOM      8  S   UNL     1       5.897   4.152  -0.040  0.00  0.00    -0.078 S 
ATOM      9  C   UNL     1       5.894   2.421  -0.041  0.00  0.00    +0.086 A 
ATOM     10  C   UNL     1       7.247   2.101  -0.056  0.00  0.00    +0.091 A 
ATOM     11  C   UNL     1       8.379   5.768  -0.047  0.00  0.00    +0.052 C 
BRANCH  10  12
ATOM     12  C   UNL     1       7.709   0.712  -0.067  0.00  0.00    +0.342 C 
ATOM     13  O   UNL     1       7.891   0.140  -1.125  0.00  0.00    -0.245 OA
BRANCH  12  14
ATOM     14  O   UNL     1       7.932   0.066   1.095  0.00  0.00    -0.464 OA
ATOM     15  C   UNL     1       8.388  -1.310   1.008  0.00  0.00    +0.280 C 
ENDBRANCH  12  14
ENDBRANCH  10  12
ENDBRANCH   1   9
BRANCH   2  16
ATOM     16  C   UNL     1       2.371   1.126  -0.015  0.00  0.00    +0.328 C 
BRANCH  16  17
ATOM     17  O   UNL     1       1.143   1.900   0.001  0.00  0.00    -0.452 OA
BRANCH  17  18
ATOM     18  C   UNL     1      -0.014   1.210   0.009  0.00  0.00    +0.340 C 
ATOM     19  O   UNL     1       0.002  -0.004   0.002  0.00  0.00    -0.245 OA
BRANCH  18  20
ATOM     20  C   UNL     1      -1.304   1.932   0.019  0.00  0.00    +0.059 A 
ATOM     21  C   UNL     1      -1.326   3.328   0.032  0.00  0.00    +0.015 A 
ATOM     22  C   UNL     1      -2.534   3.995   0.036  0.00  0.00    +0.007 A 
ATOM     23  C   UNL     1      -3.720   3.284   0.037  0.00  0.00    -0.022 A 
ATOM     24  C   UNL     1      -3.705   1.900   0.030  0.00  0.00    +0.007 A 
ATOM     25  C   UNL     1      -2.505   1.220   0.021  0.00  0.00    +0.015 A 
BRANCH  23  26
ATOM     26  C   UNL     1      -5.036   4.019   0.047  0.00  0.00    +0.194 C 
BRANCH  26  27
ATOM     27  O   UNL     1      -5.446   4.245   1.397  0.00  0.00    -0.378 OA
ATOM     28  C   UNL     1      -6.688   4.939   1.519  0.00  0.00    +0.194 C 
ENDBRANCH  26  27
ENDBRANCH  23  26
ENDBRANCH  18  20
ENDBRANCH  17  18
ENDBRANCH  16  17
ENDBRANCH   2  16
TORSDOF 9
