REMARK  Name = ZINC24767422
REMARK  8 active torsions:
REMARK  status: ('A' for Active; 'I' for Inactive)
REMARK    1  A    between atoms: C_1  and  C_2
REMARK    2  A    between atoms: C_2  and  C_26
REMARK    3  A    between atoms: N_5  and  N_9
REMARK    4  A    between atoms: C_10  and  C_12
REMARK    5  A    between atoms: C_12  and  N_13
REMARK    6  A    between atoms: C_21  and  C_23
REMARK    7  A    between atoms: C_26  and  C_27
REMARK    8  A    between atoms: C_27  and  C_28
REMARK                            x       y       z     vdW  Elec       q    Type
REMARK                         _______ _______ _______ _____ _____    ______ ____
ROOT
ATOM      1  N   UNL     1      -2.156   6.256  -0.808  0.00  0.00    -0.225 N 
ATOM      2  C   UNL     1      -1.298   5.621   0.016  0.00  0.00    +0.213 C 
ATOM      3  O   UNL     1      -0.528   6.261   0.701  0.00  0.00    -0.276 OA
ATOM      4  H   UNL     1      -2.854   5.676  -1.429  0.00  0.00    +0.173 HD
ENDROOT
BRANCH   1   9
ATOM      5  C   UNL     1      -0.532  10.559  -1.406  0.00  0.00    +0.041 C 
ATOM      6  C   UNL     1      -1.866   9.822  -1.536  0.00  0.00    +0.112 C 
ATOM      7  C   UNL     1      -1.639   8.367  -1.893  0.00  0.00    +0.263 C 
ATOM      8  O   UNL     1      -1.103   7.933  -2.890  0.00  0.00    -0.271 OA
ATOM      9  N   UNL     1      -2.158   7.656  -0.873  0.00  0.00    -0.137 N 
ATOM     10  C   UNL     1      -2.680   8.451   0.067  0.00  0.00    +0.326 C 
ATOM     11  O   UNL     1      -3.209   8.041   1.082  0.00  0.00    -0.251 OA
ATOM     12  N   UNL     1      -2.551   9.756  -0.233  0.00  0.00    -0.284 N 
ATOM     13  H   UNL     1      -2.843  10.683   0.282  0.00  0.00    +0.151 HD
BRANCH   6  14
ATOM     14  C   UNL     1      -2.757  10.500  -2.579  0.00  0.00    +0.040 C 
BRANCH  14  15
ATOM     15  C   UNL     1      -2.970  11.965  -2.194  0.00  0.00    +0.038 C 
BRANCH  15  16
ATOM     16  C   UNL     1      -3.847  12.632  -3.221  0.00  0.00    -0.047 A 
ATOM     17  C   UNL     1      -3.279  13.250  -4.319  0.00  0.00    +0.003 A 
ATOM     18  C   UNL     1      -4.085  13.857  -5.264  0.00  0.00    +0.000 A 
ATOM     19  C   UNL     1      -5.458  13.857  -5.105  0.00  0.00    +0.000 A 
ATOM     20  C   UNL     1      -6.026  13.245  -4.003  0.00  0.00    +0.000 A 
ATOM     21  C   UNL     1      -5.221  12.632  -3.062  0.00  0.00    +0.003 A 
ENDBRANCH  15  16
ENDBRANCH  14  15
ENDBRANCH   6  14
ENDBRANCH   1   9
BRANCH   2  22
ATOM     22  C   UNL     1      -1.296   4.116   0.086  0.00  0.00    +0.021 C 
BRANCH  22  23
ATOM     23  N   UNL     1      -0.414   3.678   1.176  0.00  0.00    +0.390 N 
ATOM     24  C   UNL     1      -0.780   4.327   2.444  0.00  0.00    -0.072 C 
ATOM     25  C   UNL     1       0.387   4.173   3.434  0.00  0.00    +0.024 C 
ATOM     26  C   UNL     1       0.835   2.748   3.391  0.00  0.00    -0.010 A 
ATOM     27  C   UNL     1       0.506   1.821   2.449  0.00  0.00    -0.051 A 
ATOM     28  C   UNL     1       1.043   0.546   2.617  0.00  0.00    +0.010 A 
ATOM     29  C   UNL     1       1.846   0.284   3.675  0.00  0.00    +0.045 A 
ATOM     30  S   UNL     1       1.885   1.864   4.509  0.00  0.00    -0.101 S 
ATOM     31  C   UNL     1      -0.405   2.214   1.290  0.00  0.00    -0.033 C 
ATOM     32  H   UNL     1       0.613   3.990   0.934  0.00  0.00    -0.080 HD
BRANCH  31  33
ATOM     33  C   UNL     1       0.123   1.601  -0.009  0.00  0.00    -0.020 C 
ATOM     34  C   UNL     1      -0.609   0.375  -0.560  0.00  0.00    +0.002 C 
ATOM     35  C   UNL     1      -0.753   1.729  -1.257  0.00  0.00    +0.002 C 
ENDBRANCH  31  33
ENDBRANCH  22  23
ENDBRANCH   2  22
TORSDOF 7
