REMARK  Name = ZINC35291710
REMARK  3 active torsions:
REMARK  status: ('A' for Active; 'I' for Inactive)
REMARK    1  A    between atoms: C_13  and  S_16
REMARK    2  A    between atoms: S_16  and  C_17
REMARK    3  A    between atoms: C_17  and  C_18
REMARK                            x       y       z     vdW  Elec       q    Type
REMARK                         _______ _______ _______ _____ _____    ______ ____
ROOT
ATOM      1  C   UNL     1      -0.017   1.383   0.010  0.00  0.00    +0.022 A 
ATOM      2  C   UNL     1       1.161   2.099   0.002  0.00  0.00    +0.028 A 
ATOM      3  C   UNL     1       2.382   1.434  -0.013  0.00  0.00    +0.050 A 
ATOM      4  C   UNL     1       2.400   0.030  -0.021  0.00  0.00    +0.030 A 
ATOM      5  C   UNL     1       1.204  -0.682  -0.013  0.00  0.00    +0.032 A 
ATOM      6  C   UNL     1       0.002  -0.004   0.002  0.00  0.00    +0.042 A 
ATOM      7 CL   UNL     1      -1.491  -0.890   0.012  0.00  0.00    -0.084 Cl
ATOM      8  C   UNL     1       3.819  -0.366  -0.038  0.00  0.00    +0.137 A 
ATOM      9  C   UNL     1       4.565   0.830  -0.039  0.00  0.00    +0.162 A 
ATOM     10  N   UNL     1       3.691   1.889  -0.025  0.00  0.00    -0.338 N 
ATOM     11  H   UNL     1       3.953   2.823  -0.022  0.00  0.00    +0.167 HD
ATOM     12  N   UNL     1       5.892   0.747  -0.053  0.00  0.00    -0.201 NA
ATOM     13  C   UNL     1       6.467  -0.449  -0.066  0.00  0.00    +0.211 A 
ATOM     14  N   UNL     1       5.742  -1.563  -0.064  0.00  0.00    -0.122 NA
ATOM     15  N   UNL     1       4.453  -1.529  -0.051  0.00  0.00    -0.143 NA
ENDROOT
BRANCH  13  16
ATOM     16  S   UNL     1       8.225  -0.562  -0.085  0.00  0.00    -0.082 S 
BRANCH  16  17
ATOM     17  C   UNL     1       8.549  -2.347  -0.098  0.00  0.00    +0.109 C 
BRANCH  17  18
ATOM     18  C   UNL     1      10.060  -2.591  -0.116  0.00  0.00    +0.129 C 
ATOM     19  C   UNL     1      10.359  -4.111  -0.162  0.00  0.00    +0.034 C 
ATOM     20  C   UNL     1      11.771  -4.114  -0.808  0.00  0.00    +0.031 C 
ATOM     21  C   UNL     1      11.692  -2.913  -1.775  0.00  0.00    +0.160 C 
ATOM     22  O   UNL     1      10.637  -2.056  -1.317  0.00  0.00    -0.376 OA
ENDBRANCH  17  18
ENDBRANCH  16  17
ENDBRANCH  13  16
TORSDOF 3
