REMARK  Name = ZINC63281457
REMARK  7 active torsions:
REMARK  status: ('A' for Active; 'I' for Inactive)
REMARK    1  A    between atoms: C_4  and  C_7
REMARK    2  A    between atoms: C_7  and  C_8
REMARK    3  A    between atoms: N_17  and  C_18
REMARK    4  A    between atoms: C_18  and  C_19
REMARK    5  A    between atoms: N_21  and  C_22
REMARK    6  A    between atoms: C_22  and  C_23
REMARK    7  A    between atoms: C_23  and  C_24
REMARK                            x       y       z     vdW  Elec       q    Type
REMARK                         _______ _______ _______ _____ _____    ______ ____
ROOT
ATOM      1  C   UNL     1       4.171  -0.963   1.399  0.00  0.00    +0.163 C 
ATOM      2  N   UNL     1       3.270  -1.917   2.057  0.00  0.00    -0.324 N 
ATOM      3  C   UNL     1       4.036  -3.035   2.416  0.00  0.00    +0.050 A 
ATOM      4  C   UNL     1       3.669  -4.211   3.059  0.00  0.00    +0.025 A 
ATOM      5  C   UNL     1       4.613  -5.188   3.311  0.00  0.00    +0.002 A 
ATOM      6  C   UNL     1       5.927  -5.000   2.924  0.00  0.00    +0.002 A 
ATOM      7  C   UNL     1       6.301  -3.834   2.284  0.00  0.00    +0.025 A 
ATOM      8  C   UNL     1       5.358  -2.845   2.026  0.00  0.00    +0.053 A 
ATOM      9  N   UNL     1       5.496  -1.596   1.401  0.00  0.00    -0.301 N 
ATOM     10  H   UNL     1       2.321  -1.796   2.215  0.00  0.00    +0.148 HD
ENDROOT
BRANCH   1  11
ATOM     11  C   UNL     1       3.711  -0.707  -0.038  0.00  0.00    +0.077 C 
BRANCH  11  15
ATOM     12  C   UNL     1      -0.017   1.378   0.010  0.00  0.00    +0.000 A 
ATOM     13  C   UNL     1       1.171   2.086   0.002  0.00  0.00    +0.000 A 
ATOM     14  C   UNL     1       2.377   1.411  -0.013  0.00  0.00    +0.004 A 
ATOM     15  C   UNL     1       2.396   0.029  -0.020  0.00  0.00    -0.044 A 
ATOM     16  C   UNL     1       1.208  -0.679  -0.012  0.00  0.00    +0.004 A 
ATOM     17  C   UNL     1       0.002  -0.004   0.002  0.00  0.00    +0.000 A 
ENDBRANCH  11  15
ENDBRANCH   1  11
BRANCH   9  18
ATOM     18  C   UNL     1       6.730  -1.029   0.852  0.00  0.00    +0.202 C 
BRANCH  18  19
ATOM     19  C   UNL     1       7.437  -0.236   1.921  0.00  0.00    +0.230 C 
ATOM     20  O   UNL     1       6.957  -0.153   3.032  0.00  0.00    -0.274 OA
ATOM     21  N   UNL     1       8.602   0.381   1.642  0.00  0.00    -0.314 N 
ATOM     22  H   UNL     1       8.986   0.314   0.754  0.00  0.00    +0.149 HD
BRANCH  21  23
ATOM     23  C   UNL     1       9.290   1.152   2.681  0.00  0.00    +0.108 C 
BRANCH  23  24
ATOM     24  C   UNL     1      10.579   1.744   2.108  0.00  0.00    +0.052 C 
BRANCH  24  25
ATOM     25  C   UNL     1      11.286   2.537   3.176  0.00  0.00    -0.040 C 
ATOM     26  C   UNL     1      12.279   2.105   3.987  0.00  0.00    -0.001 A 
ATOM     27  C   UNL     1      12.970   0.816   4.113  0.00  0.00    +0.010 A 
ATOM     28  C   UNL     1      13.945   0.682   5.040  0.00  0.00    +0.001 A 
ATOM     29  C   UNL     1      14.311   1.741   5.883  0.00  0.00    +0.002 A 
ATOM     30  C   UNL     1      13.722   2.955   5.827  0.00  0.00    +0.026 A 
ATOM     31  C   UNL     1      12.684   3.207   4.888  0.00  0.00    +0.043 A 
ATOM     32  N   UNL     1      11.970   4.279   4.644  0.00  0.00    -0.380 N 
ATOM     33  C   UNL     1      11.034   3.980   3.555  0.00  0.00    +0.144 C 
ATOM     34  H   UNL     1      12.051   5.130   5.103  0.00  0.00    +0.160 HD
ENDBRANCH  24  25
ENDBRANCH  23  24
ENDBRANCH  21  23
ENDBRANCH  18  19
ENDBRANCH   9  18
TORSDOF 7
