REMARK  Name = ZINC59644460
REMARK  11 active torsions:
REMARK  status: ('A' for Active; 'I' for Inactive)
REMARK    1  A    between atoms: C_1  and  C_2
REMARK    2  A    between atoms: C_2  and  O_3
REMARK    3  A    between atoms: O_3  and  C_4
REMARK    4  A    between atoms: C_6  and  C_20
REMARK    5  A    between atoms: C_9  and  O_10
REMARK    6  A    between atoms: O_10  and  C_11
REMARK    7  A    between atoms: C_11  and  C_12
REMARK    8  A    between atoms: C_16  and  C_18
REMARK    9  A    between atoms: N_21  and  N_22
REMARK   10  A    between atoms: C_23  and  C_25
REMARK   11  A    between atoms: C_25  and  C_26
REMARK                            x       y       z     vdW  Elec       q    Type
REMARK                         _______ _______ _______ _____ _____    ______ ____
ROOT
ATOM      1  C   UNL     1       0.802  -1.825   1.306  0.00  0.00    +0.164 A 
ATOM      2  C   UNL     1       0.261  -2.669   0.354  0.00  0.00    +0.059 A 
ATOM      3  C   UNL     1       0.375  -4.053   0.507  0.00  0.00    -0.001 A 
ATOM      4  C   UNL     1       1.034  -4.578   1.621  0.00  0.00    +0.028 A 
ATOM      5  C   UNL     1       1.572  -3.730   2.567  0.00  0.00    +0.064 A 
ATOM      6  C   UNL     1       1.463  -2.354   2.411  0.00  0.00    +0.176 A 
ATOM      7 BR   UNL     1       2.464  -4.441   4.074  0.00  0.00    -0.046 Br
ENDROOT
BRANCH   3   8
ATOM      8  C   UNL     1      -0.201  -4.958  -0.505  0.00  0.00    +0.138 C 
ATOM      9  N   UNL     1      -0.095  -6.244  -0.362  0.00  0.00    -0.188 NA
BRANCH   9  10
ATOM     10  N   UNL     1      -0.641  -7.104  -1.323  0.00  0.00    -0.207 N 
ATOM     11  C   UNL     1      -0.531  -8.438  -1.174  0.00  0.00    +0.238 C 
ATOM     12  O   UNL     1       0.042  -8.896  -0.207  0.00  0.00    -0.274 OA
ATOM     13  H   UNL     1      -1.099  -6.738  -2.096  0.00  0.00    +0.177 HD
BRANCH  11  14
ATOM     14  C   UNL     1      -1.119  -9.363  -2.208  0.00  0.00    +0.153 C 
BRANCH  14  15
ATOM     15  C   UNL     1      -0.861 -10.793  -1.809  0.00  0.00    +0.059 A 
ATOM     16  C   UNL     1      -1.871 -11.689  -1.694  0.00  0.00    +0.072 A 
ATOM     17  S   UNL     1      -0.966 -13.151  -1.212  0.00  0.00    -0.061 S 
ATOM     18  C   UNL     1       0.577 -12.479  -1.208  0.00  0.00    +0.156 A 
ATOM     19  N   UNL     1       0.361 -11.230  -1.561  0.00  0.00    -0.230 NA
ATOM     20  N   UNL     1       1.783 -13.094  -0.910  0.00  0.00    -0.338 N 
ATOM     21  H   UNL     1       1.802 -14.033  -0.666  0.00  0.00    +0.144 HD
ATOM     22  H   UNL     1       2.609 -12.586  -0.947  0.00  0.00    +0.144 HD
ENDBRANCH  14  15
ENDBRANCH  11  14
ENDBRANCH   9  10
ENDBRANCH   3   8
BRANCH   1  23
ATOM     23  O   UNL     1       0.693  -0.477   1.160  0.00  0.00    -0.489 OA
BRANCH  23  25
ATOM     24  C   UNL     1      -0.019   1.526   0.010  0.00  0.00    +0.048 C 
ATOM     25  C   UNL     1       0.002  -0.004   0.002  0.00  0.00    +0.226 C 
ENDBRANCH  23  25
ENDBRANCH   1  23
BRANCH   6  26
ATOM     26  O   UNL     1       1.999  -1.522   3.343  0.00  0.00    -0.483 OA
BRANCH  26  27
ATOM     27  C   UNL     1       1.159  -1.144   4.435  0.00  0.00    +0.264 C 
BRANCH  27  28
ATOM     28  C   UNL     1       1.918  -0.227   5.359  0.00  0.00    -0.010 A 
ATOM     29  C   UNL     1       2.655  -0.753   6.404  0.00  0.00    +0.007 A 
ATOM     30  C   UNL     1       3.351   0.088   7.251  0.00  0.00    +0.001 A 
ATOM     31  C   UNL     1       3.311   1.456   7.054  0.00  0.00    +0.003 A 
ATOM     32  C   UNL     1       2.575   1.982   6.009  0.00  0.00    -0.050 A 
ATOM     33  C   UNL     1       1.882   1.141   5.159  0.00  0.00    +0.010 A 
ATOM     34  C   UNL     1       2.530   3.473   5.794  0.00  0.00    +0.044 C 
ENDBRANCH  27  28
ENDBRANCH  26  27
ENDBRANCH   6  26
TORSDOF 9
