REMARK  Name = ZINC62805535
REMARK  5 active torsions:
REMARK  status: ('A' for Active; 'I' for Inactive)
REMARK    1  A    between atoms: C_3  and  C_9
REMARK    2  A    between atoms: C_5  and  C_7
REMARK    3  A    between atoms: C_9  and  O_10
REMARK    4  A    between atoms: O_10  and  C_11
REMARK    5  A    between atoms: N_20  and  O_21
REMARK                            x       y       z     vdW  Elec       q    Type
REMARK                         _______ _______ _______ _____ _____    ______ ____
ROOT
ATOM      1  C   UNL     1       5.243   3.143   1.492  0.00  0.00    +0.124 A 
ATOM      2  C   UNL     1       5.949   3.592   0.380  0.00  0.00    +0.046 A 
ATOM      3  C   UNL     1       7.117   4.301   0.549  0.00  0.00    +0.017 A 
ATOM      4  C   UNL     1       7.591   4.568   1.834  0.00  0.00    +0.045 A 
ATOM      5  C   UNL     1       6.885   4.119   2.957  0.00  0.00    +0.134 A 
ATOM      6  C   UNL     1       5.704   3.409   2.770  0.00  0.00    +0.092 A 
ATOM      7  O   UNL     1       7.510   4.480   4.104  0.00  0.00    -0.485 OA
ATOM      8  C   UNL     1       8.703   5.212   3.820  0.00  0.00    +0.288 C 
ATOM      9  C   UNL     1       8.790   5.290   2.311  0.00  0.00    +0.128 C 
ATOM     10  N   UNL     1       9.707   5.861   1.597  0.00  0.00    -0.088 NA
ENDROOT
BRANCH  10  11
ATOM     11  O   UNL     1      10.793   6.512   2.231  0.00  0.00    -0.409 OA
ATOM     12  H   UNL     1      11.427   6.908   1.617  0.00  0.00    +0.328 HD
ENDBRANCH  10  11
BRANCH   1  13
ATOM     13  O   UNL     1       4.091   2.445   1.322  0.00  0.00    -0.487 OA
BRANCH  13  14
ATOM     14  C   UNL     1       3.671   2.204  -0.023  0.00  0.00    +0.264 C 
BRANCH  14  17
ATOM     15  C   UNL     1      -0.017   1.375   0.010  0.00  0.00    +0.002 A 
ATOM     16  C   UNL     1       1.170   2.086   0.002  0.00  0.00    +0.007 A 
ATOM     17  C   UNL     1       2.383   1.421  -0.013  0.00  0.00    -0.009 A 
ATOM     18  C   UNL     1       2.416   0.041  -0.021  0.00  0.00    +0.025 A 
ATOM     19  C   UNL     1       1.223  -0.682  -0.013  0.00  0.00    +0.052 A 
ATOM     20  C   UNL     1       0.002  -0.004   0.002  0.00  0.00    +0.019 A 
BRANCH  19  21
ATOM     21  C   UNL     1       1.250  -2.114  -0.022  0.00  0.00    +0.099 C 
ATOM     22  N   UNL     1       1.271  -3.250  -0.029  0.00  0.00    -0.191 NA
ENDBRANCH  19  21
ENDBRANCH  14  17
ENDBRANCH  13  14
ENDBRANCH   1  13
TORSDOF 5
