REMARK  Name = ZINC14198191
REMARK  9 active torsions:
REMARK  status: ('A' for Active; 'I' for Inactive)
REMARK    1  A    between atoms: C_1  and  C_2
REMARK    2  A    between atoms: C_2  and  C_3
REMARK    3  A    between atoms: C_2  and  C_4
REMARK    4  A    between atoms: C_4  and  C_6
REMARK    5  A    between atoms: C_4  and  N_60
REMARK    6  A    between atoms: C_17  and  C_18
REMARK    7  A    between atoms: C_17  and  N_60
REMARK    8  A    between atoms: N_23  and  C_24
REMARK    9  A    between atoms: C_30  and  C_32
REMARK                            x       y       z     vdW  Elec       q    Type
REMARK                         _______ _______ _______ _____ _____    ______ ____
ROOT
ATOM      1  N   UNL     1       4.607   8.136   0.774  0.00  0.00    +0.387 N 
ATOM      2  H   UNL     1       3.916   8.475   1.454  0.00  0.00    -0.084 HD
ATOM      3  H   UNL     1       4.972   7.227   1.081  0.00  0.00    -0.084 HD
ENDROOT
BRANCH   1   4
ATOM      4  C   UNL     1       5.719   9.102   0.689  0.00  0.00    -0.038 C 
BRANCH   4   5
ATOM      5  C   UNL     1       5.955   9.705   2.050  0.00  0.00    -0.057 A 
ATOM      6  C   UNL     1       5.873   8.912   3.179  0.00  0.00    +0.006 A 
ATOM      7  C   UNL     1       6.095   9.457   4.431  0.00  0.00    +0.049 A 
ATOM      8  C   UNL     1       6.388  10.805   4.550  0.00  0.00    +0.162 A 
ATOM      9  C   UNL     1       6.465  11.602   3.417  0.00  0.00    +0.162 A 
ATOM     10  C   UNL     1       6.248  11.052   2.166  0.00  0.00    +0.051 A 
ATOM     11  O   UNL     1       6.756  12.930   3.546  0.00  0.00    -0.488 OA
ATOM     12  C   UNL     1       5.752  13.732   4.170  0.00  0.00    +0.232 C 
ATOM     13  C   UNL     1       5.878  13.672   5.684  0.00  0.00    +0.082 C 
ATOM     14  C   UNL     1       5.611  12.279   6.233  0.00  0.00    +0.232 C 
ATOM     15  O   UNL     1       6.604  11.357   5.779  0.00  0.00    -0.488 OA
ENDBRANCH   4   5
BRANCH   4  17
ATOM     16  C   UNL     1       8.157   9.367   0.214  0.00  0.00    +0.006 C 
ATOM     17  C   UNL     1       6.986   8.382   0.223  0.00  0.00    -0.027 C 
ATOM     18  C   UNL     1       7.298   7.228   1.178  0.00  0.00    +0.006 C 
ENDBRANCH   4  17
ENDBRANCH   1   4
BRANCH   1  19
ATOM     19  C   UNL     1       3.961   7.982  -0.542  0.00  0.00    -0.025 C 
BRANCH  19  20
ATOM     20  C   UNL     1       2.781   7.055  -0.408  0.00  0.00    +0.034 A 
ATOM     21  C   UNL     1       1.532   7.545  -0.214  0.00  0.00    +0.070 A 
ATOM     22  S   UNL     1       0.588   6.029  -0.141  0.00  0.00    -0.060 S 
ATOM     23  C   UNL     1       1.913   4.928  -0.360  0.00  0.00    +0.172 A 
ATOM     24  N   UNL     1       2.939   5.748  -0.476  0.00  0.00    -0.231 NA
ATOM     25  N   UNL     1       1.895   3.537  -0.407  0.00  0.00    -0.219 N 
ATOM     26  C   UNL     1       3.052   2.851  -0.487  0.00  0.00    +0.223 C 
ATOM     27  O   UNL     1       4.111   3.440  -0.444  0.00  0.00    -0.275 OA
ATOM     28  C   UNL     1       3.030   1.351  -0.631  0.00  0.00    +0.110 C 
BRANCH  25  29
ATOM     29  C   UNL     1       0.674   2.851  -0.371  0.00  0.00    +0.043 A 
ATOM     30  C   UNL     1       0.292   2.171   0.778  0.00  0.00    +0.024 A 
ATOM     31  C   UNL     1      -0.912   1.496   0.811  0.00  0.00    +0.002 A 
ATOM     32  C   UNL     1      -1.734   1.492  -0.301  0.00  0.00    +0.000 A 
ATOM     33  C   UNL     1      -1.359   2.172  -1.445  0.00  0.00    +0.002 A 
ATOM     34  C   UNL     1      -0.156   2.849  -1.484  0.00  0.00    +0.024 A 
ENDBRANCH  25  29
ENDBRANCH  19  20
ENDBRANCH   1  19
TORSDOF 6
