REMARK  Name = ZINC52094774
REMARK  3 active torsions:
REMARK  status: ('A' for Active; 'I' for Inactive)
REMARK    1  A    between atoms: C_4  and  C_8
REMARK    2  A    between atoms: C_8  and  C_10
REMARK    3  A    between atoms: C_8  and  O_23
REMARK                            x       y       z     vdW  Elec       q    Type
REMARK                         _______ _______ _______ _____ _____    ______ ____
ROOT
ATOM      1  C   UNL     1       4.205  -0.957  -1.441  0.00  0.00    +0.001 A 
ATOM      2  C   UNL     1       3.845  -2.117  -2.100  0.00  0.00    +0.035 A 
ATOM      3  C   UNL     1       4.298  -2.348  -3.389  0.00  0.00    +0.067 A 
ATOM      4  C   UNL     1       5.117  -1.407  -4.018  0.00  0.00    +0.068 A 
ATOM      5  C   UNL     1       5.474  -0.246  -3.350  0.00  0.00    +0.043 A 
ATOM      6  C   UNL     1       5.013  -0.022  -2.066  0.00  0.00    +0.026 A 
ATOM      7 BR   UNL     1       5.493   1.565  -1.157  0.00  0.00    -0.050 Br
ATOM      8  N   UNL     1       5.406  -1.908  -5.285  0.00  0.00    -0.306 N 
ATOM      9  H   UNL     1       5.957  -1.474  -5.955  0.00  0.00    +0.170 HD
ATOM     10  C   UNL     1       4.791  -3.098  -5.421  0.00  0.00    +0.325 A 
ATOM     11  O   UNL     1       4.840  -3.803  -6.412  0.00  0.00    -0.247 OA
ATOM     12  N   UNL     1       4.115  -3.391  -4.294  0.00  0.00    -0.306 N 
ATOM     13  H   UNL     1       3.590  -4.191  -4.139  0.00  0.00    +0.170 HD
ENDROOT
BRANCH   1  14
ATOM     14  C   UNL     1       3.713  -0.706  -0.039  0.00  0.00    +0.177 C 
BRANCH  14  18
ATOM     15  C   UNL     1      -0.552  -0.426  -0.057  0.00  0.00    +0.039 A 
ATOM     16  C   UNL     1       0.216   0.697  -0.304  0.00  0.00    +0.018 A 
ATOM     17  C   UNL     1       1.596   0.606  -0.298  0.00  0.00    +0.024 A 
ATOM     18  C   UNL     1       2.209  -0.608  -0.045  0.00  0.00    +0.002 A 
ATOM     19  C   UNL     1       1.443  -1.731   0.203  0.00  0.00    +0.046 A 
ATOM     20  C   UNL     1       0.061  -1.641   0.197  0.00  0.00    +0.124 A 
ATOM     21  F   UNL     1      -0.689  -2.738   0.440  0.00  0.00    -0.205 F 
ATOM     22 BR   UNL     1       2.646   2.142  -0.638  0.00  0.00    -0.050 Br
ENDBRANCH  14  18
BRANCH  14  23
ATOM     23  O   UNL     1       4.117  -1.784   0.808  0.00  0.00    -0.382 OA
ATOM     24  H   UNL     1       3.776  -2.647   0.536  0.00  0.00    +0.211 HD
ENDBRANCH  14  23
ENDBRANCH   1  14
TORSDOF 3
