REMARK  Name = ZINC09913959
REMARK  7 active torsions:
REMARK  status: ('A' for Active; 'I' for Inactive)
REMARK    1  A    between atoms: C_1  and  C_2
REMARK    2  A    between atoms: C_2  and  C_26
REMARK    3  A    between atoms: N_5  and  C_9
REMARK    4  A    between atoms: C_9  and  N_62
REMARK    5  A    between atoms: N_12  and  S_15
REMARK    6  A    between atoms: S_15  and  C_18
REMARK    7  A    between atoms: C_23  and  C_24
REMARK                            x       y       z     vdW  Elec       q    Type
REMARK                         _______ _______ _______ _____ _____    ______ ____
ROOT
ATOM      1  C   UNL     1      -4.621   3.369  -2.756  0.00  0.00    +0.043 C 
ENDROOT
BRANCH   1   6
ATOM      2  C   UNL     1      -5.805   0.040  -5.852  0.00  0.00    +0.047 C 
ATOM      3  C   UNL     1      -6.365   1.377  -5.360  0.00  0.00    +0.135 C 
ATOM      4  C   UNL     1      -5.959   1.628  -3.922  0.00  0.00    +0.249 C 
ATOM      5  O   UNL     1      -6.240   0.955  -2.953  0.00  0.00    -0.272 OA
ATOM      6  N   UNL     1      -5.222   2.756  -3.943  0.00  0.00    -0.241 N 
ATOM      7  C   UNL     1      -5.111   3.249  -5.182  0.00  0.00    +0.308 C 
ATOM      8  O   UNL     1      -4.497   4.263  -5.453  0.00  0.00    -0.252 OA
ATOM      9  N   UNL     1      -5.752   2.497  -6.094  0.00  0.00    -0.281 N 
ATOM     10  H   UNL     1      -5.804   2.662  -7.049  0.00  0.00    +0.152 HD
BRANCH   3  11
ATOM     11  C   UNL     1      -7.865   1.408  -5.501  0.00  0.00    -0.015 A 
ATOM     12  C   UNL     1      -8.668   1.022  -4.444  0.00  0.00    +0.006 A 
ATOM     13  C   UNL     1     -10.043   1.057  -4.573  0.00  0.00    +0.004 A 
ATOM     14  C   UNL     1     -10.620   1.468  -5.763  0.00  0.00    -0.044 A 
ATOM     15  C   UNL     1      -9.818   1.850  -6.822  0.00  0.00    -0.044 A 
ATOM     16  C   UNL     1      -8.440   1.819  -6.688  0.00  0.00    +0.010 A 
ATOM     17  C   UNL     1     -10.680   2.253  -7.998  0.00  0.00    +0.036 C 
ATOM     18  C   UNL     1     -12.085   2.495  -7.406  0.00  0.00    +0.009 C 
ATOM     19  C   UNL     1     -12.077   1.589  -6.156  0.00  0.00    +0.036 C 
ENDBRANCH   3  11
ENDBRANCH   1   6
BRANCH   1  25
ATOM     20  C   UNL     1      -2.432   3.762  -1.800  0.00  0.00    -0.059 C 
ATOM     21  C   UNL     1      -0.993   3.236  -1.763  0.00  0.00    +0.091 C 
ATOM     22  N   UNL     1      -1.010   1.862  -1.239  0.00  0.00    -0.180 NA
ATOM     23  C   UNL     1      -1.928   0.893  -1.856  0.00  0.00    +0.091 C 
ATOM     24  C   UNL     1      -3.334   1.512  -1.885  0.00  0.00    -0.059 C 
ATOM     25  N   UNL     1      -3.262   2.817  -2.578  0.00  0.00    +0.392 N 
ATOM     26  H   UNL     1      -2.834   2.680  -3.501  0.00  0.00    -0.079 HD
BRANCH  22  27
ATOM     27  S   UNL     1      -0.017   1.417   0.010  0.00  0.00    +0.062 S 
ATOM     28  O   UNL     1       0.013  -0.004   0.017  0.00  0.00    -0.153 OA
ATOM     29  O   UNL     1       1.161   2.203  -0.107  0.00  0.00    -0.153 OA
BRANCH  27  30
ATOM     30  C   UNL     1      -0.807   1.912   1.505  0.00  0.00    +0.123 A 
ATOM     31  C   UNL     1      -0.258   2.914   2.278  0.00  0.00    +0.030 A 
ATOM     32  C   UNL     1      -0.879   3.307   3.450  0.00  0.00    +0.002 A 
ATOM     33  C   UNL     1      -2.048   2.692   3.861  0.00  0.00    +0.001 A 
ATOM     34  C   UNL     1      -2.605   1.684   3.101  0.00  0.00    +0.021 A 
ATOM     35  C   UNL     1      -1.986   1.286   1.914  0.00  0.00    +0.078 A 
BRANCH  35  36
ATOM     36  C   UNL     1      -2.558   0.241   1.120  0.00  0.00    +0.101 C 
ATOM     37  N   UNL     1      -3.012  -0.589   0.490  0.00  0.00    -0.191 NA
ENDBRANCH  35  36
ENDBRANCH  27  30
ENDBRANCH  22  27
ENDBRANCH   1  25
TORSDOF 6
