REMARK  Name = ZINC63374734
REMARK  6 active torsions:
REMARK  status: ('A' for Active; 'I' for Inactive)
REMARK    1  A    between atoms: C_1  and  O_2
REMARK    2  A    between atoms: O_2  and  C_3
REMARK    3  A    between atoms: C_8  and  C_9
REMARK    4  A    between atoms: C_9  and  N_10
REMARK    5  A    between atoms: C_15  and  C_32
REMARK    6  A    between atoms: C_32  and  C_33
REMARK                            x       y       z     vdW  Elec       q    Type
REMARK                         _______ _______ _______ _____ _____    ______ ____
ROOT
ATOM      1  N   UNL     1      -1.398  -2.912  -0.233  0.00  0.00    -0.237 N 
ATOM      2  C   UNL     1      -2.253  -2.027   0.292  0.00  0.00    +0.227 C 
ATOM      3  O   UNL     1      -1.945  -1.077   0.979  0.00  0.00    -0.275 OA
ATOM      4  C   UNL     1      -3.664  -2.395  -0.106  0.00  0.00    +0.107 C 
ATOM      5  C   UNL     1      -4.447  -2.846   1.145  0.00  0.00    +0.072 C 
ATOM      6  N   UNL     1      -4.160  -4.299   1.273  0.00  0.00    -0.295 NA
ATOM      7  C   UNL     1      -4.152  -4.788  -0.118  0.00  0.00    +0.136 C 
ATOM      8  C   UNL     1      -3.473  -3.680  -0.960  0.00  0.00    +0.122 C 
ATOM      9  C   UNL     1      -1.974  -3.877  -0.959  0.00  0.00    +0.229 C 
ATOM     10  O   UNL     1      -1.385  -4.772  -1.526  0.00  0.00    -0.275 OA
ATOM     11  C   UNL     1      -3.429  -6.099  -0.238  0.00  0.00    +0.003 A 
ATOM     12  C   UNL     1      -2.142  -6.502   0.042  0.00  0.00    +0.008 A 
ATOM     13  C   UNL     1      -1.764  -7.815  -0.179  0.00  0.00    +0.000 A 
ATOM     14  C   UNL     1      -2.680  -8.720  -0.681  0.00  0.00    +0.002 A 
ATOM     15  C   UNL     1      -3.970  -8.321  -0.964  0.00  0.00    +0.023 A 
ATOM     16  C   UNL     1      -4.359  -7.002  -0.746  0.00  0.00    +0.039 A 
ATOM     17  N   UNL     1      -5.586  -6.366  -0.952  0.00  0.00    -0.283 N 
ATOM     18  C   UNL     1      -5.547  -5.064  -0.609  0.00  0.00    +0.243 C 
ATOM     19  O   UNL     1      -6.460  -4.269  -0.681  0.00  0.00    -0.273 OA
ATOM     20  H   UNL     1      -3.266  -4.454   1.716  0.00  0.00    +0.124 HD
ATOM     21  H   UNL     1      -6.373  -6.811  -1.303  0.00  0.00    +0.155 HD
ENDROOT
BRANCH   1  22
ATOM     22  C   UNL     1       0.051  -2.828  -0.033  0.00  0.00    +0.155 C 
BRANCH  22  28
ATOM     23  C   UNL     1       0.606  -0.607  -1.056  0.00  0.00    +0.125 A 
ATOM     24  C   UNL     1       1.173   0.161  -2.063  0.00  0.00    +0.046 A 
ATOM     25  C   UNL     1       1.786  -0.455  -3.136  0.00  0.00    +0.004 A 
ATOM     26  C   UNL     1       1.836  -1.835  -3.208  0.00  0.00    +0.001 A 
ATOM     27  C   UNL     1       1.271  -2.602  -2.207  0.00  0.00    +0.009 A 
ATOM     28  C   UNL     1       0.661  -1.991  -1.128  0.00  0.00    +0.012 A 
BRANCH  23  30
ATOM     29  C   UNL     1      -0.017   1.425   0.010  0.00  0.00    +0.277 C 
ATOM     30  O   UNL     1       0.002  -0.004   0.002  0.00  0.00    -0.495 OA
ENDBRANCH  23  30
ENDBRANCH  22  28
ENDBRANCH   1  22
BRANCH   5  31
ATOM     31  C   UNL     1      -3.952  -2.093   2.382  0.00  0.00    +0.052 C 
BRANCH  31  32
ATOM     32  C   UNL     1      -4.809  -2.456   3.567  0.00  0.00    -0.040 C 
ATOM     33  C   UNL     1      -4.553  -3.406   4.495  0.00  0.00    -0.001 A 
ATOM     34  C   UNL     1      -3.443  -4.350   4.671  0.00  0.00    +0.010 A 
ATOM     35  C   UNL     1      -3.467  -5.202   5.722  0.00  0.00    +0.001 A 
ATOM     36  C   UNL     1      -4.522  -5.205   6.644  0.00  0.00    +0.002 A 
ATOM     37  C   UNL     1      -5.576  -4.367   6.549  0.00  0.00    +0.026 A 
ATOM     38  C   UNL     1      -5.655  -3.429   5.483  0.00  0.00    +0.043 A 
ATOM     39  N   UNL     1      -6.557  -2.528   5.178  0.00  0.00    -0.380 N 
ATOM     40  C   UNL     1      -6.126  -1.827   3.964  0.00  0.00    +0.144 C 
ATOM     41  H   UNL     1      -7.372  -2.352   5.675  0.00  0.00    +0.160 HD
ENDBRANCH  31  32
ENDBRANCH   5  31
TORSDOF 5
