REMARK  Name = ZINC36684930
REMARK  9 active torsions:
REMARK  status: ('A' for Active; 'I' for Inactive)
REMARK    1  A    between atoms: C_1  and  C_2
REMARK    2  A    between atoms: N_11  and  C_15
REMARK    3  A    between atoms: C_15  and  C_16
REMARK    4  A    between atoms: N_18  and  C_19
REMARK    5  A    between atoms: C_19  and  C_20
REMARK    6  A    between atoms: C_20  and  C_22
REMARK    7  A    between atoms: C_20  and  N_30
REMARK    8  A    between atoms: C_25  and  O_28
REMARK    9  A    between atoms: O_28  and  C_29
REMARK                            x       y       z     vdW  Elec       q    Type
REMARK                         _______ _______ _______ _____ _____    ______ ____
ROOT
ATOM      1  C   UNL     1       1.101   0.544   5.534  0.00  0.00    +0.231 C 
ATOM      2  O   UNL     1       1.644  -0.512   5.283  0.00  0.00    -0.274 OA
ATOM      3  N   UNL     1       0.962   0.942   6.814  0.00  0.00    -0.315 N 
ATOM      4  H   UNL     1       0.528   1.786   7.015  0.00  0.00    +0.149 HD
ENDROOT
BRANCH   1   5
ATOM      5  C   UNL     1       0.583   1.409   4.415  0.00  0.00    +0.213 C 
BRANCH   5  15
ATOM      6  C   UNL     1      -0.335   1.430   0.054  0.00  0.00    +0.010 C 
ATOM      7  C   UNL     1      -0.125  -0.085   0.029  0.00  0.00    +0.018 C 
ATOM      8  C   UNL     1       0.613  -0.476  -1.254  0.00  0.00    +0.006 C 
ATOM      9  C   UNL     1       0.840  -1.989  -1.269  0.00  0.00    +0.000 C 
ATOM     10  C   UNL     1       1.688  -2.392  -0.061  0.00  0.00    +0.003 C 
ATOM     11  C   UNL     1       0.955  -2.007   1.227  0.00  0.00    +0.035 C 
ATOM     12  C   UNL     1       0.702  -0.503   1.240  0.00  0.00    +0.115 C 
ATOM     13  C   UNL     1       0.009  -0.096   2.519  0.00  0.00    +0.247 C 
ATOM     14  O   UNL     1      -1.077  -0.461   2.914  0.00  0.00    -0.273 OA
ATOM     15  N   UNL     1       0.855   0.760   3.130  0.00  0.00    -0.215 N 
ATOM     16  C   UNL     1       1.972   0.943   2.416  0.00  0.00    +0.310 C 
ATOM     17  O   UNL     1       2.883   1.670   2.760  0.00  0.00    -0.252 OA
ATOM     18  N   UNL     1       1.973   0.231   1.272  0.00  0.00    -0.285 N 
ATOM     19  H   UNL     1       2.675   0.208   0.603  0.00  0.00    +0.151 HD
ENDBRANCH   5  15
ENDBRANCH   1   5
BRANCH   3  20
ATOM     20  C   UNL     1       1.466   0.101   7.902  0.00  0.00    +0.093 C 
BRANCH  20  21
ATOM     21  C   UNL     1       1.286   0.829   9.236  0.00  0.00    -0.020 C 
BRANCH  21  22
ATOM     22  N   UNL     1       1.877   0.027  10.315  0.00  0.00    +0.385 N 
ATOM     23  C   UNL     1       1.655   0.700  11.601  0.00  0.00    -0.078 C 
ATOM     24  C   UNL     1       2.197  -0.170  12.737  0.00  0.00    -0.019 C 
ATOM     25  C   UNL     1       3.697  -0.394  12.529  0.00  0.00    -0.004 C 
ATOM     26  C   UNL     1       3.924  -1.028  11.154  0.00  0.00    -0.019 C 
ATOM     27  C   UNL     1       3.317  -0.127  10.076  0.00  0.00    -0.078 C 
ATOM     28  H   UNL     1       1.442  -0.882  10.335  0.00  0.00    -0.081 HD
ENDBRANCH  21  22
BRANCH  21  29
ATOM     29  C   UNL     1      -0.183   1.029   9.505  0.00  0.00    -0.059 A 
ATOM     30  C   UNL     1      -0.939  -0.010  10.016  0.00  0.00    +0.005 A 
ATOM     31  C   UNL     1      -2.286   0.170  10.263  0.00  0.00    +0.046 A 
ATOM     32  C   UNL     1      -2.880   1.396   9.999  0.00  0.00    +0.120 A 
ATOM     33  C   UNL     1      -2.120   2.437   9.486  0.00  0.00    +0.046 A 
ATOM     34  C   UNL     1      -0.772   2.253   9.246  0.00  0.00    +0.005 A 
BRANCH  32  35
ATOM     35  O   UNL     1      -4.205   1.575  10.241  0.00  0.00    -0.495 OA
ATOM     36  C   UNL     1      -4.750   2.863   9.945  0.00  0.00    +0.277 C 
ENDBRANCH  32  35
ENDBRANCH  21  29
ENDBRANCH  20  21
ENDBRANCH   3  20
TORSDOF 7
