REMARK  Name = ZINC04783892
REMARK  7 active torsions:
REMARK  status: ('A' for Active; 'I' for Inactive)
REMARK    1  A    between atoms: C_1  and  C_2
REMARK    2  A    between atoms: C_6  and  C_7
REMARK    3  A    between atoms: C_16  and  C_20
REMARK    4  A    between atoms: C_20  and  C_21
REMARK    5  A    between atoms: C_20  and  C_22
REMARK    6  A    between atoms: C_20  and  C_23
REMARK    7  A    between atoms: C_24  and  O_26
REMARK                            x       y       z     vdW  Elec       q    Type
REMARK                         _______ _______ _______ _____ _____    ______ ____
ROOT
ATOM      1  C   UNL     1       0.033  -0.393   2.650  0.00  0.00    +0.231 C 
ATOM      2  N   UNL     1      -0.472  -1.514   3.463  0.00  0.00    -0.313 N 
ATOM      3  C   UNL     1      -1.840  -1.625   3.567  0.00  0.00    +0.080 A 
ATOM      4  C   UNL     1      -2.686  -0.521   3.405  0.00  0.00    +0.068 A 
ATOM      5  C   UNL     1      -4.106  -0.793   3.531  0.00  0.00    -0.023 A 
ATOM      6  C   UNL     1      -4.409  -2.085   3.796  0.00  0.00    -0.004 A 
ATOM      7  S   UNL     1      -2.842  -2.909   3.874  0.00  0.00    -0.078 S 
ATOM      8  C   UNL     1      -5.774  -2.670   3.981  0.00  0.00    +0.046 C 
ATOM      9  C   UNL     1      -6.768  -1.520   4.196  0.00  0.00    -0.000 C 
ATOM     10  C   UNL     1      -6.529  -0.453   3.125  0.00  0.00    +0.009 C 
ATOM     11  C   UNL     1      -5.198   0.257   3.383  0.00  0.00    +0.037 C 
ATOM     12  C   UNL     1      -2.051   0.795   3.134  0.00  0.00    +0.220 C 
ATOM     13  N   UNL     1      -0.786   0.801   2.817  0.00  0.00    -0.222 NA
ATOM     14  H   UNL     1       0.127  -2.140   3.899  0.00  0.00    +0.149 HD
ENDROOT
BRANCH   1  20
ATOM     15  C   UNL     1       2.486  -0.822   0.851  0.00  0.00    +0.045 C 
ATOM     16  C   UNL     1       1.071  -0.998   0.361  0.00  0.00    -0.037 A 
ATOM     17  C   UNL     1       0.823  -1.373  -0.946  0.00  0.00    +0.011 A 
ATOM     18  C   UNL     1      -0.461  -1.522  -1.354  0.00  0.00    +0.046 A 
ATOM     19  S   UNL     1      -1.369  -1.127   0.131  0.00  0.00    -0.098 S 
ATOM     20  C   UNL     1       0.024  -0.795   1.197  0.00  0.00    +0.035 A 
ENDBRANCH   1  20
BRANCH   9  21
ATOM     21  C   UNL     1      -8.198  -2.051   4.085  0.00  0.00    -0.035 C 
ATOM     22  C   UNL     1      -8.427  -3.127   5.148  0.00  0.00    +0.011 C 
ATOM     23  C   UNL     1      -9.187  -0.904   4.299  0.00  0.00    +0.011 C 
ATOM     24  C   UNL     1      -8.411  -2.655   2.695  0.00  0.00    +0.011 C 
ENDBRANCH   9  21
BRANCH  12  25
ATOM     25  O   UNL     1      -2.760   1.944   3.212  0.00  0.00    -0.492 OA
ATOM     26  H   UNL     1      -2.245   2.739   3.015  0.00  0.00    +0.294 HD
ENDBRANCH  12  25
TORSDOF 3
