REMARK  Name = ZINC16050298
REMARK  11 active torsions:
REMARK  status: ('A' for Active; 'I' for Inactive)
REMARK    1  A    between atoms: C_1  and  C_2
REMARK    2  A    between atoms: C_2  and  C_4
REMARK    3  A    between atoms: C_2  and  N_67
REMARK    4  A    between atoms: C_7  and  S_16
REMARK    5  A    between atoms: N_8  and  C_9
REMARK    6  A    between atoms: C_9  and  C_10
REMARK    7  A    between atoms: S_16  and  C_17
REMARK    8  A    between atoms: C_17  and  C_18
REMARK    9  A    between atoms: N_20  and  C_21
REMARK   10  A    between atoms: C_31  and  N_67
REMARK   11  A    between atoms: C_32  and  N_67
REMARK                            x       y       z     vdW  Elec       q    Type
REMARK                         _______ _______ _______ _____ _____    ______ ____
ROOT
ATOM      1  C   UNL     1      -0.582  -2.103  -0.004  0.00  0.00    +0.120 A 
ATOM      2  N   UNL     1       0.717  -2.007  -0.017  0.00  0.00    -0.135 NA
ATOM      3  N   UNL     1       1.068  -0.770  -0.018  0.00  0.00    -0.123 NA
ATOM      4  C   UNL     1       0.002  -0.004   0.002  0.00  0.00    +0.192 A 
ATOM      5  N   UNL     1      -1.085  -0.831   0.008  0.00  0.00    -0.303 N 
ENDROOT
BRANCH   1   7
ATOM      6  C   UNL     1      -1.352  -4.002  -1.401  0.00  0.00    -0.005 C 
ATOM      7  C   UNL     1      -1.383  -3.379  -0.004  0.00  0.00    -0.003 C 
BRANCH   7  10
ATOM      8  C   UNL     1      -1.628  -5.531   1.079  0.00  0.00    -0.096 C 
ATOM      9  C   UNL     1       0.580  -4.657   0.607  0.00  0.00    -0.096 C 
ATOM     10  N   UNL     1      -0.804  -4.308   0.990  0.00  0.00    +0.382 N 
ATOM     11  H   UNL     1      -0.790  -3.847   1.907  0.00  0.00    -0.082 HD
ENDBRANCH   7  10
ENDBRANCH   1   7
BRANCH   5  12
ATOM     12  C   UNL     1      -2.495  -0.437   0.024  0.00  0.00    +0.160 C 
BRANCH  12  13
ATOM     13  C   UNL     1      -2.994  -0.294  -1.391  0.00  0.00    -0.028 A 
ATOM     14  C   UNL     1      -2.905   0.926  -2.035  0.00  0.00    +0.005 A 
ATOM     15  C   UNL     1      -3.358   1.056  -3.335  0.00  0.00    +0.000 A 
ATOM     16  C   UNL     1      -3.908  -0.032  -3.987  0.00  0.00    +0.000 A 
ATOM     17  C   UNL     1      -4.001  -1.251  -3.341  0.00  0.00    +0.000 A 
ATOM     18  C   UNL     1      -3.544  -1.382  -2.043  0.00  0.00    +0.005 A 
ENDBRANCH  12  13
ENDBRANCH   5  12
BRANCH   4  19
ATOM     19  S   UNL     1      -0.022   1.758   0.012  0.00  0.00    -0.077 S 
BRANCH  19  20
ATOM     20  C   UNL     1       1.756   2.096  -0.004  0.00  0.00    +0.173 C 
BRANCH  20  21
ATOM     21  C   UNL     1       1.984   3.586   0.002  0.00  0.00    +0.224 C 
ATOM     22  O   UNL     1       1.037   4.344   0.015  0.00  0.00    -0.275 OA
ATOM     23  N   UNL     1       3.240   4.076  -0.007  0.00  0.00    -0.309 N 
ATOM     24  H   UNL     1       3.997   3.469  -0.018  0.00  0.00    +0.149 HD
BRANCH  23  25
ATOM     25  C   UNL     1       3.461   5.524  -0.001  0.00  0.00    +0.035 C 
ATOM     26  C   UNL     1       2.813   6.144  -1.241  0.00  0.00    +0.029 C 
ATOM     27  C   UNL     1       3.045   7.656  -1.235  0.00  0.00    -0.008 C 
ATOM     28  C   UNL     1       4.547   7.942  -1.248  0.00  0.00    +0.007 C 
ATOM     29  C   UNL     1       5.195   7.322  -0.008  0.00  0.00    -0.008 C 
ATOM     30  C   UNL     1       4.964   5.810  -0.014  0.00  0.00    +0.029 C 
ATOM     31  C   UNL     1       4.571   7.929   1.250  0.00  0.00    +0.007 C 
ATOM     32  C   UNL     1       3.068   7.643   1.263  0.00  0.00    -0.008 C 
ATOM     33  C   UNL     1       2.421   8.262   0.023  0.00  0.00    +0.007 C 
ATOM     34  C   UNL     1       2.837   6.130   1.257  0.00  0.00    +0.029 C 
ENDBRANCH  23  25
ENDBRANCH  20  21
ENDBRANCH  19  20
ENDBRANCH   4  19
TORSDOF 8
