REMARK  Name = ZINC28056763
REMARK  5 active torsions:
REMARK  status: ('A' for Active; 'I' for Inactive)
REMARK    1  A    between atoms: C_1  and  C_2
REMARK    2  A    between atoms: C_10  and  C_18
REMARK    3  A    between atoms: C_22  and  O_24
REMARK    4  A    between atoms: O_24  and  C_25
REMARK    5  A    between atoms: C_26  and  C_29
REMARK                            x       y       z     vdW  Elec       q    Type
REMARK                         _______ _______ _______ _____ _____    ______ ____
ROOT
ATOM      1  C   UNL     1       2.648   3.337  -0.077  0.00  0.00    +0.044 C 
ATOM      2  C   UNL     1       1.279   2.706  -0.047  0.00  0.00    -0.050 A 
ATOM      3  C   UNL     1       1.156   1.328  -0.028  0.00  0.00    +0.007 A 
ATOM      4  C   UNL     1      -0.093   0.734  -0.000  0.00  0.00    +0.046 A 
ATOM      5  C   UNL     1      -1.228   1.524   0.003  0.00  0.00    +0.131 A 
ATOM      6  C   UNL     1      -1.105   2.919  -0.012  0.00  0.00    +0.038 A 
ATOM      7  C   UNL     1       0.153   3.507  -0.040  0.00  0.00    +0.016 A 
ATOM      8  C   UNL     1      -2.343   3.735  -0.004  0.00  0.00    +0.050 C 
ATOM      9  C   UNL     1      -3.487   3.151   0.357  0.00  0.00    +0.026 C 
ATOM     10  C   UNL     1      -4.802   3.890   0.372  0.00  0.00    +0.174 C 
ATOM     11  N   UNL     1      -4.572   5.324   0.261  0.00  0.00    -0.201 N 
ATOM     12  C   UNL     1      -3.381   5.874  -0.094  0.00  0.00    +0.240 A 
ATOM     13  N   UNL     1      -3.537   7.167  -0.100  0.00  0.00    -0.092 NA
ATOM     14  N   UNL     1      -4.745   7.472   0.232  0.00  0.00    -0.021 NA
ATOM     15  N   UNL     1      -5.433   6.401   0.467  0.00  0.00    -0.042 NA
ATOM     16  N   UNL     1      -2.275   5.086  -0.367  0.00  0.00    -0.282 N 
ATOM     17  C   UNL     1      -3.474   1.694   0.761  0.00  0.00    +0.237 C 
ATOM     18  O   UNL     1      -2.471   0.981   0.040  0.00  0.00    -0.479 OA
ATOM     19  H   UNL     1      -1.369   5.481  -0.849  0.00  0.00    +0.155 HD
ENDROOT
BRANCH  17  20
ATOM     20  C   UNL     1      -3.191   1.591   2.238  0.00  0.00    +0.032 A 
ATOM     21  C   UNL     1      -1.896   1.399   2.682  0.00  0.00    +0.010 A 
ATOM     22  C   UNL     1      -1.635   1.305   4.036  0.00  0.00    +0.001 A 
ATOM     23  C   UNL     1      -2.669   1.404   4.948  0.00  0.00    +0.003 A 
ATOM     24  C   UNL     1      -3.965   1.597   4.507  0.00  0.00    +0.039 A 
ATOM     25  C   UNL     1      -4.226   1.695   3.151  0.00  0.00    +0.130 A 
ATOM     26  F   UNL     1      -5.492   1.889   2.719  0.00  0.00    -0.205 F 
ENDBRANCH  17  20
BRANCH  10  27
ATOM     27  C   UNL     1      -5.647   3.431  -0.787  0.00  0.00    -0.015 A 
ATOM     28  C   UNL     1      -5.188   3.589  -2.082  0.00  0.00    +0.006 A 
ATOM     29  C   UNL     1      -5.961   3.168  -3.148  0.00  0.00    +0.004 A 
ATOM     30  C   UNL     1      -7.195   2.588  -2.922  0.00  0.00    +0.045 A 
ATOM     31  C   UNL     1      -7.657   2.429  -1.624  0.00  0.00    +0.120 A 
ATOM     32  C   UNL     1      -6.878   2.847  -0.556  0.00  0.00    +0.051 A 
BRANCH  31  33
ATOM     33  O   UNL     1      -8.870   1.858  -1.399  0.00  0.00    -0.495 OA
ATOM     34  C   UNL     1      -9.616   1.445  -2.546  0.00  0.00    +0.277 C 
ENDBRANCH  31  33
ENDBRANCH  10  27
TORSDOF 3
