REMARK  Name = ZINC14625362
REMARK  11 active torsions:
REMARK  status: ('A' for Active; 'I' for Inactive)
REMARK    1  A    between atoms: C_1  and  C_2
REMARK    2  A    between atoms: C_2  and  C_3
REMARK    3  A    between atoms: C_3  and  C_4
REMARK    4  A    between atoms: C_4  and  N_5
REMARK    5  A    between atoms: C_6  and  N_36
REMARK    6  A    between atoms: C_7  and  N_14
REMARK    7  A    between atoms: N_14  and  C_15
REMARK    8  A    between atoms: C_15  and  C_16
REMARK    9  A    between atoms: C_22  and  C_24
REMARK   10  A    between atoms: C_25  and  C_26
REMARK   11  A    between atoms: C_30  and  C_32
REMARK                            x       y       z     vdW  Elec       q    Type
REMARK                         _______ _______ _______ _____ _____    ______ ____
ROOT
ATOM      1  N   UNL     1      -2.390   8.092   0.053  0.00  0.00    -0.256 N 
ATOM      2  C   UNL     1      -1.171   7.610  -0.262  0.00  0.00    +0.244 C 
ATOM      3  O   UNL     1      -0.249   8.377  -0.470  0.00  0.00    -0.270 OA
ENDROOT
BRANCH   1   6
ATOM      4  N   UNL     1      -2.140  11.489   1.429  0.00  0.00    -0.280 N 
ATOM      5  C   UNL     1      -1.941  10.137   1.274  0.00  0.00    +0.127 A 
ATOM      6  C   UNL     1      -2.573   9.478   0.239  0.00  0.00    +0.140 A 
ATOM      7  C   UNL     1      -3.400  10.214  -0.631  0.00  0.00    +0.277 A 
ATOM      8  O   UNL     1      -3.967   9.658  -1.556  0.00  0.00    -0.266 OA
ATOM      9  N   UNL     1      -3.565  11.536  -0.431  0.00  0.00    -0.273 N 
ATOM     10  H   UNL     1      -4.159  12.059  -1.043  0.00  0.00    +0.173 HD
ATOM     11  C   UNL     1      -2.941  12.162   0.583  0.00  0.00    +0.331 A 
ATOM     12  O   UNL     1      -3.103  13.357   0.738  0.00  0.00    -0.246 OA
BRANCH   5  13
ATOM     13  N   UNL     1      -1.123   9.451   2.138  0.00  0.00    -0.343 N 
ATOM     14  H   UNL     1      -1.061   8.484   2.084  0.00  0.00    +0.144 HD
ATOM     15  H   UNL     1      -0.606   9.933   2.803  0.00  0.00    +0.144 HD
ENDBRANCH   5  13
BRANCH   4  16
ATOM     16  C   UNL     1      -1.475  12.202   2.523  0.00  0.00    +0.128 C 
BRANCH  16  17
ATOM     17  C   UNL     1      -0.115  12.715   2.045  0.00  0.00    +0.021 C 
BRANCH  17  19
ATOM     18  C   UNL     1       1.940  13.972   2.710  0.00  0.00    +0.004 C 
ATOM     19  C   UNL     1       0.580  13.459   3.188  0.00  0.00    -0.002 C 
ENDBRANCH  17  19
ENDBRANCH  16  17
ENDBRANCH   4  16
ENDBRANCH   1   6
BRANCH   2  20
ATOM     20  C   UNL     1      -0.957   6.165  -0.353  0.00  0.00    +0.068 C 
ATOM     21  C   UNL     1       0.262   5.683  -0.667  0.00  0.00    +0.013 C 
BRANCH  21  22
ATOM     22  C   UNL     1       0.477   4.229  -0.759  0.00  0.00    -0.024 A 
ATOM     23  C   UNL     1      -0.580   3.345  -0.519  0.00  0.00    +0.008 A 
ATOM     24  C   UNL     1      -0.371   1.986  -0.611  0.00  0.00    +0.001 A 
ATOM     25  C   UNL     1       0.883   1.494  -0.930  0.00  0.00    +0.012 A 
ATOM     26  C   UNL     1       1.934   2.362  -1.168  0.00  0.00    +0.055 A 
ATOM     27  C   UNL     1       1.740   3.725  -1.085  0.00  0.00    +0.020 A 
BRANCH  26  28
ATOM     28  C   UNL     1       3.294   1.817  -1.519  0.00  0.00    +0.417 C 
ATOM     29  F   UNL     1       3.244   0.419  -1.542  0.00  0.00    -0.166 F 
ATOM     30  F   UNL     1       3.676   2.291  -2.779  0.00  0.00    -0.166 F 
ATOM     31  F   UNL     1       4.225   2.234  -0.562  0.00  0.00    -0.166 F 
ENDBRANCH  26  28
ENDBRANCH  21  22
ENDBRANCH   2  20
BRANCH   1  32
ATOM     32  C   UNL     1      -3.524   7.177   0.202  0.00  0.00    +0.149 C 
BRANCH  32  33
ATOM     33  C   UNL     1      -3.699   6.826   1.657  0.00  0.00    -0.030 A 
ATOM     34  C   UNL     1      -2.979   5.783   2.208  0.00  0.00    +0.005 A 
ATOM     35  C   UNL     1      -3.135   5.464   3.544  0.00  0.00    +0.000 A 
ATOM     36  C   UNL     1      -4.020   6.183   4.327  0.00  0.00    +0.000 A 
ATOM     37  C   UNL     1      -4.744   7.223   3.774  0.00  0.00    +0.000 A 
ATOM     38  C   UNL     1      -4.583   7.545   2.440  0.00  0.00    +0.005 A 
ENDBRANCH  32  33
ENDBRANCH   1  32
TORSDOF 10
