REMARK  Name = ZINC41584312
REMARK  13 active torsions:
REMARK  status: ('A' for Active; 'I' for Inactive)
REMARK    1  A    between atoms: C_1  and  C_2
REMARK    2  A    between atoms: C_4  and  O_28
REMARK    3  A    between atoms: C_5  and  C_18
REMARK    4  A    between atoms: C_11  and  C_12
REMARK    5  A    between atoms: C_18  and  N_19
REMARK    6  A    between atoms: N_19  and  C_20
REMARK    7  A    between atoms: N_19  and  C_24
REMARK    8  A    between atoms: C_20  and  C_21
REMARK    9  A    between atoms: C_21  and  O_22
REMARK   10  A    between atoms: O_22  and  C_23
REMARK   11  A    between atoms: C_24  and  C_25
REMARK   12  A    between atoms: C_25  and  O_26
REMARK   13  A    between atoms: O_26  and  C_27
REMARK                            x       y       z     vdW  Elec       q    Type
REMARK                         _______ _______ _______ _____ _____    ______ ____
ROOT
ATOM      1  C   UNL     1       1.135   2.083   2.045  0.00  0.00    +0.045 C 
ATOM      2  C   UNL     1       0.798   0.667   1.652  0.00  0.00    -0.033 A 
ATOM      3  C   UNL     1       1.013   0.242   0.370  0.00  0.00    +0.050 A 
ATOM      4  C   UNL     1       0.703  -1.064   0.004  0.00  0.00    +0.125 A 
ATOM      5  C   UNL     1       0.175  -1.949   0.931  0.00  0.00    +0.051 A 
ATOM      6  C   UNL     1      -0.049  -1.533   2.236  0.00  0.00    +0.148 A 
ATOM      7  C   UNL     1       0.272  -0.214   2.596  0.00  0.00    +0.071 A 
ATOM      8  C   UNL     1      -0.069  -0.086   4.024  0.00  0.00    +0.232 C 
ATOM      9  O   UNL     1       0.051   0.902   4.729  0.00  0.00    -0.283 OA
ATOM     10  C   UNL     1      -0.567  -1.363   4.402  0.00  0.00    +0.179 C 
ATOM     11  C   UNL     1      -1.006  -1.709   5.646  0.00  0.00    +0.096 C 
ATOM     12  O   UNL     1      -0.543  -2.172   3.318  0.00  0.00    -0.451 OA
ENDROOT
BRANCH  11  13
ATOM     13  C   UNL     1      -1.151  -0.721   6.646  0.00  0.00    +0.131 A 
ATOM     14  C   UNL     1      -1.683  -0.910   7.907  0.00  0.00    +0.049 A 
ATOM     15  C   UNL     1      -1.629   0.334   8.552  0.00  0.00    +0.042 A 
ATOM     16  C   UNL     1      -1.080   1.213   7.683  0.00  0.00    +0.195 A 
ATOM     17  O   UNL     1      -0.790   0.575   6.540  0.00  0.00    -0.463 OA
ENDBRANCH  11  13
BRANCH   4  18
ATOM     18  O   UNL     1       0.921  -1.475  -1.271  0.00  0.00    -0.506 OA
ATOM     19  H   UNL     1       1.826  -1.769  -1.441  0.00  0.00    +0.292 HD
ENDBRANCH   4  18
BRANCH   5  20
ATOM     20  C   UNL     1      -0.157  -3.361   0.521  0.00  0.00    +0.127 C 
BRANCH  20  21
ATOM     21  N   UNL     1       0.942  -4.255   0.910  0.00  0.00    -0.294 NA
BRANCH  21  22
ATOM     22  C   UNL     1       0.502  -5.656   0.922  0.00  0.00    +0.113 C 
BRANCH  22  23
ATOM     23  C   UNL     1       1.541  -6.511   1.651  0.00  0.00    +0.174 C 
BRANCH  23  24
ATOM     24  O   UNL     1       1.601  -6.118   3.024  0.00  0.00    -0.382 OA
ATOM     25  C   UNL     1       2.623  -6.779   3.773  0.00  0.00    +0.194 C 
ENDBRANCH  23  24
ENDBRANCH  22  23
ENDBRANCH  21  22
BRANCH  21  26
ATOM     26  C   UNL     1       2.103  -4.075   0.028  0.00  0.00    +0.113 C 
BRANCH  26  27
ATOM     27  C   UNL     1       1.774  -4.614  -1.366  0.00  0.00    +0.174 C 
BRANCH  27  28
ATOM     28  O   UNL     1       0.773  -3.791  -1.970  0.00  0.00    -0.382 OA
ATOM     29  C   UNL     1       0.471  -4.141  -3.322  0.00  0.00    +0.194 C 
ENDBRANCH  27  28
ENDBRANCH  26  27
ENDBRANCH  21  26
ENDBRANCH  20  21
ENDBRANCH   5  20
TORSDOF 10
