REMARK  Name = ZINC13417291
REMARK  16 active torsions:
REMARK  status: ('A' for Active; 'I' for Inactive)
REMARK    1  A    between atoms: C_1  and  C_2
REMARK    2  A    between atoms: C_2  and  C_3
REMARK    3  A    between atoms: C_2  and  C_4
REMARK    4  A    between atoms: C_4  and  N_5
REMARK    5  A    between atoms: C_6  and  N_33
REMARK    6  A    between atoms: C_7  and  N_14
REMARK    7  A    between atoms: N_14  and  C_15
REMARK    8  A    between atoms: C_15  and  C_16
REMARK    9  A    between atoms: C_16  and  C_17
REMARK   10  A    between atoms: C_17  and  O_18
REMARK   11  A    between atoms: O_18  and  C_19
REMARK   12  A    between atoms: C_20  and  C_22
REMARK   13  A    between atoms: C_23  and  C_24
REMARK   14  A    between atoms: C_27  and  C_29
REMARK   15  A    between atoms: C_29  and  C_30
REMARK   16  A    between atoms: C_30  and  C_31
REMARK                            x       y       z     vdW  Elec       q    Type
REMARK                         _______ _______ _______ _____ _____    ______ ____
ROOT
ATOM      1  N   UNL     1       0.393  -2.601   2.427  0.00  0.00    -0.261 N 
ATOM      2  C   UNL     1       0.432  -2.017   3.641  0.00  0.00    +0.244 C 
ATOM      3  O   UNL     1       0.179  -0.831   3.755  0.00  0.00    -0.270 OA
ENDROOT
BRANCH   1   6
ATOM      4  N   UNL     1      -1.159  -1.200  -0.595  0.00  0.00    -0.280 N 
ATOM      5  C   UNL     1      -0.973  -1.979   0.524  0.00  0.00    +0.127 A 
ATOM      6  C   UNL     1       0.173  -1.817   1.275  0.00  0.00    +0.140 A 
ATOM      7  C   UNL     1       1.119  -0.856   0.871  0.00  0.00    +0.277 A 
ATOM      8  O   UNL     1       2.141  -0.692   1.516  0.00  0.00    -0.266 OA
ATOM      9  N   UNL     1       0.888  -0.119  -0.233  0.00  0.00    -0.273 N 
ATOM     10  H   UNL     1       1.558   0.567  -0.518  0.00  0.00    +0.173 HD
ATOM     11  C   UNL     1      -0.232  -0.294  -0.955  0.00  0.00    +0.331 A 
ATOM     12  O   UNL     1      -0.413   0.381  -1.950  0.00  0.00    -0.246 OA
BRANCH   5  13
ATOM     13  N   UNL     1      -1.918  -2.908   0.889  0.00  0.00    -0.343 N 
ATOM     14  H   UNL     1      -2.752  -2.970   0.398  0.00  0.00    +0.144 HD
ATOM     15  H   UNL     1      -1.751  -3.502   1.638  0.00  0.00    +0.144 HD
ENDBRANCH   5  13
BRANCH   4  16
ATOM     16  C   UNL     1      -2.372  -1.361  -1.401  0.00  0.00    +0.131 C 
BRANCH  16  18
ATOM     17  C   UNL     1      -4.684  -0.500  -1.794  0.00  0.00    +0.009 C 
ATOM     18  C   UNL     1      -3.461  -0.423  -0.877  0.00  0.00    +0.003 C 
ATOM     19  C   UNL     1      -3.858  -0.843   0.539  0.00  0.00    +0.009 C 
ENDBRANCH  16  18
ENDBRANCH   4  16
ENDBRANCH   1   6
BRANCH   2  20
ATOM     20  C   UNL     1       0.768  -2.783   4.784  0.00  0.00    +0.071 C 
ATOM     21  C   UNL     1       0.807  -2.196   6.005  0.00  0.00    +0.051 C 
BRANCH  21  22
ATOM     22  C   UNL     1       1.143  -2.962   7.148  0.00  0.00    +0.128 A 
ATOM     23  C   UNL     1       1.226  -2.495   8.444  0.00  0.00    +0.049 A 
ATOM     24  C   UNL     1       1.584  -3.592   9.241  0.00  0.00    +0.045 A 
ATOM     25  C   UNL     1       1.710  -4.659   8.421  0.00  0.00    +0.106 A 
ATOM     26  O   UNL     1       1.445  -4.277   7.164  0.00  0.00    -0.460 OA
BRANCH  25  27
ATOM     27  C   UNL     1       2.089  -6.053   8.850  0.00  0.00    +0.085 C 
BRANCH  27  28
ATOM     28  C   UNL     1       0.823  -6.842   9.192  0.00  0.00    +0.133 C 
BRANCH  28  29
ATOM     29  C   UNL     1       1.201  -8.236   9.622  0.00  0.00    +0.356 C 
ATOM     30  O   UNL     1       2.364  -8.565   9.650  0.00  0.00    -0.246 OA
ATOM     31  O   UNL     1       0.247  -9.113   9.972  0.00  0.00    -0.246 OA
ENDBRANCH  28  29
ENDBRANCH  27  28
ENDBRANCH  25  27
ENDBRANCH  21  22
ENDBRANCH   2  20
BRANCH   1  32
ATOM     32  C   UNL     1       0.579  -4.049   2.303  0.00  0.00    +0.116 C 
BRANCH  32  33
ATOM     33  C   UNL     1       2.049  -4.351   2.008  0.00  0.00    +0.047 C 
BRANCH  33  34
ATOM     34  C   UNL     1       2.243  -5.863   1.879  0.00  0.00    +0.161 C 
BRANCH  34  35
ATOM     35  O   UNL     1       3.617  -6.145   1.603  0.00  0.00    -0.383 OA
ATOM     36  C   UNL     1       3.907  -7.537   1.463  0.00  0.00    +0.193 C 
ENDBRANCH  34  35
ENDBRANCH  33  34
ENDBRANCH  32  33
ENDBRANCH   1  32
TORSDOF 13
