REMARK  Name = ZINC45063672
REMARK  5 active torsions:
REMARK  status: ('A' for Active; 'I' for Inactive)
REMARK    1  A    between atoms: C_6  and  N_7
REMARK    2  A    between atoms: C_10  and  C_12
REMARK    3  A    between atoms: N_14  and  C_15
REMARK    4  A    between atoms: C_15  and  C_16
REMARK    5  A    between atoms: C_15  and  C_19
REMARK                            x       y       z     vdW  Elec       q    Type
REMARK                         _______ _______ _______ _____ _____    ______ ____
ROOT
ATOM      1  N   UNL     1      -3.347  -0.506  -2.458  0.00  0.00    -0.236 N 
ATOM      2  C   UNL     1      -3.930  -1.618  -2.983  0.00  0.00    +0.049 A 
ATOM      3  C   UNL     1      -4.877  -2.018  -2.108  0.00  0.00    +0.006 A 
ATOM      4  C   UNL     1      -4.830  -1.093  -1.039  0.00  0.00    +0.151 A 
ATOM      5  N   UNL     1      -3.882  -0.221  -1.325  0.00  0.00    -0.161 NA
ATOM      6  C   UNL     1      -5.578  -3.255  -2.616  0.00  0.00    +0.040 C 
ATOM      7  C   UNL     1      -5.231  -3.321  -4.120  0.00  0.00    +0.011 C 
ATOM      8  C   UNL     1      -3.895  -2.547  -4.175  0.00  0.00    +0.056 C 
ENDROOT
BRANCH   1  14
ATOM      9  C   UNL     1      -2.254   1.599  -2.919  0.00  0.00    +0.031 A 
ATOM     10  C   UNL     1      -1.232   2.314  -3.514  0.00  0.00    +0.043 A 
ATOM     11  C   UNL     1      -0.266   1.655  -4.255  0.00  0.00    +0.159 A 
ATOM     12  C   UNL     1      -0.321   0.277  -4.401  0.00  0.00    +0.160 A 
ATOM     13  C   UNL     1      -1.342  -0.441  -3.805  0.00  0.00    +0.069 A 
ATOM     14  C   UNL     1      -2.312   0.220  -3.062  0.00  0.00    +0.069 A 
ATOM     15  F   UNL     1       0.623  -0.364  -5.125  0.00  0.00    -0.202 F 
ATOM     16  F   UNL     1       0.732   2.356  -4.837  0.00  0.00    -0.202 F 
ENDBRANCH   1  14
BRANCH   4  17
ATOM     17  C   UNL     1      -5.677  -1.104   0.170  0.00  0.00    +0.265 C 
ATOM     18  O   UNL     1      -6.517  -1.971   0.316  0.00  0.00    -0.268 OA
ATOM     19  N   UNL     1      -5.519  -0.153   1.112  0.00  0.00    -0.291 N 
ATOM     20  H   UNL     1      -4.850   0.539   0.995  0.00  0.00    +0.150 HD
BRANCH  19  21
ATOM     21  C   UNL     1      -6.360  -0.164   2.311  0.00  0.00    +0.245 C 
BRANCH  21  22
ATOM     22  C   UNL     1      -5.753  -1.081   3.342  0.00  0.00    +0.240 C 
ATOM     23  O   UNL     1      -4.560  -1.295   3.335  0.00  0.00    -0.273 OA
ATOM     24  N   UNL     1      -6.537  -1.663   4.271  0.00  0.00    -0.327 N 
ATOM     25  H   UNL     1      -7.500  -1.550   4.233  0.00  0.00    +0.145 HD
ATOM     26  H   UNL     1      -6.139  -2.195   4.977  0.00  0.00    +0.145 HD
ENDBRANCH  21  22
BRANCH  21  27
ATOM     27  C   UNL     1      -6.453   1.232   2.873  0.00  0.00    +0.240 C 
ATOM     28  O   UNL     1      -5.581   2.041   2.633  0.00  0.00    -0.273 OA
ATOM     29  N   UNL     1      -7.503   1.581   3.641  0.00  0.00    -0.327 N 
ATOM     30  H   UNL     1      -8.235   0.958   3.775  0.00  0.00    +0.145 HD
ATOM     31  H   UNL     1      -7.528   2.455   4.061  0.00  0.00    +0.145 HD
ENDBRANCH  21  27
ENDBRANCH  19  21
ENDBRANCH   4  17
TORSDOF 5
