REMARK  Name = ZINC46767393
REMARK  8 active torsions:
REMARK  status: ('A' for Active; 'I' for Inactive)
REMARK    1  A    between atoms: C_1  and  C_2
REMARK    2  A    between atoms: C_5  and  N_9
REMARK    3  A    between atoms: C_6  and  C_8
REMARK    4  A    between atoms: C_10  and  C_12
REMARK    5  A    between atoms: C_12  and  C_14
REMARK    6  A    between atoms: C_12  and  O_15
REMARK    7  A    between atoms: O_15  and  C_16
REMARK    8  A    between atoms: C_16  and  C_18
REMARK                            x       y       z     vdW  Elec       q    Type
REMARK                         _______ _______ _______ _____ _____    ______ ____
ROOT
ATOM      1  C   UNL     1      -0.134  -6.343  -1.187  0.00  0.00    +0.259 C 
ATOM      2  C   UNL     1      -1.439  -6.773  -0.514  0.00  0.00    +0.062 C 
ENDROOT
BRANCH   1   4
ATOM      3  N   UNL     1       0.059  -4.170  -0.021  0.00  0.00    -0.282 N 
ATOM      4  C   UNL     1      -0.040  -4.839  -1.187  0.00  0.00    +0.258 C 
ATOM      5  O   UNL     1      -0.054  -4.230  -2.236  0.00  0.00    -0.271 OA
ATOM      6  H   UNL     1       0.135  -4.658   0.814  0.00  0.00    +0.155 HD
BRANCH   3  11
ATOM      7  C   UNL     1       0.025   1.503   0.005  0.00  0.00    +0.044 C 
ATOM      8  C   UNL     1       0.034  -0.004  -0.002  0.00  0.00    -0.050 A 
ATOM      9  C   UNL     1       0.631  -0.685  -1.046  0.00  0.00    +0.005 A 
ATOM     10  C   UNL     1       0.641  -2.066  -1.055  0.00  0.00    +0.024 A 
ATOM     11  C   UNL     1       0.051  -2.771  -0.014  0.00  0.00    +0.036 A 
ATOM     12  C   UNL     1      -0.548  -2.083   1.033  0.00  0.00    -0.029 A 
ATOM     13  C   UNL     1      -0.550  -0.702   1.039  0.00  0.00    +0.008 A 
ATOM     14  C   UNL     1      -1.190  -2.843   2.165  0.00  0.00    +0.045 C 
ENDBRANCH   3  11
ENDBRANCH   1   4
BRANCH   1  15
ATOM     15  O   UNL     1      -0.112  -6.821  -2.533  0.00  0.00    -0.448 OA
BRANCH  15  16
ATOM     16  C   UNL     1       0.422  -8.042  -2.741  0.00  0.00    +0.358 C 
ATOM     17  O   UNL     1       0.858  -8.682  -1.803  0.00  0.00    -0.243 OA
BRANCH  16  18
ATOM     18  C   UNL     1       0.478  -8.597  -4.098  0.00  0.00    +0.144 A 
ATOM     19  C   UNL     1       0.986  -9.815  -4.432  0.00  0.00    +0.080 A 
ATOM     20  C   UNL     1       0.851  -9.967  -5.834  0.00  0.00    +0.019 A 
ATOM     21  C   UNL     1       1.190 -10.993  -6.727  0.00  0.00    +0.011 A 
ATOM     22  C   UNL     1       0.929 -10.847  -8.058  0.00  0.00    +0.001 A 
ATOM     23  C   UNL     1       0.331  -9.689  -8.540  0.00  0.00    +0.002 A 
ATOM     24  C   UNL     1      -0.011  -8.668  -7.683  0.00  0.00    +0.026 A 
ATOM     25  C   UNL     1       0.243  -8.793  -6.320  0.00  0.00    +0.048 A 
ATOM     26  N   UNL     1       0.018  -7.970  -5.242  0.00  0.00    -0.348 N 
ATOM     27  H   UNL     1      -0.394  -7.092  -5.278  0.00  0.00    +0.166 HD
ATOM     28 CL   UNL     1       1.675 -10.973  -3.338  0.00  0.00    -0.080 Cl
ENDBRANCH  16  18
ENDBRANCH  15  16
ENDBRANCH   1  15
TORSDOF 5
