REMARK  Name = ZINC36679028
REMARK  6 active torsions:
REMARK  status: ('A' for Active; 'I' for Inactive)
REMARK    1  A    between atoms: C_1  and  C_2
REMARK    2  A    between atoms: C_2  and  C_4
REMARK    3  A    between atoms: C_2  and  C_17
REMARK    4  A    between atoms: C_4  and  O_5
REMARK    5  A    between atoms: O_5  and  C_6
REMARK    6  A    between atoms: N_18  and  O_19
REMARK                            x       y       z     vdW  Elec       q    Type
REMARK                         _______ _______ _______ _____ _____    ______ ____
ROOT
ATOM      1  O   UNL     1       2.090  -0.101  -1.210  0.00  0.00    -0.491 OA
ENDROOT
BRANCH   1   2
ATOM      2  C   UNL     1       2.873  -0.463  -2.261  0.00  0.00    +0.121 A 
ATOM      3  C   UNL     1       2.315  -1.185  -3.321  0.00  0.00    +0.046 A 
ATOM      4  C   UNL     1       3.072  -1.561  -4.386  0.00  0.00    +0.012 A 
ATOM      5  C   UNL     1       4.436  -1.221  -4.427  0.00  0.00    -0.017 A 
ATOM      6  C   UNL     1       5.247  -1.593  -5.512  0.00  0.00    +0.023 A 
ATOM      7  C   UNL     1       6.564  -1.246  -5.519  0.00  0.00    +0.018 A 
ATOM      8  C   UNL     1       7.122  -0.526  -4.464  0.00  0.00    +0.016 A 
ATOM      9  C   UNL     1       6.367  -0.149  -3.396  0.00  0.00    +0.010 A 
ATOM     10  C   UNL     1       5.003  -0.489  -3.354  0.00  0.00    -0.014 A 
ATOM     11  C   UNL     1       4.192  -0.111  -2.271  0.00  0.00    +0.054 A 
ATOM     12 BR   UNL     1       7.651  -1.749  -6.982  0.00  0.00    -0.050 Br
ENDBRANCH   1   2
BRANCH   1  13
ATOM     13  C   UNL     1       0.718  -0.497  -1.257  0.00  0.00    +0.239 C 
BRANCH  13  15
ATOM     14  C   UNL     1      -0.019   1.526   0.010  0.00  0.00    +0.019 C 
ATOM     15  C   UNL     1       0.002  -0.004   0.002  0.00  0.00    +0.090 C 
BRANCH  15  16
ATOM     16  C   UNL     1      -1.412  -0.526   0.013  0.00  0.00    +0.138 C 
ATOM     17  N   UNL     1      -2.373   0.204  -0.447  0.00  0.00    -0.076 NA
ATOM     18  N   UNL     1      -1.679  -1.781   0.513  0.00  0.00    -0.344 N 
ATOM     19  H   UNL     1      -0.957  -2.329   0.858  0.00  0.00    +0.144 HD
ATOM     20  H   UNL     1      -2.589  -2.117   0.519  0.00  0.00    +0.144 HD
BRANCH  17  21
ATOM     21  O   UNL     1      -3.702  -0.286  -0.437  0.00  0.00    -0.408 OA
ATOM     22  H   UNL     1      -4.351   0.331  -0.801  0.00  0.00    +0.328 HD
ENDBRANCH  17  21
ENDBRANCH  15  16
ENDBRANCH  13  15
ENDBRANCH   1  13
TORSDOF 5
