REMARK  Name = ZINC28290520
REMARK  15 active torsions:
REMARK  status: ('A' for Active; 'I' for Inactive)
REMARK    1  A    between atoms: C_1  and  C_2
REMARK    2  A    between atoms: C_2  and  N_3
REMARK    3  A    between atoms: N_3  and  C_4
REMARK    4  A    between atoms: N_3  and  C_6
REMARK    5  A    between atoms: C_4  and  C_5
REMARK    6  A    between atoms: C_6  and  C_8
REMARK    7  A    between atoms: C_6  and  C_21
REMARK    8  A    between atoms: C_8  and  N_9
REMARK    9  A    between atoms: C_10  and  C_12
REMARK   10  A    between atoms: C_16  and  S_18
REMARK   11  A    between atoms: S_18  and  C_19
REMARK   12  A    between atoms: C_24  and  C_27
REMARK   13  A    between atoms: C_27  and  C_28
REMARK   14  A    between atoms: C_27  and  C_29
REMARK   15  A    between atoms: C_27  and  C_30
REMARK                            x       y       z     vdW  Elec       q    Type
REMARK                         _______ _______ _______ _____ _____    ______ ____
ROOT
ATOM      1  C   UNL     1      -2.258   0.924   1.230  0.00  0.00    -0.020 C 
ENDROOT
BRANCH   1   2
ATOM      2  C   UNL     1      -3.162   1.703   2.151  0.00  0.00    -0.059 A 
ATOM      3  C   UNL     1      -2.683   2.161   3.365  0.00  0.00    +0.002 A 
ATOM      4  C   UNL     1      -3.511   2.879   4.207  0.00  0.00    +0.004 A 
ATOM      5  C   UNL     1      -4.820   3.132   3.840  0.00  0.00    -0.042 A 
ATOM      6  C   UNL     1      -5.299   2.670   2.628  0.00  0.00    +0.004 A 
ATOM      7  C   UNL     1      -4.470   1.956   1.784  0.00  0.00    +0.002 A 
BRANCH   5   8
ATOM      8  C   UNL     1      -5.723   3.911   4.760  0.00  0.00    -0.013 C 
ATOM      9  C   UNL     1      -6.927   3.048   5.144  0.00  0.00    +0.015 C 
ATOM     10  C   UNL     1      -4.952   4.301   6.022  0.00  0.00    +0.015 C 
ATOM     11  C   UNL     1      -6.209   5.175   4.048  0.00  0.00    +0.015 C 
ENDBRANCH   5   8
ENDBRANCH   1   2
BRANCH   1  12
ATOM     12  N   UNL     1      -1.367   1.851   0.519  0.00  0.00    +0.385 N 
ATOM     13  H   UNL     1      -0.738   1.259  -0.162  0.00  0.00    -0.081 HD
BRANCH  12  15
ATOM     14  C   UNL     1       0.790   1.726   1.672  0.00  0.00    -0.017 C 
ATOM     15  C   UNL     1      -0.479   2.552   1.457  0.00  0.00    -0.081 C 
ENDBRANCH  12  15
BRANCH  12  16
ATOM     16  C   UNL     1      -2.136   2.805  -0.290  0.00  0.00    -0.081 C 
ATOM     17  C   UNL     1      -2.745   2.080  -1.492  0.00  0.00    -0.017 C 
ENDBRANCH  12  16
ENDBRANCH   1  12
BRANCH   1  18
ATOM     18  C   UNL     1      -1.421  -0.060   2.050  0.00  0.00    +0.094 C 
BRANCH  18  19
ATOM     19  N   UNL     1      -0.467  -0.741   1.171  0.00  0.00    -0.311 N 
ATOM     20  C   UNL     1       0.306  -1.733   1.654  0.00  0.00    +0.264 C 
ATOM     21  O   UNL     1       0.211  -2.063   2.820  0.00  0.00    -0.268 OA
ATOM     22  H   UNL     1      -0.382  -0.441   0.115  0.00  0.00    +0.149 HD
BRANCH  20  23
ATOM     23  C   UNL     1       1.272  -2.422   0.764  0.00  0.00    +0.148 A 
ATOM     24  C   UNL     1       2.078  -3.452   1.253  0.00  0.00    +0.090 A 
ATOM     25  C   UNL     1       2.968  -4.067   0.381  0.00  0.00    +0.136 A 
ATOM     26  N   UNL     1       3.023  -3.662  -0.875  0.00  0.00    -0.229 NA
ATOM     27  C   UNL     1       2.244  -2.681  -1.311  0.00  0.00    +0.189 A 
ATOM     28  N   UNL     1       1.380  -2.072  -0.516  0.00  0.00    -0.216 NA
ATOM     29 CL   UNL     1       1.972  -3.951   2.913  0.00  0.00    -0.080 Cl
BRANCH  27  30
ATOM     30  S   UNL     1       2.358  -2.180  -2.997  0.00  0.00    -0.089 S 
ATOM     31  C   UNL     1       3.641  -3.318  -3.577  0.00  0.00    +0.093 C 
ENDBRANCH  27  30
ENDBRANCH  20  23
ENDBRANCH  18  19
ENDBRANCH   1  18
TORSDOF 9
