REMARK  Name = ZINC12273702
REMARK  5 active torsions:
REMARK  status: ('A' for Active; 'I' for Inactive)
REMARK    1  A    between atoms: C_4  and  C_7
REMARK    2  A    between atoms: C_10  and  C_12
REMARK    3  A    between atoms: C_13  and  N_35
REMARK    4  A    between atoms: C_23  and  C_33
REMARK    5  A    between atoms: C_24  and  C_26
REMARK                            x       y       z     vdW  Elec       q    Type
REMARK                         _______ _______ _______ _____ _____    ______ ____
ROOT
ATOM      1  C   UNL     1       0.868   4.445   0.025  0.00  0.00    +0.033 C 
ATOM      2  C   UNL     1       1.675   3.370   0.022  0.00  0.00    +0.100 C 
ATOM      3  N   UNL     1       1.210   2.049   0.012  0.00  0.00    -0.249 N 
ATOM      4  C   UNL     1       2.060   0.927   0.008  0.00  0.00    +0.054 A 
ATOM      5  C   UNL     1       3.465   0.957   0.014  0.00  0.00    +0.025 A 
ATOM      6  C   UNL     1       4.193  -0.209   0.010  0.00  0.00    +0.002 A 
ATOM      7  C   UNL     1       3.569  -1.445   0.000  0.00  0.00    +0.001 A 
ATOM      8  C   UNL     1       2.186  -1.502  -0.005  0.00  0.00    +0.017 A 
ATOM      9  C   UNL     1       1.460  -0.333  -0.001  0.00  0.00    +0.036 A 
ATOM     10  S   UNL     1      -0.276   0.038  -0.005  0.00  0.00    -0.071 S 
ATOM     11  C   UNL     1      -0.143   1.813   0.006  0.00  0.00    +0.093 C 
ATOM     12  C   UNL     1      -1.098   2.794   0.014  0.00  0.00    +0.070 C 
ATOM     13  C   UNL     1      -0.633   4.238   0.019  0.00  0.00    +0.097 C 
ENDROOT
BRANCH  13  14
ATOM     14  C   UNL     1      -1.198   4.925  -1.198  0.00  0.00    -0.035 A 
ATOM     15  C   UNL     1      -0.780   4.547  -2.460  0.00  0.00    +0.007 A 
ATOM     16  C   UNL     1      -1.303   5.172  -3.577  0.00  0.00    +0.038 A 
ATOM     17  C   UNL     1      -2.236   6.184  -3.430  0.00  0.00    +0.123 A 
ATOM     18  C   UNL     1      -2.650   6.565  -2.165  0.00  0.00    +0.038 A 
ATOM     19  C   UNL     1      -2.131   5.935  -1.050  0.00  0.00    +0.007 A 
ATOM     20  F   UNL     1      -2.742   6.800  -4.521  0.00  0.00    -0.205 F 
ENDBRANCH  13  14
BRANCH   1  24
ATOM     21  C   UNL     1       3.030   7.459  -0.032  0.00  0.00    +0.079 A 
ATOM     22  C   UNL     1       2.050   8.404   0.096  0.00  0.00    +0.075 A 
ATOM     23  S   UNL     1       0.594   7.369   0.171  0.00  0.00    -0.075 S 
ATOM     24  C   UNL     1       1.431   5.795   0.036  0.00  0.00    +0.109 A 
ATOM     25  N   UNL     1       2.700   6.178  -0.059  0.00  0.00    -0.239 NA
BRANCH  21  29
ATOM     26  C   UNL     1       7.107   8.627  -0.340  0.00  0.00    +0.000 A 
ATOM     27  C   UNL     1       6.132   9.581  -0.107  0.00  0.00    +0.001 A 
ATOM     28  C   UNL     1       4.807   9.208  -0.006  0.00  0.00    +0.010 A 
ATOM     29  C   UNL     1       4.452   7.867  -0.139  0.00  0.00    +0.001 A 
ATOM     30  C   UNL     1       5.439   6.909  -0.368  0.00  0.00    +0.010 A 
ATOM     31  C   UNL     1       6.760   7.295  -0.473  0.00  0.00    +0.001 A 
ENDBRANCH  21  29
ENDBRANCH   1  24
BRANCH   2  32
ATOM     32  N   UNL     1       3.040   3.580   0.028  0.00  0.00    -0.346 N 
ATOM     33  H   UNL     1       3.596   3.177  -0.657  0.00  0.00    +0.143 HD
ATOM     34  H   UNL     1       3.443   4.131   0.718  0.00  0.00    +0.143 HD
ENDBRANCH   2  32
BRANCH  12  35
ATOM     35  C   UNL     1      -2.493   2.468   0.014  0.00  0.00    +0.098 C 
ATOM     36  N   UNL     1      -3.599   2.209   0.014  0.00  0.00    -0.191 NA
ENDBRANCH  12  35
TORSDOF 5
