REMARK  Name = ZINC15112220
REMARK  14 active torsions:
REMARK  status: ('A' for Active; 'I' for Inactive)
REMARK    1  A    between atoms: C_1  and  O_2
REMARK    2  A    between atoms: O_2  and  C_3
REMARK    3  A    between atoms: C_5  and  C_21
REMARK    4  A    between atoms: C_10  and  C_12
REMARK    5  A    between atoms: C_21  and  C_23
REMARK    6  A    between atoms: C_21  and  O_42
REMARK    7  A    between atoms: C_23  and  C_24
REMARK    8  A    between atoms: C_24  and  O_25
REMARK    9  A    between atoms: O_25  and  C_26
REMARK   10  A    between atoms: C_28  and  O_41
REMARK   11  A    between atoms: C_30  and  O_40
REMARK   12  A    between atoms: C_32  and  O_39
REMARK   13  A    between atoms: C_34  and  C_37
REMARK   14  A    between atoms: C_37  and  O_38
REMARK                            x       y       z     vdW  Elec       q    Type
REMARK                         _______ _______ _______ _____ _____    ______ ____
ROOT
ATOM      1  C   UNL     1      -4.926   2.508   0.036  0.00  0.00    +0.147 C 
ENDROOT
BRANCH   1   4
ATOM      2  C   UNL     1      -1.604   4.318   0.038  0.00  0.00    +0.163 A 
ATOM      3  C   UNL     1      -2.965   4.064   0.036  0.00  0.00    +0.055 A 
ATOM      4  C   UNL     1      -3.441   2.762   0.032  0.00  0.00    -0.015 A 
ATOM      5  C   UNL     1      -2.572   1.706   0.022  0.00  0.00    +0.018 A 
ATOM      6  C   UNL     1      -1.195   1.940   0.017  0.00  0.00    +0.025 A 
ATOM      7  C   UNL     1      -0.703   3.256   0.025  0.00  0.00    +0.177 A 
ATOM      8  O   UNL     1       0.644   3.187   0.012  0.00  0.00    -0.451 OA
ATOM      9  C   UNL     1       1.059   1.905   0.002  0.00  0.00    +0.137 A 
ATOM     10  C   UNL     1      -0.013   1.076   0.008  0.00  0.00    +0.058 A 
BRANCH   9  11
ATOM     11  C   UNL     1       2.471   1.468  -0.012  0.00  0.00    +0.021 A 
ATOM     12  C   UNL     1       2.782   0.107  -0.021  0.00  0.00    +0.015 A 
ATOM     13  C   UNL     1       4.101  -0.298  -0.036  0.00  0.00    +0.050 A 
ATOM     14  C   UNL     1       5.120   0.643  -0.040  0.00  0.00    +0.166 A 
ATOM     15  C   UNL     1       4.816   2.003  -0.032  0.00  0.00    +0.167 A 
ATOM     16  C   UNL     1       3.496   2.416  -0.023  0.00  0.00    +0.061 A 
ATOM     17  O   UNL     1       5.983   2.712  -0.038  0.00  0.00    -0.453 OA
ATOM     18  C   UNL     1       6.995   1.780  -0.464  0.00  0.00    +0.466 C 
ATOM     19  O   UNL     1       6.478   0.501  -0.052  0.00  0.00    -0.453 OA
ENDBRANCH   9  11
BRANCH   2  21
ATOM     20  C   UNL     1      -2.132   6.637   0.054  0.00  0.00    +0.277 C 
ATOM     21  O   UNL     1      -1.149   5.599   0.040  0.00  0.00    -0.491 OA
ENDBRANCH   2  21
ENDBRANCH   1   4
BRANCH   1  22
ATOM     22  O   UNL     1      -5.578   3.512   0.817  0.00  0.00    -0.387 OA
ATOM     23  H   UNL     1      -5.444   4.412   0.492  0.00  0.00    +0.210 HD
ENDBRANCH   1  22
BRANCH   1  24
ATOM     24  C   UNL     1      -5.456   2.554  -1.398  0.00  0.00    +0.064 C 
BRANCH  24  25
ATOM     25  C   UNL     1      -6.938   2.174  -1.407  0.00  0.00    +0.166 C 
BRANCH  25  26
ATOM     26  O   UNL     1      -7.433   2.216  -2.747  0.00  0.00    -0.349 OA
BRANCH  26  27
ATOM     27  C   UNL     1      -8.816   1.876  -2.867  0.00  0.00    +0.282 C 
ATOM     28  C   UNL     1      -9.266   2.074  -4.316  0.00  0.00    +0.201 C 
ATOM     29  C   UNL     1      -8.474   1.126  -5.223  0.00  0.00    +0.179 C 
ATOM     30  C   UNL     1      -8.679  -0.313  -4.742  0.00  0.00    +0.177 C 
ATOM     31  C   UNL     1      -8.251  -0.419  -3.276  0.00  0.00    +0.178 C 
ATOM     32  O   UNL     1      -9.004   0.510  -2.493  0.00  0.00    -0.341 OA
BRANCH  30  33
ATOM     33  O   UNL     1     -10.058  -0.666  -4.863  0.00  0.00    -0.386 OA
ATOM     34  H   UNL     1     -10.398  -0.621  -5.768  0.00  0.00    +0.210 HD
ENDBRANCH  30  33
BRANCH  29  35
ATOM     35  O   UNL     1      -8.937   1.251  -6.569  0.00  0.00    -0.386 OA
ATOM     36  H   UNL     1      -8.838   2.139  -6.939  0.00  0.00    +0.210 HD
ENDBRANCH  29  35
BRANCH  28  37
ATOM     37  O   UNL     1      -9.025   3.426  -4.711  0.00  0.00    -0.384 OA
ATOM     38  H   UNL     1      -9.492   4.082  -4.175  0.00  0.00    +0.210 HD
ENDBRANCH  28  37
BRANCH  31  39
ATOM     39  C   UNL     1      -8.509  -1.840  -2.770  0.00  0.00    +0.190 C 
BRANCH  39  40
ATOM     40  O   UNL     1      -8.005  -1.970  -1.439  0.00  0.00    -0.392 OA
ATOM     41  H   UNL     1      -8.134  -2.848  -1.054  0.00  0.00    +0.210 HD
ENDBRANCH  39  40
ENDBRANCH  31  39
ENDBRANCH  26  27
ENDBRANCH  25  26
ENDBRANCH  24  25
ENDBRANCH   1  24
TORSDOF 13
