REMARK  Name = ZINC64052826
REMARK  9 active torsions:
REMARK  status: ('A' for Active; 'I' for Inactive)
REMARK    1  A    between atoms: C_1  and  C_2
REMARK    2  A    between atoms: C_2  and  C_4
REMARK    3  A    between atoms: C_2  and  N_32
REMARK    4  A    between atoms: C_8  and  S_17
REMARK    5  A    between atoms: N_9  and  C_10
REMARK    6  A    between atoms: S_17  and  C_18
REMARK    7  A    between atoms: C_18  and  C_19
REMARK    8  A    between atoms: C_19  and  C_20
REMARK    9  A    between atoms: C_20  and  N_21
REMARK                            x       y       z     vdW  Elec       q    Type
REMARK                         _______ _______ _______ _____ _____    ______ ____
ROOT
ATOM      1  C   UNL     1      -1.317  -0.330  -0.009  0.00  0.00    +0.168 C 
ATOM      2  N   UNL     1      -2.144   0.191   1.094  0.00  0.00    -0.248 N 
ATOM      3  N   UNL     1      -3.331   0.648   0.509  0.00  0.00    -0.162 NA
ATOM      4  C   UNL     1      -3.326   0.474  -0.769  0.00  0.00    +0.179 C 
ATOM      5  N   UNL     1      -2.146  -0.119  -1.207  0.00  0.00    -0.260 N 
ATOM      6  H   UNL     1      -1.912   0.212   2.036  0.00  0.00    +0.170 HD
ENDROOT
BRANCH   5   7
ATOM      7  C   UNL     1      -1.811  -0.449  -2.524  0.00  0.00    +0.038 A 
ATOM      8  C   UNL     1      -1.677  -1.781  -2.895  0.00  0.00    +0.026 A 
ATOM      9  C   UNL     1      -1.346  -2.104  -4.196  0.00  0.00    +0.040 A 
ATOM     10  C   UNL     1      -1.149  -1.102  -5.131  0.00  0.00    +0.124 A 
ATOM     11  C   UNL     1      -1.282   0.226  -4.764  0.00  0.00    +0.040 A 
ATOM     12  C   UNL     1      -1.619   0.554  -3.465  0.00  0.00    +0.026 A 
ATOM     13  F   UNL     1      -0.825  -1.421  -6.404  0.00  0.00    -0.205 F 
ENDBRANCH   5   7
BRANCH   1  15
ATOM     14  C   UNL     1      -0.316   1.953  -0.172  0.00  0.00    -0.010 C 
ATOM     15  C   UNL     1      -0.009   0.456  -0.116  0.00  0.00    -0.031 C 
BRANCH  15  16
ATOM     16  N   UNL     1       0.830   0.172   1.056  0.00  0.00    +0.384 N 
ATOM     17  C   UNL     1       2.082   0.933   0.956  0.00  0.00    -0.078 C 
ATOM     18  C   UNL     1       2.924   0.704   2.213  0.00  0.00    -0.019 C 
ATOM     19  C   UNL     1       3.242  -0.788   2.343  0.00  0.00    -0.004 C 
ATOM     20  C   UNL     1       1.930  -1.579   2.372  0.00  0.00    -0.019 C 
ATOM     21  C   UNL     1       1.125  -1.265   1.109  0.00  0.00    -0.078 C 
ATOM     22  H   UNL     1       0.339   0.444   1.894  0.00  0.00    -0.081 HD
ENDBRANCH  15  16
ENDBRANCH   1  15
BRANCH   4  23
ATOM     23  S   UNL     1      -4.654   0.929  -1.833  0.00  0.00    -0.089 S 
BRANCH  23  24
ATOM     24  C   UNL     1      -5.891   1.638  -0.711  0.00  0.00    +0.079 C 
BRANCH  24  25
ATOM     25  C   UNL     1      -7.115   2.082  -1.516  0.00  0.00    +0.033 C 
BRANCH  25  26
ATOM     26  C   UNL     1      -8.158   2.679  -0.570  0.00  0.00    +0.128 C 
BRANCH  26  27
ATOM     27  N   UNL     1      -9.330   3.104  -1.340  0.00  0.00    -0.292 N 
ATOM     28  C   UNL     1      -9.518   4.360  -1.911  0.00  0.00    +0.070 A 
ATOM     29  C   UNL     1      -8.751   5.515  -1.945  0.00  0.00    +0.028 A 
ATOM     30  C   UNL     1      -9.219   6.632  -2.609  0.00  0.00    +0.002 A 
ATOM     31  C   UNL     1     -10.451   6.604  -3.240  0.00  0.00    +0.002 A 
ATOM     32  C   UNL     1     -11.222   5.459  -3.211  0.00  0.00    +0.028 A 
ATOM     33  C   UNL     1     -10.761   4.332  -2.548  0.00  0.00    +0.067 A 
ATOM     34  N   UNL     1     -11.288   3.059  -2.344  0.00  0.00    -0.306 N 
ATOM     35  H   UNL     1     -12.144   2.740  -2.671  0.00  0.00    +0.170 HD
ATOM     36  C   UNL     1     -10.405   2.344  -1.622  0.00  0.00    +0.328 A 
ATOM     37  O   UNL     1     -10.557   1.188  -1.274  0.00  0.00    -0.247 OA
ENDBRANCH  26  27
ENDBRANCH  25  26
ENDBRANCH  24  25
ENDBRANCH  23  24
ENDBRANCH   4  23
TORSDOF 8
