REMARK  Name = ZINC45754483
REMARK  9 active torsions:
REMARK  status: ('A' for Active; 'I' for Inactive)
REMARK    1  A    between atoms: C_1  and  C_2
REMARK    2  A    between atoms: C_5  and  C_8
REMARK    3  A    between atoms: C_8  and  C_35
REMARK    4  A    between atoms: N_11  and  C_15
REMARK    5  A    between atoms: C_15  and  C_16
REMARK    6  A    between atoms: C_21  and  C_24
REMARK    7  A    between atoms: C_24  and  N_25
REMARK    8  A    between atoms: C_27  and  C_34
REMARK    9  A    between atoms: C_30  and  C_33
REMARK                            x       y       z     vdW  Elec       q    Type
REMARK                         _______ _______ _______ _____ _____    ______ ____
ROOT
ATOM      1  C   UNL     1       2.495  -7.598   1.643  0.00  0.00    +0.237 C 
ATOM      2  O   UNL     1       1.421  -7.994   1.242  0.00  0.00    -0.274 OA
ATOM      3  N   UNL     1       3.299  -8.424   2.342  0.00  0.00    -0.263 N 
ATOM      4  C   UNL     1       2.898  -9.729   2.603  0.00  0.00    +0.165 A 
ATOM      5  N   UNL     1       3.541 -10.665   3.266  0.00  0.00    -0.231 NA
ATOM      6  C   UNL     1       3.019 -11.866   3.429  0.00  0.00    +0.034 A 
ATOM      7  C   UNL     1       1.798 -12.087   2.884  0.00  0.00    +0.070 A 
ATOM      8  S   UNL     1       1.467 -10.492   2.153  0.00  0.00    -0.060 S 
ATOM      9  H   UNL     1       4.158  -8.107   2.663  0.00  0.00    +0.157 HD
ENDROOT
BRANCH   1  10
ATOM     10  C   UNL     1       2.931  -6.184   1.360  0.00  0.00    +0.214 C 
BRANCH  10  14
ATOM     11  C   UNL     1       0.059  -4.275  -0.021  0.00  0.00    +0.135 C 
ATOM     12  C   UNL     1       0.874  -4.805   1.142  0.00  0.00    +0.251 C 
ATOM     13  O   UNL     1       0.656  -4.640   2.324  0.00  0.00    -0.272 OA
ATOM     14  N   UNL     1       1.890  -5.497   0.591  0.00  0.00    -0.215 N 
ATOM     15  C   UNL     1       1.832  -5.479  -0.746  0.00  0.00    +0.310 C 
ATOM     16  O   UNL     1       2.639  -6.033  -1.465  0.00  0.00    -0.252 OA
ATOM     17  N   UNL     1       0.779  -4.778  -1.205  0.00  0.00    -0.281 N 
ATOM     18  C   UNL     1      -1.366  -4.831   0.018  0.00  0.00    +0.047 C 
ATOM     19  H   UNL     1       0.540  -4.632  -2.133  0.00  0.00    +0.152 HD
BRANCH  11  24
ATOM     20  C   UNL     1      -0.018   1.503   0.010  0.00  0.00    +0.044 C 
ATOM     21  C   UNL     1       0.002  -0.004   0.002  0.00  0.00    -0.050 A 
ATOM     22  C   UNL     1       0.006  -0.689  -1.199  0.00  0.00    +0.004 A 
ATOM     23  C   UNL     1       0.025  -2.071  -1.206  0.00  0.00    +0.006 A 
ATOM     24  C   UNL     1       0.040  -2.768  -0.013  0.00  0.00    -0.015 A 
ATOM     25  C   UNL     1       0.037  -2.084   1.188  0.00  0.00    +0.006 A 
ATOM     26  C   UNL     1       0.023  -0.702   1.195  0.00  0.00    +0.004 A 
ENDBRANCH  11  24
ENDBRANCH  10  14
ENDBRANCH   1  10
BRANCH   6  27
ATOM     27  C   UNL     1       3.749 -12.945   4.188  0.00  0.00    -0.022 C 
BRANCH  27  28
ATOM     28  N   UNL     1       4.677 -13.637   3.283  0.00  0.00    +0.384 N 
ATOM     29  C   UNL     1       3.913 -14.333   2.240  0.00  0.00    -0.075 C 
ATOM     30  C   UNL     1       4.876 -14.989   1.248  0.00  0.00    -0.031 C 
ATOM     31  C   UNL     1       5.760 -15.994   1.992  0.00  0.00    +0.003 C 
ATOM     32  C   UNL     1       6.495 -15.272   3.125  0.00  0.00    -0.031 C 
ATOM     33  C   UNL     1       5.472 -14.606   4.047  0.00  0.00    -0.075 C 
ATOM     34  C   UNL     1       7.322 -16.282   3.923  0.00  0.00    +0.005 C 
ATOM     35  C   UNL     1       5.754 -13.915   0.603  0.00  0.00    +0.005 C 
ATOM     36  H   UNL     1       5.292 -12.963   2.853  0.00  0.00    -0.081 HD
ENDBRANCH  27  28
ENDBRANCH   6  27
TORSDOF 5
