REMARK  Name = ZINC65454052
REMARK  7 active torsions:
REMARK  status: ('A' for Active; 'I' for Inactive)
REMARK    1  A    between atoms: C_1  and  C_2
REMARK    2  A    between atoms: C_8  and  C_13
REMARK    3  A    between atoms: N_11  and  C_12
REMARK    4  A    between atoms: C_13  and  N_14
REMARK    5  A    between atoms: C_17  and  C_26
REMARK    6  A    between atoms: C_18  and  C_19
REMARK    7  A    between atoms: C_23  and  C_25
REMARK                            x       y       z     vdW  Elec       q    Type
REMARK                         _______ _______ _______ _____ _____    ______ ____
ROOT
ATOM      1  N   UNL     1      -0.957  -3.904   4.301  0.00  0.00    -0.325 N 
ATOM      2  C   UNL     1      -1.680  -5.045   4.311  0.00  0.00    +0.200 A 
ATOM      3  N   UNL     1      -1.520  -5.653   5.452  0.00  0.00    -0.235 NA
ATOM      4  C   UNL     1      -0.690  -4.939   6.234  0.00  0.00    +0.100 A 
ATOM      5  C   UNL     1      -0.312  -3.816   5.515  0.00  0.00    +0.112 A 
ENDROOT
BRANCH   5   6
ATOM      6  C   UNL     1       0.592  -2.745   5.959  0.00  0.00    +0.157 A 
ATOM      7  H   UNL     1       0.504  -1.332   4.415  0.00  0.00    +0.167 HD
ATOM      8  N   UNL     1       1.282  -2.734   7.082  0.00  0.00    -0.234 NA
ATOM      9  C   UNL     1       1.994  -1.603   7.151  0.00  0.00    +0.134 A 
ATOM     10  C   UNL     1       1.750  -0.876   6.041  0.00  0.00    +0.033 A 
ATOM     11  N   UNL     1       0.867  -1.593   5.276  0.00  0.00    -0.341 N 
ATOM     12  C   UNL     1       2.341   0.468   5.703  0.00  0.00    +0.065 C 
ENDBRANCH   5   6
BRANCH   4  13
ATOM     13  C   UNL     1      -0.257  -5.290   7.605  0.00  0.00    +0.003 A 
ATOM     14  C   UNL     1      -0.224  -4.313   8.601  0.00  0.00    +0.010 A 
ATOM     15  C   UNL     1       0.180  -4.647   9.877  0.00  0.00    +0.001 A 
ATOM     16  C   UNL     1       0.554  -5.946  10.170  0.00  0.00    +0.000 A 
ATOM     17  C   UNL     1       0.524  -6.919   9.187  0.00  0.00    +0.001 A 
ATOM     18  C   UNL     1       0.116  -6.599   7.908  0.00  0.00    +0.010 A 
ENDBRANCH   4  13
BRANCH   1  19
ATOM     19  C   UNL     1      -0.871  -2.941   3.200  0.00  0.00    +0.148 C 
BRANCH  19  27
ATOM     20  C   UNL     1       1.123   1.363   0.199  0.00  0.00    +0.044 C 
ATOM     21  C   UNL     1       0.882  -0.123   0.149  0.00  0.00    -0.050 A 
ATOM     22  C   UNL     1       0.788  -0.768  -1.071  0.00  0.00    +0.005 A 
ATOM     23  C   UNL     1       0.567  -2.129  -1.124  0.00  0.00    +0.025 A 
ATOM     24  C   UNL     1       0.439  -2.862   0.054  0.00  0.00    +0.049 A 
ATOM     25  C   UNL     1       0.536  -2.204   1.273  0.00  0.00    -0.005 A 
ATOM     26  C   UNL     1       0.761  -0.846   1.323  0.00  0.00    +0.010 A 
ATOM     27  C   UNL     1       0.357  -3.256   2.342  0.00  0.00    +0.124 C 
ATOM     28  N   UNL     1       0.159  -4.514   1.599  0.00  0.00    -0.231 NA
ATOM     29  N   UNL     1       0.217  -4.220   0.270  0.00  0.00    -0.269 N 
ATOM     30  C   UNL     1       0.065  -5.210  -0.799  0.00  0.00    +0.150 C 
ATOM     31  H   UNL     1       0.859  -5.196   1.850  0.00  0.00    +0.145 HD
ENDBRANCH  19  27
ENDBRANCH   1  19
TORSDOF 4
