REMARK  Name = ZINC35743155
REMARK  12 active torsions:
REMARK  status: ('A' for Active; 'I' for Inactive)
REMARK    1  A    between atoms: C_1  and  C_2
REMARK    2  A    between atoms: C_7  and  O_8
REMARK    3  A    between atoms: O_8  and  C_9
REMARK    4  A    between atoms: C_9  and  C_10
REMARK    5  A    between atoms: C_10  and  C_12
REMARK    6  A    between atoms: C_10  and  O_36
REMARK    7  A    between atoms: C_12  and  N_13
REMARK    8  A    between atoms: N_13  and  C_14
REMARK    9  A    between atoms: N_13  and  C_22
REMARK   10  A    between atoms: C_14  and  C_15
REMARK   11  A    between atoms: C_22  and  C_23
REMARK   12  A    between atoms: C_26  and  C_29
REMARK                            x       y       z     vdW  Elec       q    Type
REMARK                         _______ _______ _______ _____ _____    ______ ____
ROOT
ATOM      1  N   UNL     1      -0.143   0.769   7.243  0.00  0.00    +0.387 N 
ATOM      2  H   UNL     1       0.285   1.664   7.060  0.00  0.00    -0.081 HD
ENDROOT
BRANCH   1   3
ATOM      3  C   UNL     1       0.350  -0.217   6.271  0.00  0.00    -0.043 C 
BRANCH   3   4
ATOM      4  C   UNL     1       0.367   0.408   4.875  0.00  0.00    +0.135 C 
BRANCH   4   5
ATOM      5  O   UNL     1      -0.974   0.589   4.417  0.00  0.00    -0.390 OA
ATOM      6  H   UNL     1      -1.468  -0.235   4.312  0.00  0.00    +0.210 HD
ENDBRANCH   4   5
BRANCH   4   7
ATOM      7  C   UNL     1       1.115  -0.516   3.912  0.00  0.00    +0.258 C 
BRANCH   7   8
ATOM      8  O   UNL     1       1.233   0.120   2.637  0.00  0.00    -0.489 OA
BRANCH   8  15
ATOM      9  C   UNL     1       1.476   1.357   0.110  0.00  0.00    +0.047 C 
ATOM     10  C   UNL     1       2.027  -0.015   0.399  0.00  0.00    -0.009 A 
ATOM     11  C   UNL     1       2.686  -0.718  -0.591  0.00  0.00    +0.007 A 
ATOM     12  C   UNL     1       3.191  -1.978  -0.327  0.00  0.00    +0.000 A 
ATOM     13  C   UNL     1       3.037  -2.538   0.928  0.00  0.00    +0.004 A 
ATOM     14  C   UNL     1       2.379  -1.839   1.921  0.00  0.00    +0.046 A 
ATOM     15  C   UNL     1       1.876  -0.572   1.660  0.00  0.00    +0.124 A 
ENDBRANCH   8  15
ENDBRANCH   7   8
ENDBRANCH   4   7
ENDBRANCH   3   4
ENDBRANCH   1   3
BRANCH   1  16
ATOM     16  C   UNL     1      -1.602   0.889   7.122  0.00  0.00    -0.043 C 
BRANCH  16  17
ATOM     17  C   UNL     1      -2.240  -0.451   7.386  0.00  0.00    -0.063 A 
ATOM     18  C   UNL     1      -2.489  -1.317   6.338  0.00  0.00    +0.002 A 
ATOM     19  C   UNL     1      -3.074  -2.546   6.580  0.00  0.00    +0.002 A 
ATOM     20  C   UNL     1      -3.411  -2.909   7.870  0.00  0.00    +0.020 A 
ATOM     21  C   UNL     1      -3.162  -2.043   8.919  0.00  0.00    +0.041 A 
ATOM     22  C   UNL     1      -2.571  -0.815   8.678  0.00  0.00    +0.021 A 
ATOM     23 CL   UNL     1      -3.585  -2.499  10.540  0.00  0.00    -0.084 Cl
ENDBRANCH  16  17
ENDBRANCH   1  16
BRANCH   1  24
ATOM     24  C   UNL     1       0.201   0.330   8.602  0.00  0.00    -0.030 C 
BRANCH  24  25
ATOM     25  C   UNL     1      -0.066   1.469   9.588  0.00  0.00    +0.194 C 
ATOM     26  C   UNL     1       0.228   1.024  11.041  0.00  0.00    +0.104 C 
ATOM     27  C   UNL     1      -0.871   1.716  11.826  0.00  0.00    +0.091 C 
ATOM     28  N   UNL     1      -1.777   2.109  10.994  0.00  0.00    -0.089 NA
ATOM     29  O   UNL     1      -1.473   1.776   9.653  0.00  0.00    -0.392 OA
BRANCH  27  30
ATOM     30  C   UNL     1      -0.900   1.906  13.290  0.00  0.00    -0.000 A 
ATOM     31  C   UNL     1       0.151   1.435  14.079  0.00  0.00    +0.011 A 
ATOM     32  C   UNL     1       0.118   1.616  15.445  0.00  0.00    +0.020 A 
ATOM     33  C   UNL     1      -0.954   2.264  16.035  0.00  0.00    +0.041 A 
ATOM     34  C   UNL     1      -2.000   2.733  15.258  0.00  0.00    +0.020 A 
ATOM     35  C   UNL     1      -1.976   2.563  13.890  0.00  0.00    +0.011 A 
ATOM     36 CL   UNL     1      -0.988   2.487  17.757  0.00  0.00    -0.084 Cl
ENDBRANCH  27  30
ENDBRANCH  24  25
ENDBRANCH   1  24
TORSDOF 11
