REMARK  Name = ZINC39415579
REMARK  10 active torsions:
REMARK  status: ('A' for Active; 'I' for Inactive)
REMARK    1  A    between atoms: C_1  and  C_2
REMARK    2  A    between atoms: C_2  and  C_3
REMARK    3  A    between atoms: C_2  and  C_4
REMARK    4  A    between atoms: C_9  and  N_10
REMARK    5  A    between atoms: C_11  and  C_30
REMARK    6  A    between atoms: C_15  and  S_17
REMARK    7  A    between atoms: S_17  and  C_18
REMARK    8  A    between atoms: C_18  and  C_19
REMARK    9  A    between atoms: C_33  and  O_36
REMARK   10  A    between atoms: O_36  and  C_37
REMARK                            x       y       z     vdW  Elec       q    Type
REMARK                         _______ _______ _______ _____ _____    ______ ____
ROOT
ATOM      1  N   UNL     1      -1.133  -1.796  -1.929  0.00  0.00    -0.273 N 
ATOM      2  C   UNL     1      -0.419  -3.075  -2.088  0.00  0.00    +0.218 C 
ATOM      3  N   UNL     1       0.294  -2.992  -3.364  0.00  0.00    -0.286 N 
ATOM      4  N   UNL     1       0.104  -1.915  -3.925  0.00  0.00    -0.180 NA
ATOM      5  C   UNL     1      -0.783  -1.046  -3.148  0.00  0.00    +0.273 C 
ATOM      6  H   UNL     1       0.851  -3.701  -3.723  0.00  0.00    +0.185 HD
ENDROOT
BRANCH   1  12
ATOM      7  C   UNL     1      -3.334  -1.449  -1.003  0.00  0.00    -0.024 A 
ATOM      8  C   UNL     1      -4.142  -1.053   0.046  0.00  0.00    +0.006 A 
ATOM      9  C   UNL     1      -3.577  -0.594   1.221  0.00  0.00    +0.000 A 
ATOM     10  C   UNL     1      -2.202  -0.530   1.351  0.00  0.00    +0.002 A 
ATOM     11  C   UNL     1      -1.388  -0.924   0.308  0.00  0.00    +0.023 A 
ATOM     12  C   UNL     1      -1.953  -1.391  -0.873  0.00  0.00    +0.037 A 
BRANCH   7  14
ATOM     13  C   UNL     1      -4.925  -3.086  -1.970  0.00  0.00    +0.012 C 
ATOM     14  C   UNL     1      -3.951  -1.949  -2.283  0.00  0.00    +0.015 C 
ATOM     15  C   UNL     1      -4.705  -0.806  -2.967  0.00  0.00    +0.012 C 
ENDBRANCH   7  14
ENDBRANCH   1  12
BRANCH   2  16
ATOM     16  C   UNL     1      -1.402  -4.216  -2.117  0.00  0.00    -0.006 A 
ATOM     17  C   UNL     1      -2.242  -4.376  -3.204  0.00  0.00    +0.011 A 
ATOM     18  C   UNL     1      -3.145  -5.421  -3.232  0.00  0.00    +0.046 A 
ATOM     19  C   UNL     1      -3.208  -6.311  -2.170  0.00  0.00    +0.120 A 
ATOM     20  C   UNL     1      -2.364  -6.149  -1.081  0.00  0.00    +0.046 A 
ATOM     21  C   UNL     1      -1.459  -5.105  -1.060  0.00  0.00    +0.011 A 
BRANCH  19  22
ATOM     22  O   UNL     1      -4.096  -7.340  -2.196  0.00  0.00    -0.495 OA
ATOM     23  C   UNL     1      -4.105  -8.217  -1.068  0.00  0.00    +0.277 C 
ENDBRANCH  19  22
ENDBRANCH   2  16
BRANCH   5  24
ATOM     24  S   UNL     1       0.079   0.488  -2.711  0.00  0.00    -0.106 S 
BRANCH  24  25
ATOM     25  C   UNL     1       1.524  -0.073  -1.770  0.00  0.00    +0.147 C 
BRANCH  25  26
ATOM     26  C   UNL     1       2.269   1.122  -1.233  0.00  0.00    +0.120 A 
ATOM     27  N   UNL     1       3.393   0.907  -0.500  0.00  0.00    -0.309 N 
ATOM     28  H   UNL     1       3.702   0.003  -0.331  0.00  0.00    +0.170 HD
ATOM     29  C   UNL     1       4.078   1.967  -0.008  0.00  0.00    +0.266 A 
ATOM     30  O   UNL     1       5.090   1.808   0.653  0.00  0.00    -0.267 OA
ATOM     31  C   UNL     1       3.593   3.247  -0.279  0.00  0.00    +0.102 A 
ATOM     32  C   UNL     1       2.427   3.442  -1.040  0.00  0.00    +0.085 A 
ATOM     33  N   UNL     1       1.810   2.303  -1.497  0.00  0.00    -0.232 NA
ATOM     34  C   UNL     1       2.051   4.778  -1.237  0.00  0.00    +0.036 A 
ATOM     35  C   UNL     1       2.792   5.777  -0.711  0.00  0.00    +0.048 A 
ATOM     36  S   UNL     1       4.104   4.897   0.121  0.00  0.00    -0.090 S 
ENDBRANCH  25  26
ENDBRANCH  24  25
ENDBRANCH   5  24
TORSDOF 7
