REMARK  Name = ZINC13727996
REMARK  5 active torsions:
REMARK  status: ('A' for Active; 'I' for Inactive)
REMARK    1  A    between atoms: C_6  and  C_7
REMARK    2  A    between atoms: N_9  and  C_10
REMARK    3  A    between atoms: C_10  and  C_11
REMARK    4  A    between atoms: C_11  and  C_12
REMARK    5  A    between atoms: C_24  and  C_27
REMARK                            x       y       z     vdW  Elec       q    Type
REMARK                         _______ _______ _______ _____ _____    ______ ____
ROOT
ATOM      1  C   UNL     1      -1.268  -0.758   0.011  0.00  0.00    +0.244 C 
ATOM      2  O   UNL     1      -1.254  -1.973   0.004  0.00  0.00    -0.270 OA
ATOM      3  N   UNL     1      -2.443  -0.098   0.026  0.00  0.00    -0.311 N 
ATOM      4  H   UNL     1      -2.454   0.872   0.031  0.00  0.00    +0.149 HD
ENDROOT
BRANCH   1  10
ATOM      5  C   UNL     1      -0.017   1.397   0.010  0.00  0.00    +0.015 A 
ATOM      6  C   UNL     1       1.150   2.104   0.002  0.00  0.00    +0.028 A 
ATOM      7  C   UNL     1       2.370   1.439  -0.013  0.00  0.00    +0.066 A 
ATOM      8  C   UNL     1       2.408   0.032  -0.021  0.00  0.00    +0.090 A 
ATOM      9  C   UNL     1       1.214  -0.687  -0.013  0.00  0.00    +0.043 A 
ATOM     10  C   UNL     1       0.002  -0.004   0.002  0.00  0.00    +0.039 A 
ATOM     11  N   UNL     1       3.718  -0.329  -0.035  0.00  0.00    -0.224 NA
ATOM     12  C   UNL     1       4.463   0.737  -0.037  0.00  0.00    +0.213 A 
ATOM     13  N   UNL     1       3.684   1.853  -0.023  0.00  0.00    -0.335 N 
ATOM     14  H   UNL     1       3.997   2.772  -0.021  0.00  0.00    +0.167 HD
BRANCH  12  15
ATOM     15  C   UNL     1       5.970   0.736  -0.050  0.00  0.00    +0.450 C 
ATOM     16  F   UNL     1       6.432  -0.536  -0.403  0.00  0.00    -0.163 F 
ATOM     17  F   UNL     1       6.428   1.674  -0.982  0.00  0.00    -0.163 F 
ATOM     18  F   UNL     1       6.448   1.071   1.221  0.00  0.00    -0.163 F 
ENDBRANCH  12  15
ENDBRANCH   1  10
BRANCH   3  19
ATOM     19  C   UNL     1      -3.703  -0.845   0.034  0.00  0.00    +0.109 C 
BRANCH  19  20
ATOM     20  C   UNL     1      -4.878   0.135   0.051  0.00  0.00    +0.056 C 
BRANCH  20  21
ATOM     21  C   UNL     1      -6.173  -0.634   0.060  0.00  0.00    -0.021 A 
ATOM     22  C   UNL     1      -6.916  -0.960  -1.010  0.00  0.00    +0.087 A 
ATOM     23  N   UNL     1      -8.024  -1.659  -0.614  0.00  0.00    -0.360 N 
ATOM     24  H   UNL     1      -8.708  -2.002  -1.209  0.00  0.00    +0.165 HD
ATOM     25  C   UNL     1      -8.021  -1.803   0.756  0.00  0.00    +0.047 A 
ATOM     26  C   UNL     1      -6.859  -1.173   1.237  0.00  0.00    +0.004 A 
ATOM     27  C   UNL     1      -6.585  -1.166   2.606  0.00  0.00    +0.030 A 
ATOM     28  C   UNL     1      -7.457  -1.781   3.478  0.00  0.00    +0.042 A 
ATOM     29  C   UNL     1      -8.602  -2.406   3.002  0.00  0.00    +0.022 A 
ATOM     30  C   UNL     1      -8.889  -2.414   1.655  0.00  0.00    +0.027 A 
ATOM     31 CL   UNL     1      -7.121  -1.776   5.181  0.00  0.00    -0.084 Cl
ENDBRANCH  20  21
ENDBRANCH  19  20
ENDBRANCH   3  19
TORSDOF 5
