REMARK  Name = ZINC36589342
REMARK  14 active torsions:
REMARK  status: ('A' for Active; 'I' for Inactive)
REMARK    1  A    between atoms: C_1  and  C_2
REMARK    2  A    between atoms: C_5  and  S_8
REMARK    3  A    between atoms: S_8  and  C_11
REMARK    4  A    between atoms: C_11  and  N_12
REMARK    5  A    between atoms: C_13  and  C_15
REMARK    6  A    between atoms: C_15  and  C_17
REMARK    7  A    between atoms: C_15  and  N_26
REMARK    8  A    between atoms: N_26  and  C_33
REMARK    9  A    between atoms: C_27  and  C_29
REMARK   10  A    between atoms: C_30  and  C_31
REMARK   11  A    between atoms: C_30  and  C_32
REMARK   12  A    between atoms: C_33  and  C_34
REMARK   13  A    between atoms: C_33  and  C_35
REMARK   14  A    between atoms: C_33  and  C_36
REMARK                            x       y       z     vdW  Elec       q    Type
REMARK                         _______ _______ _______ _____ _____    ______ ____
ROOT
ATOM      1  C   UNL     1       2.652  -7.998   1.581  0.00  0.00    +0.193 C 
ENDROOT
BRANCH   1   2
ATOM      2  C   UNL     1       1.204  -8.145   1.971  0.00  0.00    -0.014 A 
ATOM      3  C   UNL     1       0.832  -8.032   3.298  0.00  0.00    +0.010 A 
ATOM      4  C   UNL     1      -0.495  -8.165   3.661  0.00  0.00    +0.050 A 
ATOM      5  C   UNL     1      -1.456  -8.412   2.694  0.00  0.00    +0.166 A 
ATOM      6  C   UNL     1      -1.082  -8.526   1.357  0.00  0.00    +0.167 A 
ATOM      7  C   UNL     1       0.250  -8.386   1.001  0.00  0.00    +0.055 A 
ATOM      8  O   UNL     1      -2.199  -8.767   0.610  0.00  0.00    -0.453 OA
ATOM      9  C   UNL     1      -3.200  -9.206   1.547  0.00  0.00    +0.466 C 
ATOM     10  O   UNL     1      -2.808  -8.583   2.784  0.00  0.00    -0.453 OA
ENDBRANCH   1   2
BRANCH   1  12
ATOM     11  N   UNL     1       3.808  -9.825   0.378  0.00  0.00    -0.294 N 
ATOM     12  C   UNL     1       3.300  -9.358   1.536  0.00  0.00    +0.239 C 
ATOM     13  O   UNL     1       3.365 -10.033   2.542  0.00  0.00    -0.273 OA
ATOM     14  H   UNL     1       3.756  -9.285  -0.426  0.00  0.00    +0.150 HD
BRANCH  11  15
ATOM     15  C   UNL     1       4.438 -11.146   0.334  0.00  0.00    +0.278 C 
BRANCH  15  16
ATOM     16  S   UNL     1       3.221 -12.379  -0.205  0.00  0.00    +0.013 S 
ATOM     17  O   UNL     1       2.007 -12.216   0.516  0.00  0.00    -0.168 OA
ATOM     18  O   UNL     1       3.834 -13.656  -0.313  0.00  0.00    -0.168 OA
BRANCH  16  23
ATOM     19  C   UNL     1       1.860 -10.839  -5.878  0.00  0.00    +0.044 C 
ATOM     20  C   UNL     1       2.200 -11.223  -4.461  0.00  0.00    -0.050 A 
ATOM     21  C   UNL     1       3.242 -12.097  -4.213  0.00  0.00    +0.005 A 
ATOM     22  C   UNL     1       3.554 -12.450  -2.913  0.00  0.00    +0.027 A 
ATOM     23  C   UNL     1       2.824 -11.928  -1.861  0.00  0.00    +0.090 A 
ATOM     24  C   UNL     1       1.783 -11.054  -2.109  0.00  0.00    +0.027 A 
ATOM     25  C   UNL     1       1.474 -10.698  -3.409  0.00  0.00    +0.005 A 
ENDBRANCH  16  23
ENDBRANCH  15  16
ENDBRANCH  11  15
ENDBRANCH   1  12
BRANCH   1  26
ATOM     26  N   UNL     1       3.341  -7.161   2.567  0.00  0.00    -0.277 N 
ATOM     27  C   UNL     1       2.990  -5.869   2.716  0.00  0.00    +0.241 C 
ATOM     28  O   UNL     1       3.477  -5.206   3.612  0.00  0.00    -0.271 OA
BRANCH  27  29
ATOM     29  C   UNL     1       2.017  -5.260   1.796  0.00  0.00    +0.066 C 
ATOM     30  C   UNL     1       1.695  -3.976   1.924  0.00  0.00    -0.071 C 
ATOM     31  C   UNL     1       2.190  -3.189   3.110  0.00  0.00    +0.039 C 
ATOM     32  C   UNL     1       0.835  -3.308   0.883  0.00  0.00    +0.039 C 
ENDBRANCH  27  29
BRANCH  26  33
ATOM     33  C   UNL     1       4.412  -7.729   3.390  0.00  0.00    +0.030 C 
ATOM     34  C   UNL     1       5.350  -8.556   2.507  0.00  0.00    +0.031 C 
ATOM     35  C   UNL     1       5.200  -6.598   4.053  0.00  0.00    +0.031 C 
ATOM     36  C   UNL     1       3.804  -8.628   4.469  0.00  0.00    +0.031 C 
ENDBRANCH  26  33
ENDBRANCH   1  26
TORSDOF 8
