REMARK  Name = ZINC39722238
REMARK  10 active torsions:
REMARK  status: ('A' for Active; 'I' for Inactive)
REMARK    1  A    between atoms: C_1  and  C_2
REMARK    2  A    between atoms: C_2  and  C_3
REMARK    3  A    between atoms: C_3  and  C_4
REMARK    4  A    between atoms: C_4  and  C_5
REMARK    5  A    between atoms: C_5  and  C_6
REMARK    6  A    between atoms: C_6  and  N_7
REMARK    7  A    between atoms: C_8  and  S_19
REMARK    8  A    between atoms: S_19  and  C_20
REMARK    9  A    between atoms: C_20  and  C_21
REMARK   10  A    between atoms: C_29  and  C_33
REMARK                            x       y       z     vdW  Elec       q    Type
REMARK                         _______ _______ _______ _____ _____    ______ ____
ROOT
ATOM      1  N   UNL     1       2.162  -4.523  -3.738  0.00  0.00    -0.270 N 
ATOM      2  C   UNL     1       1.389  -4.761  -4.957  0.00  0.00    +0.222 C 
ATOM      3  N   UNL     1       2.203  -4.462  -6.142  0.00  0.00    -0.317 N 
ATOM      4  C   UNL     1       3.523  -4.896  -6.174  0.00  0.00    +0.041 A 
ATOM      5  C   UNL     1       4.163  -5.195  -7.365  0.00  0.00    +0.024 A 
ATOM      6  C   UNL     1       5.480  -5.612  -7.348  0.00  0.00    +0.002 A 
ATOM      7  C   UNL     1       6.165  -5.735  -6.149  0.00  0.00    +0.001 A 
ATOM      8  C   UNL     1       5.540  -5.446  -4.953  0.00  0.00    +0.015 A 
ATOM      9  C   UNL     1       4.211  -5.028  -4.956  0.00  0.00    +0.058 A 
ATOM     10  C   UNL     1       3.494  -4.726  -3.705  0.00  0.00    +0.250 C 
ATOM     11  O   UNL     1       4.098  -4.664  -2.652  0.00  0.00    -0.270 OA
ATOM     12  H   UNL     1       1.826  -3.971  -6.888  0.00  0.00    +0.149 HD
ENDROOT
BRANCH   1  13
ATOM     13  C   UNL     1       1.476  -4.051  -2.532  0.00  0.00    +0.111 C 
BRANCH  13  14
ATOM     14  C   UNL     1       1.455  -2.521  -2.524  0.00  0.00    +0.019 C 
BRANCH  14  15
ATOM     15  C   UNL     1       0.739  -2.027  -1.265  0.00  0.00    +0.002 C 
BRANCH  15  16
ATOM     16  C   UNL     1       0.718  -0.497  -1.257  0.00  0.00    -0.000 C 
BRANCH  16  18
ATOM     17  C   UNL     1      -0.019   1.526   0.010  0.00  0.00    +0.004 C 
ATOM     18  C   UNL     1       0.002  -0.004   0.002  0.00  0.00    -0.003 C 
ENDBRANCH  16  18
ENDBRANCH  15  16
ENDBRANCH  14  15
ENDBRANCH  13  14
ENDBRANCH   1  13
BRANCH   2  19
ATOM     19  S   UNL     1       0.873  -6.499  -5.012  0.00  0.00    -0.111 S 
BRANCH  19  20
ATOM     20  C   UNL     1       2.434  -7.421  -4.999  0.00  0.00    +0.146 C 
BRANCH  20  21
ATOM     21  C   UNL     1       2.144  -8.900  -5.042  0.00  0.00    +0.120 A 
ATOM     22  N   UNL     1       3.194  -9.762  -5.034  0.00  0.00    -0.310 N 
ATOM     23  H   UNL     1       4.100  -9.417  -5.001  0.00  0.00    +0.170 HD
ATOM     24  C   UNL     1       2.987 -11.099  -5.071  0.00  0.00    +0.259 A 
ATOM     25  O   UNL     1       3.918 -11.883  -5.064  0.00  0.00    -0.267 OA
ATOM     26  C   UNL     1       1.591 -11.569  -5.120  0.00  0.00    +0.065 A 
ATOM     27  C   UNL     1       1.274 -12.925  -5.159  0.00  0.00    +0.016 A 
ATOM     28  C   UNL     1      -0.034 -13.317  -5.203  0.00  0.00    +0.016 A 
ATOM     29  C   UNL     1      -1.062 -12.365  -5.209  0.00  0.00    +0.065 A 
ATOM     30  C   UNL     1      -0.767 -11.007  -5.170  0.00  0.00    +0.043 A 
ATOM     31  C   UNL     1       0.567 -10.597  -5.125  0.00  0.00    +0.079 A 
ATOM     32  N   UNL     1       0.905  -9.284  -5.080  0.00  0.00    -0.233 NA
BRANCH  29  33
ATOM     33  C   UNL     1      -2.472 -12.809  -5.257  0.00  0.00    +0.387 C 
ATOM     34  O   UNL     1      -2.736 -14.002  -5.292  0.00  0.00    -0.241 OA
ATOM     35  O   UNL     1      -3.373 -11.982  -5.262  0.00  0.00    -0.241 OA
ENDBRANCH  29  33
ENDBRANCH  20  21
ENDBRANCH  19  20
ENDBRANCH   2  19
TORSDOF 9
