REMARK  Name = ZINC13561517
REMARK  3 active torsions:
REMARK  status: ('A' for Active; 'I' for Inactive)
REMARK    1  A    between atoms: C_8  and  N_11
REMARK    2  A    between atoms: N_11  and  C_12
REMARK    3  A    between atoms: C_12  and  C_13
REMARK                            x       y       z     vdW  Elec       q    Type
REMARK                         _______ _______ _______ _____ _____    ______ ____
ROOT
ATOM      1  C   UNL     1      -3.658   1.756   0.046  0.00  0.00    +0.034 A 
ATOM      2  C   UNL     1      -2.505   1.040   0.031  0.00  0.00    +0.020 A 
ATOM      3  C   UNL     1      -1.233   1.762   0.018  0.00  0.00    +0.003 A 
ATOM      4  C   UNL     1      -0.013   1.076   0.008  0.00  0.00    +0.059 A 
ATOM      5  C   UNL     1       1.169   1.783   0.001  0.00  0.00    +0.167 A 
ATOM      6  C   UNL     1       1.153   3.184   0.007  0.00  0.00    +0.168 A 
ATOM      7  C   UNL     1      -0.048   3.870   0.022  0.00  0.00    +0.075 A 
ATOM      8  C   UNL     1      -1.248   3.171   0.030  0.00  0.00    +0.053 A 
ATOM      9  N   UNL     1      -2.456   3.839   0.046  0.00  0.00    -0.322 N 
ATOM     10  H   UNL     1      -2.465   4.809   0.051  0.00  0.00    +0.169 HD
ATOM     11  C   UNL     1      -3.619   3.165   0.054  0.00  0.00    +0.254 A 
ATOM     12  O   UNL     1      -4.667   3.788   0.069  0.00  0.00    -0.268 OA
ATOM     13  O   UNL     1       2.442   3.631  -0.003  0.00  0.00    -0.453 OA
ATOM     14  C   UNL     1       3.244   2.506   0.399  0.00  0.00    +0.466 C 
ATOM     15  O   UNL     1       2.469   1.365  -0.013  0.00  0.00    -0.453 OA
ENDROOT
BRANCH   1  16
ATOM     16  C   UNL     1      -4.985   1.042   0.056  0.00  0.00    +0.142 C 
BRANCH  16  17
ATOM     17  N   UNL     1      -5.458   0.908   1.435  0.00  0.00    -0.338 N 
ATOM     18  H   UNL     1      -4.926   1.259   2.167  0.00  0.00    +0.146 HD
BRANCH  17  26
ATOM     19  C   UNL     1     -10.075  -1.295   4.671  0.00  0.00    +0.001 A 
ATOM     20  C   UNL     1     -10.788  -1.775   3.574  0.00  0.00    +0.002 A 
ATOM     21  C   UNL     1     -10.312  -1.629   2.308  0.00  0.00    +0.028 A 
ATOM     22  C   UNL     1      -9.081  -0.985   2.094  0.00  0.00    +0.071 A 
ATOM     23  C   UNL     1      -8.357  -0.497   3.211  0.00  0.00    +0.002 A 
ATOM     24  C   UNL     1      -8.879  -0.665   4.504  0.00  0.00    +0.010 A 
ATOM     25  C   UNL     1      -7.125   0.147   2.999  0.00  0.00    +0.034 A 
ATOM     26  C   UNL     1      -6.675   0.276   1.698  0.00  0.00    +0.046 A 
ATOM     27  C   UNL     1      -7.449  -0.227   0.645  0.00  0.00    +0.134 A 
ATOM     28  N   UNL     1      -8.592  -0.831   0.860  0.00  0.00    -0.253 NA
ENDBRANCH  17  26
ENDBRANCH  16  17
ENDBRANCH   1  16
TORSDOF 3
