REMARK  Name = ZINC20705280
REMARK  6 active torsions:
REMARK  status: ('A' for Active; 'I' for Inactive)
REMARK    1  A    between atoms: C_4  and  N_7
REMARK    2  A    between atoms: N_7  and  C_8
REMARK    3  A    between atoms: C_11  and  N_14
REMARK    4  A    between atoms: C_15  and  C_17
REMARK    5  A    between atoms: C_24  and  C_33
REMARK    6  A    between atoms: C_37  and  N_39
REMARK                            x       y       z     vdW  Elec       q    Type
REMARK                         _______ _______ _______ _____ _____    ______ ____
ROOT
ATOM      1  C   UNL     1       8.246   6.269  -0.292  0.00  0.00    +0.058 A 
ATOM      2  C   UNL     1       9.477   5.625  -0.403  0.00  0.00    +0.015 A 
ATOM      3  C   UNL     1      10.642   6.360  -0.409  0.00  0.00    +0.001 A 
ATOM      4  C   UNL     1      10.588   7.739  -0.289  0.00  0.00    +0.006 A 
ATOM      5  C   UNL     1       9.381   8.391  -0.165  0.00  0.00    -0.019 A 
ATOM      6  C   UNL     1       8.181   7.672  -0.170  0.00  0.00    +0.044 A 
ATOM      7  N   UNL     1       6.926   8.250  -0.077  0.00  0.00    -0.336 N 
ATOM      8  C   UNL     1       6.878   9.707   0.127  0.00  0.00    +0.105 C 
ATOM      9  C   UNL     1       7.983  10.311  -0.715  0.00  0.00    +0.029 C 
ATOM     10  C   UNL     1       9.302   9.861  -0.014  0.00  0.00    +0.049 C 
ATOM     11  C   UNL     1      10.317  10.779  -0.586  0.00  0.00    -0.023 C 
ATOM     12  C   UNL     1       9.716  11.917  -0.917  0.00  0.00    -0.030 C 
ATOM     13  C   UNL     1       8.218  11.823  -0.618  0.00  0.00    +0.033 C 
ATOM     14  H   UNL     1       5.992   7.674  -0.149  0.00  0.00    +0.147 HD
ENDROOT
BRANCH   8  15
ATOM     15  C   UNL     1       5.542  10.244  -0.316  0.00  0.00    -0.025 A 
ATOM     16  C   UNL     1       4.947   9.756  -1.465  0.00  0.00    +0.005 A 
ATOM     17  C   UNL     1       3.719  10.245  -1.869  0.00  0.00    +0.003 A 
ATOM     18  C   UNL     1       3.090  11.230  -1.130  0.00  0.00    +0.033 A 
ATOM     19  C   UNL     1       3.687  11.721   0.016  0.00  0.00    +0.127 A 
ATOM     20  C   UNL     1       4.913  11.228   0.423  0.00  0.00    +0.038 A 
BRANCH  19  21
ATOM     21  N   UNL     1       3.014  12.776   0.807  0.00  0.00    +0.056 N 
ATOM     22  O   UNL     1       3.540  13.209   1.816  0.00  0.00    -0.126 OA
ATOM     23  O   UNL     1       1.934  13.210   0.449  0.00  0.00    -0.126 OA
ENDBRANCH  19  21
ENDBRANCH   8  15
BRANCH   1  25
ATOM     24  N   UNL     1       7.059   4.135  -0.414  0.00  0.00    -0.281 N 
ATOM     25  C   UNL     1       7.003   5.477  -0.297  0.00  0.00    +0.250 C 
ATOM     26  O   UNL     1       5.926   6.034  -0.196  0.00  0.00    -0.270 OA
ATOM     27  H   UNL     1       8.025   3.638  -0.583  0.00  0.00    +0.155 HD
BRANCH  24  31
ATOM     28  C   UNL     1       3.569   1.870  -0.134  0.00  0.00    +0.031 A 
ATOM     29  C   UNL     1       3.536   3.127  -0.725  0.00  0.00    +0.025 A 
ATOM     30  C   UNL     1       4.690   3.879  -0.812  0.00  0.00    +0.025 A 
ATOM     31  C   UNL     1       5.886   3.374  -0.320  0.00  0.00    +0.034 A 
ATOM     32  C   UNL     1       5.921   2.116   0.266  0.00  0.00    +0.025 A 
ATOM     33  C   UNL     1       4.765   1.366   0.359  0.00  0.00    +0.025 A 
BRANCH  28  34
ATOM     34  N   UNL     1       2.398   1.110  -0.041  0.00  0.00    -0.314 N 
ATOM     35  H   UNL     1       2.440   0.018  -0.162  0.00  0.00    +0.152 HD
BRANCH  34  39
ATOM     36  C   UNL     1      -1.248   2.984   0.694  0.00  0.00    +0.000 A 
ATOM     37  C   UNL     1      -1.216   1.776   0.021  0.00  0.00    +0.002 A 
ATOM     38  C   UNL     1      -0.009   1.149  -0.220  0.00  0.00    +0.023 A 
ATOM     39  C   UNL     1       1.175   1.738   0.206  0.00  0.00    +0.031 A 
ATOM     40  C   UNL     1       1.140   2.955   0.877  0.00  0.00    +0.023 A 
ATOM     41  C   UNL     1      -0.071   3.573   1.119  0.00  0.00    +0.002 A 
ENDBRANCH  34  39
ENDBRANCH  28  34
ENDBRANCH  24  31
ENDBRANCH   1  25
TORSDOF 6
