REMARK  Name = ZINC33693338
REMARK  10 active torsions:
REMARK  status: ('A' for Active; 'I' for Inactive)
REMARK    1  A    between atoms: C_1  and  C_2
REMARK    2  A    between atoms: C_3  and  C_27
REMARK    3  A    between atoms: C_4  and  N_14
REMARK    4  A    between atoms: C_6  and  C_8
REMARK    5  A    between atoms: N_22  and  C_23
REMARK    6  A    between atoms: C_23  and  C_24
REMARK    7  A    between atoms: C_23  and  C_25
REMARK    8  A    between atoms: C_23  and  C_26
REMARK    9  A    between atoms: C_27  and  C_28
REMARK   10  A    between atoms: C_27  and  C_29
REMARK                            x       y       z     vdW  Elec       q    Type
REMARK                         _______ _______ _______ _____ _____    ______ ____
ROOT
ATOM      1  C   UNL     1      -2.688   5.059  -2.820  0.00  0.00    +0.066 C 
ATOM      2  C   UNL     1      -2.157   3.671  -2.569  0.00  0.00    +0.047 A 
ATOM      3  C   UNL     1      -1.465   3.387  -1.407  0.00  0.00    +0.016 A 
ATOM      4  C   UNL     1      -0.987   2.088  -1.217  0.00  0.00    +0.129 A 
ATOM      5  N   UNL     1      -1.220   1.172  -2.150  0.00  0.00    -0.212 NA
ATOM      6  C   UNL     1      -1.893   1.484  -3.249  0.00  0.00    +0.162 A 
ATOM      7  N   UNL     1      -2.354   2.709  -3.458  0.00  0.00    -0.232 NA
ENDROOT
BRANCH   4   8
ATOM      8  N   UNL     1      -0.284   1.759  -0.069  0.00  0.00    -0.312 N 
ATOM      9  C   UNL     1       1.096   1.369  -0.390  0.00  0.00    +0.125 C 
ATOM     10  C   UNL     1       1.888   1.189   0.909  0.00  0.00    +0.128 C 
ATOM     11  N   UNL     1       1.160   0.247   1.773  0.00  0.00    -0.283 N 
ATOM     12  C   UNL     1      -0.266   0.498   2.030  0.00  0.00    +0.128 C 
ATOM     13  C   UNL     1      -0.974   0.705   0.686  0.00  0.00    +0.125 C 
ATOM     14  C   UNL     1       1.784  -0.817   2.315  0.00  0.00    +0.303 C 
ATOM     15  O   UNL     1       2.983  -0.957   2.172  0.00  0.00    -0.253 OA
ATOM     16  N   UNL     1       1.078  -1.727   3.016  0.00  0.00    -0.294 N 
ATOM     17  H   UNL     1      -0.016  -1.639   3.086  0.00  0.00    +0.151 HD
BRANCH  16  18
ATOM     18  C   UNL     1       1.769  -2.833   3.684  0.00  0.00    +0.028 C 
ATOM     19  C   UNL     1       2.763  -2.273   4.703  0.00  0.00    +0.031 C 
ATOM     20  C   UNL     1       0.745  -3.714   4.403  0.00  0.00    +0.031 C 
ATOM     21  C   UNL     1       2.519  -3.668   2.645  0.00  0.00    +0.031 C 
ENDBRANCH  16  18
ENDBRANCH   4   8
BRANCH   6  22
ATOM     22  C   UNL     1      -2.136   0.436  -4.270  0.00  0.00    +0.019 A 
ATOM     23  C   UNL     1      -1.655  -0.858  -4.073  0.00  0.00    +0.011 A 
ATOM     24  C   UNL     1      -1.889  -1.830  -5.025  0.00  0.00    +0.001 A 
ATOM     25  C   UNL     1      -2.589  -1.520  -6.177  0.00  0.00    +0.000 A 
ATOM     26  C   UNL     1      -3.064  -0.237  -6.380  0.00  0.00    +0.001 A 
ATOM     27  C   UNL     1      -2.841   0.742  -5.433  0.00  0.00    +0.011 A 
ENDBRANCH   6  22
BRANCH   3  28
ATOM     28  C   UNL     1      -1.227   4.455  -0.371  0.00  0.00    +0.018 C 
ATOM     29  C   UNL     1      -1.829   4.013   0.964  0.00  0.00    +0.012 C 
ATOM     30  C   UNL     1       0.277   4.677  -0.204  0.00  0.00    +0.012 C 
ENDBRANCH   3  28
TORSDOF 4
