REMARK  Name = ZINC39710674
REMARK  14 active torsions:
REMARK  status: ('A' for Active; 'I' for Inactive)
REMARK    1  A    between atoms: C_1  and  C_2
REMARK    2  A    between atoms: C_7  and  C_14
REMARK    3  A    between atoms: C_14  and  C_16
REMARK    4  A    between atoms: C_14  and  N_26
REMARK    5  A    between atoms: N_21  and  C_22
REMARK    6  A    between atoms: C_22  and  C_23
REMARK    7  A    between atoms: C_22  and  C_24
REMARK    8  A    between atoms: C_22  and  C_25
REMARK    9  A    between atoms: N_26  and  C_27
REMARK   10  A    between atoms: N_26  and  C_36
REMARK   11  A    between atoms: C_27  and  C_28
REMARK   12  A    between atoms: C_31  and  O_34
REMARK   13  A    between atoms: O_34  and  C_35
REMARK   14  A    between atoms: C_36  and  C_37
REMARK                            x       y       z     vdW  Elec       q    Type
REMARK                         _______ _______ _______ _____ _____    ______ ____
ROOT
ATOM      1  C   UNL     1      -1.649  -5.710   1.347  0.00  0.00    -0.009 C 
ENDROOT
BRANCH   1   8
ATOM      2  C   UNL     1       4.708  -4.684  -2.493  0.00  0.00    +0.044 C 
ATOM      3  C   UNL     1       3.622  -4.732  -1.449  0.00  0.00    -0.049 A 
ATOM      4  C   UNL     1       3.960  -5.107  -0.148  0.00  0.00    +0.004 A 
ATOM      5  C   UNL     1       3.025  -5.169   0.835  0.00  0.00    +0.010 A 
ATOM      6  C   UNL     1       1.638  -4.833   0.512  0.00  0.00    -0.007 A 
ATOM      7  C   UNL     1       0.666  -4.880   1.467  0.00  0.00    -0.006 C 
ATOM      8  C   UNL     1      -0.743  -4.515   1.044  0.00  0.00    +0.088 C 
ATOM      9  C   UNL     1      -0.956  -4.127  -0.402  0.00  0.00    +0.223 C 
ATOM     10  O   UNL     1      -2.066  -3.825  -0.796  0.00  0.00    -0.275 OA
ATOM     11  N   UNL     1       0.070  -4.119  -1.237  0.00  0.00    -0.285 N 
ATOM     12  C   UNL     1       1.310  -4.439  -0.869  0.00  0.00    +0.041 A 
ATOM     13  C   UNL     1       2.355  -4.403  -1.811  0.00  0.00    +0.027 A 
ATOM     14  H   UNL     1      -0.088  -3.867  -2.160  0.00  0.00    +0.155 HD
ENDBRANCH   1   8
BRANCH   1  15
ATOM     15  C   UNL     1      -1.225  -6.902   0.488  0.00  0.00    +0.205 C 
ATOM     16  N   UNL     1       0.224  -7.123   0.596  0.00  0.00    -0.152 NA
ATOM     17  N   UNL     1       0.732  -6.992  -0.519  0.00  0.00    -0.070 NA
ATOM     18  N   UNL     1      -0.202  -6.684  -1.508  0.00  0.00    -0.179 N 
ATOM     19  N   UNL     1      -1.452  -6.614  -0.944  0.00  0.00    -0.183 NA
ATOM     20  H   UNL     1      -0.001  -6.542  -2.446  0.00  0.00    +0.191 HD
BRANCH  19  21
ATOM     21  C   UNL     1      -2.359  -7.603  -1.542  0.00  0.00    +0.035 C 
ATOM     22  C   UNL     1      -3.704  -7.567  -0.815  0.00  0.00    +0.029 C 
ATOM     23  C   UNL     1      -2.570  -7.272  -3.021  0.00  0.00    +0.029 C 
ATOM     24  C   UNL     1      -1.746  -8.999  -1.415  0.00  0.00    +0.029 C 
ENDBRANCH  19  21
ENDBRANCH   1  15
BRANCH   1  25
ATOM     25  N   UNL     1      -1.533  -6.064   2.768  0.00  0.00    +0.389 N 
ATOM     26  H   UNL     1      -0.598  -6.391   2.958  0.00  0.00    -0.081 HD
BRANCH  25  27
ATOM     27  C   UNL     1      -2.497  -7.125   3.088  0.00  0.00    -0.042 C 
BRANCH  27  28
ATOM     28  C   UNL     1      -2.236  -7.637   4.481  0.00  0.00    -0.064 A 
ATOM     29  C   UNL     1      -1.264  -8.599   4.692  0.00  0.00    +0.005 A 
ATOM     30  C   UNL     1      -1.023  -9.070   5.968  0.00  0.00    +0.046 A 
ATOM     31  C   UNL     1      -1.756  -8.579   7.038  0.00  0.00    +0.120 A 
ATOM     32  C   UNL     1      -2.729  -7.614   6.824  0.00  0.00    +0.046 A 
ATOM     33  C   UNL     1      -2.963  -7.141   5.547  0.00  0.00    +0.005 A 
BRANCH  31  34
ATOM     34  O   UNL     1      -1.520  -9.041   8.294  0.00  0.00    -0.495 OA
ATOM     35  C   UNL     1      -2.312  -8.490   9.348  0.00  0.00    +0.277 C 
ENDBRANCH  31  34
ENDBRANCH  27  28
ENDBRANCH  25  27
BRANCH  25  36
ATOM     36  C   UNL     1      -1.815  -4.881   3.592  0.00  0.00    -0.046 C 
BRANCH  36  37
ATOM     37  C   UNL     1      -3.130  -4.244   3.137  0.00  0.00    +0.102 C 
ATOM     38  C   UNL     1      -3.338  -2.897   3.863  0.00  0.00    +0.032 C 
ATOM     39  C   UNL     1      -4.864  -2.911   4.152  0.00  0.00    +0.030 C 
ATOM     40  C   UNL     1      -5.102  -4.422   4.402  0.00  0.00    +0.160 C 
ATOM     41  O   UNL     1      -4.228  -5.098   3.482  0.00  0.00    -0.378 OA
ENDBRANCH  36  37
ENDBRANCH  25  36
ENDBRANCH   1  25
TORSDOF 9
