REMARK  Name = ZINC45895033
REMARK  2 active torsions:
REMARK  status: ('A' for Active; 'I' for Inactive)
REMARK    1  A    between atoms: C_3  and  C_6
REMARK    2  A    between atoms: C_8  and  C_11
REMARK                            x       y       z     vdW  Elec       q    Type
REMARK                         _______ _______ _______ _____ _____    ______ ____
ROOT
ATOM      1  C   UNL     1       3.738   1.826  -0.024  0.00  0.00    +0.209 A 
ATOM      2  N   UNL     1       4.842   1.060  -0.044  0.00  0.00    -0.187 NA
ATOM      3  C   UNL     1       5.913   1.819  -0.049  0.00  0.00    +0.259 A 
ATOM      4  O   UNL     1       5.519   3.105  -0.032  0.00  0.00    -0.332 OA
ATOM      5  N   UNL     1       4.100   3.089  -0.022  0.00  0.00    -0.055 NA
ENDROOT
BRANCH   3   6
ATOM      6  C   UNL     1       7.311   1.342  -0.070  0.00  0.00    +0.042 A 
ATOM      7  C   UNL     1       7.580  -0.032  -0.092  0.00  0.00    +0.015 A 
ATOM      8  C   UNL     1       8.868  -0.485  -0.110  0.00  0.00    +0.028 A 
ATOM      9  C   UNL     1       9.925   0.417  -0.108  0.00  0.00    +0.066 A 
ATOM     10  C   UNL     1       9.674   1.801  -0.086  0.00  0.00    +0.089 A 
ATOM     11  C   UNL     1       8.357   2.260  -0.073  0.00  0.00    +0.043 A 
ATOM     12  N   UNL     1      10.881   2.423  -0.088  0.00  0.00    -0.236 NA
ATOM     13  C   UNL     1      11.830   1.534  -0.110  0.00  0.00    +0.197 A 
ATOM     14  N   UNL     1      11.298   0.281  -0.122  0.00  0.00    -0.344 N 
ATOM     15  H   UNL     1      11.792  -0.553  -0.138  0.00  0.00    +0.167 HD
ENDBRANCH   3   6
BRANCH   1  18
ATOM     16  C   UNL     1      -0.016   1.355   0.009  0.00  0.00    +0.008 A 
ATOM     17  C   UNL     1       1.176   2.041   0.002  0.00  0.00    +0.019 A 
ATOM     18  C   UNL     1       2.346   1.330  -0.013  0.00  0.00    +0.060 A 
ATOM     19  S   UNL     1       1.753  -0.354  -0.017  0.00  0.00    -0.093 S 
ATOM     20  C   UNL     1       0.002  -0.004   0.002  0.00  0.00    +0.046 A 
ENDBRANCH   1  18
TORSDOF 2
