REMARK  Name = ZINC35686623
REMARK  11 active torsions:
REMARK  status: ('A' for Active; 'I' for Inactive)
REMARK    1  A    between atoms: C_1  and  C_2
REMARK    2  A    between atoms: C_2  and  O_3
REMARK    3  A    between atoms: O_3  and  C_4
REMARK    4  A    between atoms: C_4  and  C_6
REMARK    5  A    between atoms: C_13  and  C_15
REMARK    6  A    between atoms: C_15  and  C_17
REMARK    7  A    between atoms: C_15  and  N_28
REMARK    8  A    between atoms: C_17  and  C_18
REMARK    9  A    between atoms: N_31  and  C_32
REMARK   10  A    between atoms: C_35  and  S_38
REMARK   11  A    between atoms: S_38  and  C_39
REMARK                            x       y       z     vdW  Elec       q    Type
REMARK                         _______ _______ _______ _____ _____    ______ ____
ROOT
ATOM      1  C   UNL     1       3.737  -5.742  -5.178  0.00  0.00    +0.165 C 
ENDROOT
BRANCH   1   8
ATOM      2  C   UNL     1      -0.045  -4.510  -5.003  0.00  0.00    +0.115 C 
ATOM      3  C   UNL     1      -0.668  -3.894  -3.748  0.00  0.00    +0.018 C 
ATOM      4  C   UNL     1       0.073  -4.401  -2.508  0.00  0.00    +0.020 C 
ATOM      5  C   UNL     1       1.540  -3.968  -2.582  0.00  0.00    +0.108 C 
ATOM      6  N   UNL     1       2.107  -4.433  -3.856  0.00  0.00    -0.299 N 
ATOM      7  C   UNL     1       1.421  -4.079  -5.106  0.00  0.00    +0.122 C 
ATOM      8  C   UNL     1       3.234  -5.171  -3.877  0.00  0.00    +0.236 C 
ATOM      9  O   UNL     1       3.845  -5.376  -2.849  0.00  0.00    -0.274 OA
BRANCH   2  10
ATOM     10  C   UNL     1      -0.795  -4.035  -6.221  0.00  0.00    +0.312 C 
ATOM     11  O   UNL     1      -0.218  -3.417  -7.083  0.00  0.00    -0.250 OA
BRANCH  10  12
ATOM     12  O   UNL     1      -2.105  -4.299  -6.347  0.00  0.00    -0.465 OA
BRANCH  12  14
ATOM     13  C   UNL     1      -4.231  -4.213  -7.494  0.00  0.00    +0.048 C 
ATOM     14  C   UNL     1      -2.753  -3.819  -7.527  0.00  0.00    +0.229 C 
ENDBRANCH  12  14
ENDBRANCH  10  12
ENDBRANCH   2  10
ENDBRANCH   1   8
BRANCH   1  15
ATOM     15  N   UNL     1       4.646  -6.858  -4.903  0.00  0.00    -0.288 N 
ATOM     16  C   UNL     1       4.824  -7.824  -5.826  0.00  0.00    +0.304 C 
ATOM     17  O   UNL     1       4.232  -7.769  -6.886  0.00  0.00    -0.252 OA
ATOM     18  N   UNL     1       5.660  -8.851  -5.573  0.00  0.00    -0.269 N 
ATOM     19  H   UNL     1       5.118  -6.902  -4.057  0.00  0.00    +0.151 HD
ATOM     20  H   UNL     1       6.188  -8.857  -4.759  0.00  0.00    +0.156 HD
BRANCH  18  21
ATOM     21  C   UNL     1       5.766  -9.909  -6.486  0.00  0.00    +0.035 A 
ATOM     22  C   UNL     1       6.978 -10.569  -6.646  0.00  0.00    +0.024 A 
ATOM     23  C   UNL     1       7.083 -11.611  -7.545  0.00  0.00    +0.016 A 
ATOM     24  C   UNL     1       5.976 -12.000  -8.290  0.00  0.00    +0.008 A 
ATOM     25  C   UNL     1       4.765 -11.339  -8.130  0.00  0.00    +0.016 A 
ATOM     26  C   UNL     1       4.659 -10.300  -7.227  0.00  0.00    +0.024 A 
BRANCH  24  27
ATOM     27  S   UNL     1       6.110 -13.330  -9.437  0.00  0.00    -0.129 S 
ATOM     28  C   UNL     1       4.448 -13.463 -10.151  0.00  0.00    +0.090 C 
ENDBRANCH  24  27
ENDBRANCH  18  21
ENDBRANCH   1  15
BRANCH   1  29
ATOM     29  C   UNL     1       4.484  -4.656  -5.956  0.00  0.00    +0.069 C 
BRANCH  29  30
ATOM     30  C   UNL     1       4.849  -5.178  -7.322  0.00  0.00    -0.020 A 
ATOM     31  C   UNL     1       6.015  -5.742  -7.675  0.00  0.00    +0.087 A 
ATOM     32  N   UNL     1       5.982  -6.093  -8.997  0.00  0.00    -0.360 N 
ATOM     33  H   UNL     1       6.709  -6.516  -9.480  0.00  0.00    +0.165 HD
ATOM     34  C   UNL     1       4.762  -5.755  -9.541  0.00  0.00    +0.047 A 
ATOM     35  C   UNL     1       3.997  -5.174  -8.513  0.00  0.00    +0.003 A 
ATOM     36  C   UNL     1       2.698  -4.735  -8.775  0.00  0.00    +0.010 A 
ATOM     37  C   UNL     1       2.174  -4.876 -10.029  0.00  0.00    +0.001 A 
ATOM     38  C   UNL     1       2.924  -5.453 -11.045  0.00  0.00    +0.002 A 
ATOM     39  C   UNL     1       4.211  -5.884 -10.811  0.00  0.00    +0.026 A 
ENDBRANCH  29  30
ENDBRANCH   1  29
TORSDOF 9
