REMARK  Name = ZINC16021667
REMARK  4 active torsions:
REMARK  status: ('A' for Active; 'I' for Inactive)
REMARK    1  A    between atoms: C_1  and  C_2
REMARK    2  A    between atoms: C_16  and  C_19
REMARK    3  A    between atoms: C_19  and  C_20
REMARK    4  A    between atoms: N_32  and  C_35
REMARK                            x       y       z     vdW  Elec       q    Type
REMARK                         _______ _______ _______ _____ _____    ______ ____
ROOT
ATOM      1  C   UNL     1      -0.018   1.503   0.010  0.00  0.00    +0.046 C 
ATOM      2  C   UNL     1       0.002  -0.004   0.002  0.00  0.00    -0.028 A 
ATOM      3  C   UNL     1       0.006  -0.685  -1.198  0.00  0.00    +0.025 A 
ATOM      4  C   UNL     1       0.024  -2.068  -1.216  0.00  0.00    +0.042 A 
ATOM      5  C   UNL     1       0.039  -2.772  -0.023  0.00  0.00    +0.027 A 
ATOM      6  C   UNL     1       0.037  -2.096   1.176  0.00  0.00    +0.005 A 
ATOM      7  C   UNL     1       0.023  -0.704   1.205  0.00  0.00    +0.042 A 
ATOM      8  N   UNL     1       0.028  -0.250   2.526  0.00  0.00    -0.283 N 
ATOM      9  C   UNL     1       0.050  -1.264   3.413  0.00  0.00    +0.243 C 
ATOM     10  O   UNL     1       0.058  -1.169   4.622  0.00  0.00    -0.273 OA
ATOM     11  C   UNL     1       0.052  -2.537   2.612  0.00  0.00    +0.136 C 
ATOM     12  C   UNL     1      -1.157  -3.422   2.941  0.00  0.00    +0.122 C 
ATOM     13  C   UNL     1      -0.613  -4.875   2.847  0.00  0.00    +0.107 C 
ATOM     14  C   UNL     1       0.869  -4.720   2.447  0.00  0.00    +0.072 C 
ATOM     15  N   UNL     1       1.243  -3.352   2.914  0.00  0.00    -0.295 NA
ATOM     16  C   UNL     1      -0.711  -5.377   4.270  0.00  0.00    +0.227 C 
ATOM     17  O   UNL     1      -0.379  -6.480   4.648  0.00  0.00    -0.275 OA
ATOM     18  N   UNL     1      -1.221  -4.415   5.047  0.00  0.00    -0.238 N 
ATOM     19  C   UNL     1      -1.520  -3.264   4.401  0.00  0.00    +0.228 C 
ATOM     20  O   UNL     1      -1.996  -2.267   4.900  0.00  0.00    -0.275 OA
ATOM     21 CL   UNL     1       0.026  -2.919  -2.729  0.00  0.00    -0.084 Cl
ATOM     22  H   UNL     1       0.017   0.687   2.777  0.00  0.00    +0.155 HD
ATOM     23  H   UNL     1       2.051  -3.012   2.414  0.00  0.00    +0.124 HD
ENDROOT
BRANCH  18  24
ATOM     24  C   UNL     1      -1.446  -4.592   6.483  0.00  0.00    +0.084 C 
ATOM     25  C   UNL     1      -0.117  -4.904   7.173  0.00  0.00    +0.023 C 
ATOM     26  C   UNL     1      -0.352  -5.090   8.674  0.00  0.00    +0.002 C 
ATOM     27  C   UNL     1      -1.327  -6.247   8.898  0.00  0.00    +0.000 C 
ATOM     28  C   UNL     1      -2.656  -5.936   8.208  0.00  0.00    +0.002 C 
ATOM     29  C   UNL     1      -2.421  -5.750   6.707  0.00  0.00    +0.023 C 
ENDBRANCH  18  24
BRANCH  14  30
ATOM     30  C   UNL     1       1.726  -5.766   3.162  0.00  0.00    +0.056 C 
BRANCH  30  31
ATOM     31  C   UNL     1       3.146  -5.676   2.665  0.00  0.00    -0.021 A 
ATOM     32  C   UNL     1       3.696  -6.408   1.683  0.00  0.00    +0.087 A 
ATOM     33  N   UNL     1       5.005  -6.049   1.510  0.00  0.00    -0.360 N 
ATOM     34  H   UNL     1       5.609  -6.439   0.859  0.00  0.00    +0.165 HD
ATOM     35  C   UNL     1       5.338  -5.052   2.400  0.00  0.00    +0.047 A 
ATOM     36  C   UNL     1       4.186  -4.770   3.158  0.00  0.00    +0.003 A 
ATOM     37  C   UNL     1       4.226  -3.785   4.146  0.00  0.00    +0.010 A 
ATOM     38  C   UNL     1       5.385  -3.095   4.369  0.00  0.00    +0.001 A 
ATOM     39  C   UNL     1       6.522  -3.366   3.622  0.00  0.00    +0.002 A 
ATOM     40  C   UNL     1       6.508  -4.341   2.648  0.00  0.00    +0.026 A 
ENDBRANCH  30  31
ENDBRANCH  14  30
TORSDOF 3
