REMARK  Name = ZINC11855843
REMARK  6 active torsions:
REMARK  status: ('A' for Active; 'I' for Inactive)
REMARK    1  A    between atoms: C_1  and  C_2
REMARK    2  A    between atoms: C_5  and  N_9
REMARK    3  A    between atoms: C_7  and  C_8
REMARK    4  A    between atoms: C_11  and  C_16
REMARK    5  A    between atoms: N_18  and  C_19
REMARK    6  A    between atoms: C_21  and  C_35
REMARK                            x       y       z     vdW  Elec       q    Type
REMARK                         _______ _______ _______ _____ _____    ______ ____
ROOT
ATOM      1  C   UNL     1      -6.448   8.550   1.093  0.00  0.00    +0.132 A 
ATOM      2  C   UNL     1      -5.792   9.296   2.017  0.00  0.00    +0.074 A 
ATOM      3  C   UNL     1      -6.704  10.240   2.536  0.00  0.00    +0.102 A 
ATOM      4  N   UNL     1      -7.865  10.061   1.940  0.00  0.00    -0.162 NA
ATOM      5  N   UNL     1      -7.733   9.009   1.025  0.00  0.00    -0.185 N 
ATOM      6  C   UNL     1      -8.727   8.520   0.200  0.00  0.00    +0.234 A 
ATOM      7  N   UNL     1      -9.965   9.082   0.243  0.00  0.00    -0.291 N 
ATOM      8  H   UNL     1     -10.146   9.819   0.847  0.00  0.00    +0.172 HD
ATOM      9  C   UNL     1     -10.941   8.608  -0.560  0.00  0.00    +0.256 A 
ATOM     10  O   UNL     1     -12.058   9.098  -0.537  0.00  0.00    -0.267 OA
ATOM     11  C   UNL     1     -10.646   7.537  -1.427  0.00  0.00    +0.038 A 
ATOM     12  C   UNL     1      -9.387   7.014  -1.427  0.00  0.00    +0.053 A 
ATOM     13  N   UNL     1      -8.458   7.525  -0.615  0.00  0.00    -0.217 NA
ATOM     14  C   UNL     1      -9.299   5.882  -2.428  0.00  0.00    +0.056 C 
ATOM     15  C   UNL     1     -10.762   5.492  -2.725  0.00  0.00    +0.011 C 
ATOM     16  C   UNL     1     -11.516   6.806  -2.424  0.00  0.00    +0.043 C 
ENDROOT
BRANCH   3  17
ATOM     17  C   UNL     1      -6.407  11.254   3.569  0.00  0.00    +0.039 A 
ATOM     18  C   UNL     1      -7.236  12.196   4.117  0.00  0.00    +0.018 A 
ATOM     19  C   UNL     1      -6.731  13.045   5.077  0.00  0.00    +0.008 A 
ATOM     20  C   UNL     1      -5.431  12.923   5.450  0.00  0.00    +0.046 A 
ATOM     21  S   UNL     1      -4.875  11.565   4.433  0.00  0.00    -0.095 S 
ENDBRANCH   3  17
BRANCH   1  24
ATOM     22  C   UNL     1      -4.616   7.158   0.508  0.00  0.00    +0.223 C 
ATOM     23  O   UNL     1      -3.924   7.753   1.308  0.00  0.00    -0.275 OA
ATOM     24  N   UNL     1      -5.907   7.507   0.344  0.00  0.00    -0.270 N 
ATOM     25  H   UNL     1      -6.460   7.031  -0.295  0.00  0.00    +0.156 HD
BRANCH  22  28
ATOM     26  N   UNL     1      -2.462   4.250   0.046  0.00  0.00    -0.271 N 
ATOM     27  C   UNL     1      -2.592   5.707   0.165  0.00  0.00    +0.127 C 
ATOM     28  C   UNL     1      -4.031   6.030  -0.301  0.00  0.00    +0.102 C 
ATOM     29  C   UNL     1      -4.762   4.700  -0.006  0.00  0.00    +0.110 C 
ATOM     30  C   UNL     1      -3.666   3.658  -0.043  0.00  0.00    +0.221 C 
ATOM     31  O   UNL     1      -3.846   2.462  -0.138  0.00  0.00    -0.275 OA
BRANCH  26  36
ATOM     32  C   UNL     1       2.484   1.472  -0.008  0.00  0.00    +0.044 C 
ATOM     33  C   UNL     1       1.170   2.210   0.006  0.00  0.00    -0.047 A 
ATOM     34  C   UNL     1      -0.018   1.503   0.027  0.00  0.00    +0.005 A 
ATOM     35  C   UNL     1      -1.224   2.176   0.040  0.00  0.00    +0.024 A 
ATOM     36  C   UNL     1      -1.242   3.565   0.032  0.00  0.00    +0.037 A 
ATOM     37  C   UNL     1      -0.047   4.272   0.015  0.00  0.00    +0.027 A 
ATOM     38  C   UNL     1       1.155   3.592  -0.003  0.00  0.00    -0.046 A 
ATOM     39  C   UNL     1       2.453   4.358  -0.027  0.00  0.00    +0.044 C 
ENDBRANCH  26  36
ENDBRANCH  22  28
ENDBRANCH   1  24
TORSDOF 4
