REMARK  Name = ZINC13768967
REMARK  5 active torsions:
REMARK  status: ('A' for Active; 'I' for Inactive)
REMARK    1  A    between atoms: C_1  and  C_2
REMARK    2  A    between atoms: C_7  and  N_8
REMARK    3  A    between atoms: C_13  and  C_27
REMARK    4  A    between atoms: N_15  and  C_21
REMARK    5  A    between atoms: C_28  and  C_37
REMARK                            x       y       z     vdW  Elec       q    Type
REMARK                         _______ _______ _______ _____ _____    ______ ____
ROOT
ATOM      1  N   UNL     1      -0.601  -0.291   2.478  0.00  0.00    -0.208 N 
ATOM      2  C   UNL     1      -1.706   0.067   3.142  0.00  0.00    +0.235 C 
ATOM      3  O   UNL     1      -2.841  -0.189   2.803  0.00  0.00    -0.274 OA
ATOM      4  C   UNL     1      -1.317   0.839   4.381  0.00  0.00    +0.145 C 
ATOM      5  C   UNL     1      -1.760   2.312   4.227  0.00  0.00    +0.159 C 
ATOM      6  N   UNL     1      -0.542   3.062   4.619  0.00  0.00    -0.244 N 
ATOM      7  O   UNL     1       0.538   2.305   4.071  0.00  0.00    -0.257 OA
ATOM      8  C   UNL     1       0.233   0.898   4.299  0.00  0.00    +0.249 C 
ATOM      9  C   UNL     1       0.543   0.110   3.044  0.00  0.00    +0.259 C 
ATOM     10  O   UNL     1       1.654  -0.118   2.618  0.00  0.00    -0.272 OA
ENDROOT
BRANCH   5  11
ATOM     11  C   UNL     1      -2.138   2.609   2.799  0.00  0.00    +0.006 A 
ATOM     12  C   UNL     1      -3.383   2.689   2.302  0.00  0.00    +0.019 A 
ATOM     13  N   UNL     1      -3.335   2.976   0.965  0.00  0.00    -0.358 N 
ATOM     14  H   UNL     1      -4.108   3.082   0.390  0.00  0.00    +0.166 HD
ATOM     15  C   UNL     1      -2.024   3.090   0.558  0.00  0.00    +0.047 A 
ATOM     16  C   UNL     1      -1.217   2.872   1.690  0.00  0.00    +0.005 A 
ATOM     17  C   UNL     1       0.173   2.932   1.577  0.00  0.00    +0.010 A 
ATOM     18  C   UNL     1       0.743   3.207   0.366  0.00  0.00    +0.001 A 
ATOM     19  C   UNL     1      -0.048   3.427  -0.753  0.00  0.00    +0.002 A 
ATOM     20  C   UNL     1      -1.422   3.363  -0.665  0.00  0.00    +0.026 A 
ATOM     21  C   UNL     1      -4.646   2.492   3.100  0.00  0.00    +0.063 C 
ENDBRANCH   5  11
BRANCH   1  28
ATOM     22  C   UNL     1      -0.722  -3.129   2.663  0.00  0.00    +0.045 C 
ATOM     23  C   UNL     1      -0.698  -2.418   1.334  0.00  0.00    -0.029 A 
ATOM     24  C   UNL     1      -0.740  -3.146   0.160  0.00  0.00    +0.005 A 
ATOM     25  C   UNL     1      -0.719  -2.494  -1.059  0.00  0.00    +0.000 A 
ATOM     26  C   UNL     1      -0.654  -1.114  -1.108  0.00  0.00    +0.002 A 
ATOM     27  C   UNL     1      -0.612  -0.382   0.062  0.00  0.00    +0.024 A 
ATOM     28  C   UNL     1      -0.638  -1.032   1.288  0.00  0.00    +0.047 A 
ENDBRANCH   1  28
BRANCH   6  29
ATOM     29  C   UNL     1      -0.468   4.245   5.359  0.00  0.00    +0.065 A 
ATOM     30  C   UNL     1      -1.629   4.850   5.823  0.00  0.00    +0.028 A 
ATOM     31  C   UNL     1      -1.552   6.019   6.554  0.00  0.00    +0.002 A 
ATOM     32  C   UNL     1      -0.321   6.587   6.824  0.00  0.00    +0.000 A 
ATOM     33  C   UNL     1       0.837   5.988   6.364  0.00  0.00    +0.002 A 
ATOM     34  C   UNL     1       0.768   4.816   5.637  0.00  0.00    +0.028 A 
ENDBRANCH   6  29
TORSDOF 3
