REMARK  Name = ZINC39480513
REMARK  5 active torsions:
REMARK  status: ('A' for Active; 'I' for Inactive)
REMARK    1  A    between atoms: C_1  and  N_2
REMARK    2  A    between atoms: C_6  and  S_10
REMARK    3  A    between atoms: C_8  and  O_9
REMARK    4  A    between atoms: S_10  and  C_13
REMARK    5  A    between atoms: C_20  and  O_29
REMARK                            x       y       z     vdW  Elec       q    Type
REMARK                         _______ _______ _______ _____ _____    ______ ____
ROOT
ATOM      1  C   UNL     1      -0.018   1.461   0.010  0.00  0.00    +0.137 C 
ATOM      2  N   UNL     1       0.002  -0.004   0.002  0.00  0.00    -0.283 N 
ATOM      3  C   UNL     1      -1.245  -0.587   0.005  0.00  0.00    +0.081 A 
ATOM      4  C   UNL     1      -2.256   0.122   0.623  0.00  0.00    -0.012 A 
ATOM      5  C   UNL     1      -3.566   0.030   0.327  0.00  0.00    +0.033 A 
ATOM      6  C   UNL     1      -3.940  -1.082  -0.435  0.00  0.00    +0.097 A 
ATOM      7  C   UNL     1      -2.974  -1.990  -0.837  0.00  0.00    +0.074 A 
ATOM      8  C   UNL     1      -1.619  -1.763  -0.632  0.00  0.00    +0.140 A 
ATOM      9  C   UNL     1      -1.767   0.589   2.032  0.00  0.00    +0.132 C 
ATOM     10  C   UNL     1      -0.375  -0.033   1.994  0.00  0.00    +0.192 C 
ATOM     11  N   UNL     1       0.757   0.586   1.904  0.00  0.00    -0.211 NA
ATOM     12  C   UNL     1       1.754  -0.136   1.322  0.00  0.00    +0.144 A 
ATOM     13  C   UNL     1       1.257  -0.549  -0.013  0.00  0.00    +0.156 A 
ATOM     14  N   UNL     1       2.016  -1.237  -0.776  0.00  0.00    -0.218 NA
ATOM     15  C   UNL     1       3.237  -1.585  -0.381  0.00  0.00    +0.225 A 
ATOM     16  N   UNL     1       3.722  -1.245   0.797  0.00  0.00    -0.222 NA
ATOM     17  C   UNL     1       3.002  -0.523   1.676  0.00  0.00    +0.160 A 
ATOM     18 CL   UNL     1       3.656  -0.088   3.224  0.00  0.00    -0.060 Cl
ENDROOT
BRANCH   6  19
ATOM     19  S   UNL     1      -5.628  -1.325  -0.881  0.00  0.00    +0.025 S 
ATOM     20  O   UNL     1      -5.787  -2.716  -1.124  0.00  0.00    -0.164 OA
ATOM     21  O   UNL     1      -6.406  -0.626   0.080  0.00  0.00    -0.164 OA
BRANCH  19  22
ATOM     22  C   UNL     1      -5.881  -0.512  -2.423  0.00  0.00    +0.094 A 
ATOM     23  C   UNL     1      -6.273   0.813  -2.450  0.00  0.00    +0.027 A 
ATOM     24  C   UNL     1      -6.473   1.451  -3.660  0.00  0.00    +0.002 A 
ATOM     25  C   UNL     1      -6.280   0.764  -4.843  0.00  0.00    +0.000 A 
ATOM     26  C   UNL     1      -5.887  -0.561  -4.817  0.00  0.00    +0.002 A 
ATOM     27  C   UNL     1      -5.683  -1.198  -3.607  0.00  0.00    +0.027 A 
ENDBRANCH  19  22
ENDBRANCH   6  19
BRANCH   8  28
ATOM     28  O   UNL     1      -0.688  -2.664  -1.043  0.00  0.00    -0.505 OA
ATOM     29  H   UNL     1      -0.468  -3.333  -0.380  0.00  0.00    +0.292 HD
ENDBRANCH   8  28
BRANCH  10  30
ATOM     30  O   UNL     1      -0.318  -1.380   2.062  0.00  0.00    -0.495 OA
ATOM     31  H   UNL     1       0.580  -1.737   2.035  0.00  0.00    +0.293 HD
ENDBRANCH  10  30
TORSDOF 4
