REMARK  Name = ZINC02794076
REMARK  8 active torsions:
REMARK  status: ('A' for Active; 'I' for Inactive)
REMARK    1  A    between atoms: C_4  and  C_7
REMARK    2  A    between atoms: C_7  and  N_8
REMARK    3  A    between atoms: N_8  and  C_9
REMARK    4  A    between atoms: C_9  and  N_11
REMARK    5  A    between atoms: N_11  and  N_12
REMARK    6  A    between atoms: C_13  and  C_15
REMARK    7  A    between atoms: C_20  and  C_33
REMARK    8  A    between atoms: C_23  and  C_26
REMARK                            x       y       z     vdW  Elec       q    Type
REMARK                         _______ _______ _______ _____ _____    ______ ____
ROOT
ATOM      1  C   UNL     1       4.512  -1.150   6.309  0.00  0.00    +0.150 A 
ATOM      2  C   UNL     1       4.818  -1.313   7.679  0.00  0.00    +0.078 A 
ATOM      3  C   UNL     1       3.818  -0.755   8.389  0.00  0.00    +0.119 A 
ATOM      4  N   UNL     1       2.902  -0.250   7.509  0.00  0.00    -0.238 N 
ATOM      5  N   UNL     1       3.362  -0.506   6.218  0.00  0.00    -0.164 NA
ATOM      6  C   UNL     1       1.675   0.438   7.919  0.00  0.00    +0.215 C 
ATOM      7  C   UNL     1       1.831   0.909   9.370  0.00  0.00    +0.063 C 
ATOM      8  C   UNL     1       2.320  -0.250  10.245  0.00  0.00    +0.104 C 
ATOM      9  N   UNL     1       3.656  -0.663   9.774  0.00  0.00    -0.322 N 
ATOM     10  H   UNL     1       4.380  -0.860  10.390  0.00  0.00    +0.148 HD
ENDROOT
BRANCH   8  11
ATOM     11  C   UNL     1       2.402   0.200  11.681  0.00  0.00    -0.027 A 
ATOM     12  C   UNL     1       3.486   0.941  12.112  0.00  0.00    +0.007 A 
ATOM     13  C   UNL     1       3.561   1.354  13.429  0.00  0.00    +0.020 A 
ATOM     14  C   UNL     1       2.552   1.025  14.316  0.00  0.00    +0.041 A 
ATOM     15  C   UNL     1       1.467   0.283  13.884  0.00  0.00    +0.020 A 
ATOM     16  C   UNL     1       1.390  -0.124  12.566  0.00  0.00    +0.007 A 
ATOM     17 CL   UNL     1       2.647   1.543  15.970  0.00  0.00    -0.084 Cl
ENDBRANCH   8  11
BRANCH   1  19
ATOM     18  N   UNL     1       4.933  -1.387   3.909  0.00  0.00    -0.230 N 
ATOM     19  C   UNL     1       5.338  -1.613   5.175  0.00  0.00    +0.280 C 
ATOM     20  O   UNL     1       6.384  -2.197   5.383  0.00  0.00    -0.267 OA
ATOM     21  H   UNL     1       4.099  -0.921   3.743  0.00  0.00    +0.173 HD
BRANCH  18  22
ATOM     22  N   UNL     1       5.716  -1.826   2.834  0.00  0.00    -0.246 N 
ATOM     23  H   UNL     1       6.550  -2.292   3.000  0.00  0.00    +0.172 HD
BRANCH  22  24
ATOM     24  C   UNL     1       5.311  -1.601   1.569  0.00  0.00    +0.147 C 
ATOM     25  S   UNL     1       6.268  -2.137   0.255  0.00  0.00    -0.017 S 
BRANCH  24  26
ATOM     26  N   UNL     1       4.152  -0.952   1.338  0.00  0.00    -0.321 N 
ATOM     27  H   UNL     1       3.610  -0.648   2.082  0.00  0.00    +0.148 HD
BRANCH  26  28
ATOM     28  C   UNL     1       3.711  -0.707  -0.038  0.00  0.00    +0.138 C 
BRANCH  28  32
ATOM     29  C   UNL     1      -0.017   1.378   0.010  0.00  0.00    +0.000 A 
ATOM     30  C   UNL     1       1.171   2.086   0.002  0.00  0.00    +0.000 A 
ATOM     31  C   UNL     1       2.377   1.411  -0.013  0.00  0.00    +0.005 A 
ATOM     32  C   UNL     1       2.396   0.029  -0.020  0.00  0.00    -0.030 A 
ATOM     33  C   UNL     1       1.208  -0.679  -0.012  0.00  0.00    +0.005 A 
ATOM     34  C   UNL     1       0.002  -0.004   0.002  0.00  0.00    +0.000 A 
ENDBRANCH  28  32
ENDBRANCH  26  28
ENDBRANCH  24  26
ENDBRANCH  22  24
ENDBRANCH  18  22
ENDBRANCH   1  19
BRANCH   6  35
ATOM     35  C   UNL     1       1.435   1.645   7.009  0.00  0.00    +0.412 C 
ATOM     36  F   UNL     1       1.306   1.211   5.685  0.00  0.00    -0.168 F 
ATOM     37  F   UNL     1       0.263   2.300   7.402  0.00  0.00    -0.168 F 
ATOM     38  F   UNL     1       2.518   2.526   7.108  0.00  0.00    -0.168 F 
ENDBRANCH   6  35
TORSDOF 8
