REMARK  Name = ZINC64131661
REMARK  14 active torsions:
REMARK  status: ('A' for Active; 'I' for Inactive)
REMARK    1  A    between atoms: C_1  and  C_2
REMARK    2  A    between atoms: C_2  and  C_3
REMARK    3  A    between atoms: C_2  and  C_4
REMARK    4  A    between atoms: C_4  and  C_5
REMARK    5  A    between atoms: C_10  and  N_30
REMARK    6  A    between atoms: C_12  and  C_16
REMARK    7  A    between atoms: N_14  and  C_15
REMARK    8  A    between atoms: N_18  and  C_19
REMARK    9  A    between atoms: C_19  and  C_20
REMARK   10  A    between atoms: C_20  and  C_21
REMARK   11  A    between atoms: N_30  and  S_31
REMARK   12  A    between atoms: S_31  and  N_34
REMARK   13  A    between atoms: N_34  and  C_35
REMARK   14  A    between atoms: N_34  and  C_36
REMARK                            x       y       z     vdW  Elec       q    Type
REMARK                         _______ _______ _______ _____ _____    ______ ____
ROOT
ATOM      1  C   UNL     1      -0.118   0.505   3.450  0.00  0.00    +0.158 C 
ATOM      2  N   UNL     1      -1.378  -0.221   3.253  0.00  0.00    -0.324 N 
ATOM      3  C   UNL     1      -1.348  -1.340   4.097  0.00  0.00    +0.052 A 
ATOM      4  C   UNL     1      -2.287  -2.344   4.293  0.00  0.00    +0.049 A 
ATOM      5  C   UNL     1      -2.041  -3.372   5.195  0.00  0.00    +0.052 A 
ATOM      6  C   UNL     1      -0.855  -3.405   5.907  0.00  0.00    +0.039 A 
ATOM      7  C   UNL     1       0.098  -2.400   5.718  0.00  0.00    +0.061 A 
ATOM      8  C   UNL     1      -0.151  -1.361   4.807  0.00  0.00    +0.064 A 
ATOM      9  N   UNL     1       0.633  -0.261   4.452  0.00  0.00    -0.313 N 
ATOM     10  C   UNL     1       1.959   0.069   4.980  0.00  0.00    +0.131 C 
ATOM     11  H   UNL     1      -2.098   0.028   2.653  0.00  0.00    +0.148 HD
ENDROOT
BRANCH   7  12
ATOM     12  C   UNL     1       1.363  -2.430   6.476  0.00  0.00    +0.246 C 
ATOM     13  O   UNL     1       1.744  -1.436   7.062  0.00  0.00    -0.270 OA
ATOM     14  N   UNL     1       2.096  -3.560   6.518  0.00  0.00    -0.311 N 
ATOM     15  H   UNL     1       1.758  -4.373   6.110  0.00  0.00    +0.149 HD
BRANCH  14  16
ATOM     16  C   UNL     1       3.404  -3.561   7.179  0.00  0.00    +0.109 C 
BRANCH  16  17
ATOM     17  C   UNL     1       4.022  -4.957   7.085  0.00  0.00    +0.052 C 
BRANCH  17  18
ATOM     18  C   UNL     1       5.367  -4.958   7.765  0.00  0.00    -0.040 C 
ATOM     19  C   UNL     1       5.633  -5.326   9.039  0.00  0.00    -0.001 A 
ATOM     20  C   UNL     1       4.784  -5.815  10.131  0.00  0.00    +0.010 A 
ATOM     21  C   UNL     1       5.351  -6.107  11.324  0.00  0.00    +0.001 A 
ATOM     22  C   UNL     1       6.728  -5.954  11.542  0.00  0.00    +0.002 A 
ATOM     23  C   UNL     1       7.572  -5.510  10.588  0.00  0.00    +0.026 A 
ATOM     24  C   UNL     1       7.083  -5.173   9.295  0.00  0.00    +0.043 A 
ATOM     25  N   UNL     1       7.690  -4.729   8.221  0.00  0.00    -0.380 N 
ATOM     26  C   UNL     1       6.692  -4.554   7.159  0.00  0.00    +0.144 C 
ATOM     27  H   UNL     1       8.639  -4.549   8.140  0.00  0.00    +0.160 HD
ENDBRANCH  17  18
ENDBRANCH  16  17
ENDBRANCH  14  16
ENDBRANCH   7  12
BRANCH   5  28
ATOM     28  N   UNL     1      -2.996  -4.378   5.384  0.00  0.00    -0.206 N 
ATOM     29  H   UNL     1      -3.804  -4.192   5.887  0.00  0.00    +0.175 HD
BRANCH  28  30
ATOM     30  S   UNL     1      -2.746  -5.887   4.749  0.00  0.00    +0.111 S 
ATOM     31  O   UNL     1      -1.427  -6.268   5.115  0.00  0.00    -0.138 OA
ATOM     32  O   UNL     1      -3.885  -6.665   5.090  0.00  0.00    -0.138 OA
BRANCH  30  33
ATOM     33  N   UNL     1      -2.753  -5.732   3.101  0.00  0.00    -0.170 NA
ATOM     34  C   UNL     1      -1.491  -5.577   2.374  0.00  0.00    +0.132 C 
ATOM     35  C   UNL     1      -4.022  -5.752   2.369  0.00  0.00    +0.132 C 
ENDBRANCH  30  33
ENDBRANCH  28  30
ENDBRANCH   5  28
BRANCH   1  36
ATOM     36  C   UNL     1       0.666   0.568   2.137  0.00  0.00    +0.045 C 
BRANCH  36  38
ATOM     37  C   UNL     1      -0.123   2.889   1.654  0.00  0.00    +0.007 C 
ATOM     38  C   UNL     1      -0.085   1.450   1.137  0.00  0.00    -0.014 C 
ATOM     39  C   UNL     1       0.632   1.412  -0.214  0.00  0.00    +0.007 C 
ENDBRANCH  36  38
ENDBRANCH   1  36
TORSDOF 9
