REMARK  Name = ZINC14458849
REMARK  9 active torsions:
REMARK  status: ('A' for Active; 'I' for Inactive)
REMARK    1  A    between atoms: C_1  and  O_2
REMARK    2  A    between atoms: O_2  and  C_3
REMARK    3  A    between atoms: C_6  and  N_9
REMARK    4  A    between atoms: N_9  and  S_10
REMARK    5  A    between atoms: S_10  and  C_13
REMARK    6  A    between atoms: C_26  and  C_29
REMARK    7  A    between atoms: C_32  and  O_37
REMARK    8  A    between atoms: C_33  and  O_35
REMARK    9  A    between atoms: O_35  and  C_36
REMARK                            x       y       z     vdW  Elec       q    Type
REMARK                         _______ _______ _______ _____ _____    ______ ____
ROOT
ATOM      1  C   UNL     1      -0.376   1.589  -0.135  0.00  0.00    +0.109 A 
ATOM      2  C   UNL     1      -1.683   2.037  -0.191  0.00  0.00    +0.030 A 
ATOM      3  C   UNL     1      -1.939   3.392  -0.268  0.00  0.00    +0.025 A 
ATOM      4  C   UNL     1      -0.885   4.297  -0.302  0.00  0.00    +0.031 A 
ATOM      5  C   UNL     1       0.426   3.852  -0.252  0.00  0.00    -0.018 A 
ATOM      6  C   UNL     1       0.670   2.488  -0.168  0.00  0.00    +0.034 A 
ATOM      7  C   UNL     1       1.592   4.789  -0.283  0.00  0.00    +0.049 C 
ATOM      8  C   UNL     1       2.276   4.774  -1.629  0.00  0.00    -0.023 C 
ATOM      9  C   UNL     1       2.713   5.959  -1.939  0.00  0.00    -0.030 C 
ATOM     10  C   UNL     1       2.362   6.952  -0.848  0.00  0.00    +0.033 C 
ATOM     11  C   UNL     1       1.183   6.263  -0.100  0.00  0.00    +0.029 C 
ATOM     12  C   UNL     1      -0.093   6.554  -0.895  0.00  0.00    +0.105 C 
ATOM     13  N   UNL     1      -1.159   5.664  -0.424  0.00  0.00    -0.336 N 
ATOM     14  H   UNL     1      -2.033   6.015  -0.191  0.00  0.00    +0.147 HD
ENDROOT
BRANCH  12  15
ATOM     15  C   UNL     1      -0.503   7.989  -0.684  0.00  0.00    -0.023 A 
ATOM     16  C   UNL     1      -1.179   8.351   0.466  0.00  0.00    +0.009 A 
ATOM     17  C   UNL     1      -1.557   9.666   0.664  0.00  0.00    +0.049 A 
ATOM     18  C   UNL     1      -1.258  10.624  -0.291  0.00  0.00    +0.158 A 
ATOM     19  C   UNL     1      -0.578  10.259  -1.449  0.00  0.00    +0.162 A 
ATOM     20  C   UNL     1      -0.197   8.941  -1.639  0.00  0.00    +0.054 A 
BRANCH  19  21
ATOM     21  O   UNL     1      -0.282  11.196  -2.389  0.00  0.00    -0.491 OA
ATOM     22  C   UNL     1       0.418  10.750  -3.552  0.00  0.00    +0.277 C 
ENDBRANCH  19  21
BRANCH  18  23
ATOM     23  O   UNL     1      -1.628  11.918  -0.097  0.00  0.00    -0.503 OA
ATOM     24  H   UNL     1      -0.965  12.453   0.360  0.00  0.00    +0.292 HD
ENDBRANCH  18  23
ENDBRANCH  12  15
BRANCH   1  25
ATOM     25  S   UNL     1      -0.046  -0.139  -0.029  0.00  0.00    +0.072 S 
ATOM     26  O   UNL     1      -1.230  -0.805  -0.446  0.00  0.00    -0.150 OA
ATOM     27  O   UNL     1       1.210  -0.351  -0.659  0.00  0.00    -0.150 OA
BRANCH  25  28
ATOM     28  N   UNL     1       0.162  -0.500   1.574  0.00  0.00    -0.216 N 
ATOM     29  H   UNL     1       1.018  -0.830   1.890  0.00  0.00    +0.174 HD
BRANCH  28  33
ATOM     30  C   UNL     1      -2.994   0.005   4.250  0.00  0.00    +0.120 A 
ATOM     31  C   UNL     1      -3.004  -1.058   3.359  0.00  0.00    +0.047 A 
ATOM     32  C   UNL     1      -1.959  -1.226   2.473  0.00  0.00    +0.028 A 
ATOM     33  C   UNL     1      -0.898  -0.330   2.472  0.00  0.00    +0.048 A 
ATOM     34  C   UNL     1      -0.886   0.731   3.368  0.00  0.00    +0.028 A 
ATOM     35  C   UNL     1      -1.935   0.901   4.250  0.00  0.00    +0.047 A 
BRANCH  30  37
ATOM     36  C   UNL     1      -3.948   1.286   6.012  0.00  0.00    +0.277 C 
ATOM     37  O   UNL     1      -4.023   0.170   5.123  0.00  0.00    -0.495 OA
ENDBRANCH  30  37
ENDBRANCH  28  33
ENDBRANCH  25  28
ENDBRANCH   1  25
TORSDOF 7
