REMARK  Name = ZINC63666767
REMARK  9 active torsions:
REMARK  status: ('A' for Active; 'I' for Inactive)
REMARK    1  A    between atoms: C_1  and  C_2
REMARK    2  A    between atoms: C_8  and  C_11
REMARK    3  A    between atoms: C_11  and  C_12
REMARK    4  A    between atoms: C_12  and  N_13
REMARK    5  A    between atoms: C_14  and  C_16
REMARK    6  A    between atoms: C_16  and  C_17
REMARK    7  A    between atoms: C_17  and  C_18
REMARK    8  A    between atoms: C_28  and  C_38
REMARK    9  A    between atoms: N_31  and  C_32
REMARK                            x       y       z     vdW  Elec       q    Type
REMARK                         _______ _______ _______ _____ _____    ______ ____
ROOT
ATOM      1  C   UNL     1      -3.969  -2.393   8.313  0.00  0.00    +0.105 C 
ENDROOT
BRANCH   1   2
ATOM      2  C   UNL     1      -3.966  -2.132   9.797  0.00  0.00    +0.216 C 
ATOM      3  O   UNL     1      -2.920  -1.923  10.375  0.00  0.00    -0.276 OA
ATOM      4  N   UNL     1      -5.127  -2.131  10.483  0.00  0.00    -0.293 N 
ATOM      5  C   UNL     1      -6.359  -2.393   9.744  0.00  0.00    +0.119 C 
ATOM      6  C   UNL     1      -6.982  -3.686  10.290  0.00  0.00    +0.090 C 
ATOM      7  S   UNL     1      -7.335  -3.436  12.053  0.00  0.00    -0.134 S 
ATOM      8  C   UNL     1      -5.726  -2.971  12.762  0.00  0.00    +0.170 C 
ATOM      9  C   UNL     1      -5.072  -1.877  11.897  0.00  0.00    +0.126 C 
ATOM     10  C   UNL     1      -5.893  -0.646  12.331  0.00  0.00    +0.093 C 
ATOM     11  N   UNL     1      -6.140  -0.914  13.768  0.00  0.00    -0.234 NA
ATOM     12  N   UNL     1      -6.006  -2.240  14.024  0.00  0.00    -0.252 N 
ATOM     13  C   UNL     1      -5.084   0.639  12.146  0.00  0.00    +0.027 C 
ATOM     14  H   UNL     1      -7.052  -0.582  14.047  0.00  0.00    +0.145 HD
BRANCH  12  15
ATOM     15  C   UNL     1      -6.114  -2.828  15.287  0.00  0.00    +0.046 A 
ATOM     16  C   UNL     1      -5.949  -4.200  15.432  0.00  0.00    +0.024 A 
ATOM     17  C   UNL     1      -6.056  -4.778  16.681  0.00  0.00    +0.002 A 
ATOM     18  C   UNL     1      -6.326  -3.993  17.788  0.00  0.00    +0.000 A 
ATOM     19  C   UNL     1      -6.490  -2.627  17.647  0.00  0.00    +0.002 A 
ATOM     20  C   UNL     1      -6.379  -2.042  16.401  0.00  0.00    +0.024 A 
ENDBRANCH  12  15
ENDBRANCH   1   2
BRANCH   1  21
ATOM     21  C   UNL     1      -2.534  -2.338   7.783  0.00  0.00    +0.105 C 
BRANCH  21  23
ATOM     22  N   UNL     1      -1.377  -2.600   5.613  0.00  0.00    -0.315 N 
ATOM     23  C   UNL     1      -2.537  -2.599   6.299  0.00  0.00    +0.213 C 
ATOM     24  O   UNL     1      -3.583  -2.808   5.722  0.00  0.00    -0.276 OA
ATOM     25  H   UNL     1      -0.540  -2.433   6.075  0.00  0.00    +0.149 HD
BRANCH  22  26
ATOM     26  C   UNL     1      -1.379  -2.854   4.170  0.00  0.00    +0.108 C 
BRANCH  26  27
ATOM     27  C   UNL     1       0.055  -2.799   3.641  0.00  0.00    +0.052 C 
BRANCH  27  35
ATOM     28  C   UNL     1      -0.018   1.503   0.010  0.00  0.00    +0.044 C 
ATOM     29  C   UNL     1       0.002  -0.004   0.002  0.00  0.00    -0.050 A 
ATOM     30  C   UNL     1       0.005  -0.680  -1.226  0.00  0.00    +0.005 A 
ATOM     31  C   UNL     1       0.023  -2.026  -1.317  0.00  0.00    +0.026 A 
ATOM     32  C   UNL     1       0.039  -2.826  -0.141  0.00  0.00    +0.043 A 
ATOM     33  N   UNL     1       0.057  -4.126   0.030  0.00  0.00    -0.380 N 
ATOM     34  C   UNL     1       0.067  -4.408   1.470  0.00  0.00    +0.144 C 
ATOM     35  C   UNL     1       0.052  -3.060   2.156  0.00  0.00    -0.040 C 
ATOM     36  C   UNL     1       0.036  -2.137   1.168  0.00  0.00    -0.001 A 
ATOM     37  C   UNL     1       0.022  -0.669   1.180  0.00  0.00    +0.013 A 
ATOM     38  H   UNL     1       0.062  -4.790  -0.677  0.00  0.00    +0.160 HD
ENDBRANCH  27  35
ENDBRANCH  26  27
ENDBRANCH  22  26
ENDBRANCH  21  23
ENDBRANCH   1  21
TORSDOF 7
