REMARK  Name = ZINC35747353
REMARK  13 active torsions:
REMARK  status: ('A' for Active; 'I' for Inactive)
REMARK    1  A    between atoms: C_1  and  O_2
REMARK    2  A    between atoms: O_2  and  C_3
REMARK    3  A    between atoms: C_3  and  C_4
REMARK    4  A    between atoms: C_4  and  N_5
REMARK    5  A    between atoms: N_5  and  C_6
REMARK    6  A    between atoms: N_5  and  C_25
REMARK    7  A    between atoms: C_6  and  C_7
REMARK    8  A    between atoms: C_13  and  C_18
REMARK    9  A    between atoms: C_25  and  C_26
REMARK   10  A    between atoms: C_26  and  C_28
REMARK   11  A    between atoms: C_26  and  O_36
REMARK   12  A    between atoms: C_28  and  O_29
REMARK   13  A    between atoms: O_29  and  C_30
REMARK                            x       y       z     vdW  Elec       q    Type
REMARK                         _______ _______ _______ _____ _____    ______ ____
ROOT
ATOM      1  C   UNL     1       1.067  -3.943  -0.553  0.00  0.00    -0.003 C 
ENDROOT
BRANCH   1   2
ATOM      2  C   UNL     1      -0.404  -4.165  -0.794  0.00  0.00    +0.094 A 
ATOM      3  N   UNL     1      -0.849  -5.409  -1.106  0.00  0.00    -0.312 N 
ATOM      4  H   UNL     1      -0.213  -6.139  -1.170  0.00  0.00    +0.170 HD
ATOM      5  C   UNL     1      -2.154  -5.649  -1.329  0.00  0.00    +0.260 A 
ATOM      6  O   UNL     1      -2.538  -6.772  -1.608  0.00  0.00    -0.267 OA
ATOM      7  C   UNL     1      -3.086  -4.567  -1.232  0.00  0.00    +0.080 A 
ATOM      8  C   UNL     1      -4.531  -4.573  -1.424  0.00  0.00    +0.004 A 
ATOM      9  C   UNL     1      -5.212  -3.411  -1.278  0.00  0.00    +0.056 A 
ATOM     10  S   UNL     1      -3.938  -2.233  -0.869  0.00  0.00    -0.076 S 
ATOM     11  C   UNL     1      -2.534  -3.317  -0.904  0.00  0.00    +0.116 A 
ATOM     12  N   UNL     1      -1.230  -3.158  -0.693  0.00  0.00    -0.229 NA
BRANCH   8  13
ATOM     13  C   UNL     1      -5.241  -5.826  -1.774  0.00  0.00    -0.016 A 
ATOM     14  C   UNL     1      -4.780  -6.622  -2.822  0.00  0.00    +0.010 A 
ATOM     15  C   UNL     1      -5.445  -7.787  -3.144  0.00  0.00    +0.020 A 
ATOM     16  C   UNL     1      -6.566  -8.168  -2.427  0.00  0.00    +0.041 A 
ATOM     17  C   UNL     1      -7.028  -7.381  -1.385  0.00  0.00    +0.020 A 
ATOM     18  C   UNL     1      -6.368  -6.216  -1.052  0.00  0.00    +0.010 A 
ATOM     19 CL   UNL     1      -7.398  -9.636  -2.837  0.00  0.00    -0.084 Cl
ENDBRANCH   8  13
ENDBRANCH   1   2
BRANCH   1  20
ATOM     20  N   UNL     1       1.302  -2.530  -0.227  0.00  0.00    +0.388 N 
ATOM     21  H   UNL     1       0.922  -1.948  -0.959  0.00  0.00    -0.081 HD
BRANCH  20  22
ATOM     22  C   UNL     1       0.646  -2.205   1.046  0.00  0.00    -0.050 C 
BRANCH  22  23
ATOM     23  C   UNL     1       0.756  -0.702   1.308  0.00  0.00    +0.141 C 
BRANCH  23  25
ATOM     24  C   UNL     1       0.088   1.432   0.445  0.00  0.00    +0.193 C 
ATOM     25  O   UNL     1       0.048   0.012   0.293  0.00  0.00    -0.385 OA
ENDBRANCH  23  25
ENDBRANCH  22  23
ENDBRANCH  20  22
BRANCH  20  26
ATOM     26  C   UNL     1       2.746  -2.288  -0.110  0.00  0.00    -0.043 C 
BRANCH  26  27
ATOM     27  C   UNL     1       3.409  -2.485  -1.475  0.00  0.00    +0.135 C 
BRANCH  27  28
ATOM     28  O   UNL     1       2.851  -1.563  -2.413  0.00  0.00    -0.390 OA
ATOM     29  H   UNL     1       3.034  -0.636  -2.210  0.00  0.00    +0.210 HD
ENDBRANCH  27  28
BRANCH  27  30
ATOM     30  C   UNL     1       4.914  -2.239  -1.352  0.00  0.00    +0.258 C 
BRANCH  30  31
ATOM     31  O   UNL     1       5.549  -2.536  -2.597  0.00  0.00    -0.489 OA
BRANCH  31  32
ATOM     32  C   UNL     1       6.896  -2.368  -2.658  0.00  0.00    +0.121 A 
ATOM     33  C   UNL     1       7.593  -1.933  -1.541  0.00  0.00    +0.045 A 
ATOM     34  C   UNL     1       8.963  -1.764  -1.605  0.00  0.00    +0.004 A 
ATOM     35  C   UNL     1       9.639  -2.028  -2.783  0.00  0.00    +0.000 A 
ATOM     36  C   UNL     1       8.946  -2.462  -3.898  0.00  0.00    +0.004 A 
ATOM     37  C   UNL     1       7.577  -2.638  -3.836  0.00  0.00    +0.045 A 
ENDBRANCH  31  32
ENDBRANCH  30  31
ENDBRANCH  27  30
ENDBRANCH  26  27
ENDBRANCH  20  26
ENDBRANCH   1  20
TORSDOF 12
