REMARK  Name = ZINC09242878
REMARK  7 active torsions:
REMARK  status: ('A' for Active; 'I' for Inactive)
REMARK    1  A    between atoms: C_1  and  C_2
REMARK    2  A    between atoms: C_2  and  O_3
REMARK    3  A    between atoms: O_3  and  C_4
REMARK    4  A    between atoms: C_9  and  C_10
REMARK    5  A    between atoms: C_10  and  C_12
REMARK    6  A    between atoms: C_33  and  C_40
REMARK    7  A    between atoms: C_34  and  C_39
REMARK                            x       y       z     vdW  Elec       q    Type
REMARK                         _______ _______ _______ _____ _____    ______ ____
ROOT
ATOM      1  C   UNL     1       1.745   2.663   1.219  0.00  0.00    +0.066 C 
ATOM      2  C   UNL     1       1.603   4.101   0.692  0.00  0.00    -0.055 C 
ATOM      3  C   UNL     1       0.256   4.686   1.161  0.00  0.00    -0.016 C 
ATOM      4  C   UNL     1      -0.236   5.470  -0.084  0.00  0.00    -0.020 C 
ATOM      5  C   UNL     1       0.255   4.562  -1.238  0.00  0.00    -0.076 C 
ATOM      6  C   UNL     1       1.721   2.641  -1.202  0.00  0.00    +0.060 C 
ATOM      7  C   UNL     1       1.410   1.775   0.014  0.00  0.00    +0.085 C 
ATOM      8  C   UNL     1       2.212   0.505   0.022  0.00  0.00    -0.011 A 
ATOM      9  C   UNL     1       3.562   0.235   0.013  0.00  0.00    +0.006 A 
ATOM     10  C   UNL     1       4.006  -1.075   0.024  0.00  0.00    +0.000 A 
ATOM     11  C   UNL     1       3.091  -2.112   0.044  0.00  0.00    +0.002 A 
ATOM     12  C   UNL     1       1.738  -1.847   0.054  0.00  0.00    +0.023 A 
ATOM     13  C   UNL     1       1.282  -0.531   0.044  0.00  0.00    +0.038 A 
ATOM     14  N   UNL     1      -0.016  -0.014   0.051  0.00  0.00    -0.285 N 
ATOM     15  C   UNL     1      -0.027   1.333   0.036  0.00  0.00    +0.228 C 
ATOM     16  O   UNL     1      -1.006   2.049   0.036  0.00  0.00    -0.275 OA
ATOM     17  C   UNL     1       0.815   2.310  -2.358  0.00  0.00    -0.026 A 
ATOM     18  C   UNL     1      -0.551   2.342  -2.525  0.00  0.00    +0.005 A 
ATOM     19  C   UNL     1      -1.109   1.968  -3.735  0.00  0.00    +0.004 A 
ATOM     20  C   UNL     1      -0.290   1.562  -4.774  0.00  0.00    -0.046 A 
ATOM     21  C   UNL     1       1.079   1.529  -4.610  0.00  0.00    -0.026 A 
ATOM     22  C   UNL     1       1.648   1.906  -3.395  0.00  0.00    +0.039 A 
ATOM     23  N   UNL     1       2.983   1.959  -2.990  0.00  0.00    -0.286 N 
ATOM     24  C   UNL     1       3.113   2.381  -1.719  0.00  0.00    +0.212 C 
ATOM     25  O   UNL     1       4.150   2.526  -1.107  0.00  0.00    -0.277 OA
ATOM     26  C   UNL     1       1.962   1.085  -5.748  0.00  0.00    +0.046 C 
ATOM     27  C   UNL     1      -0.897   1.153  -6.091  0.00  0.00    +0.044 C 
ATOM     28  H   UNL     1      -0.816  -0.562   0.065  0.00  0.00    +0.155 HD
ATOM     29  H   UNL     1       3.731   1.718  -3.559  0.00  0.00    +0.155 HD
ATOM     30  N   UNL     1       1.558   4.042  -0.772  0.00  0.00    +0.395 N 
ATOM     31  H   UNL     1       2.317   4.612  -1.165  0.00  0.00    -0.079 HD
ENDROOT
BRANCH   1  32
ATOM     32  C   UNL     1       3.157   2.410   1.682  0.00  0.00    +0.169 C 
ATOM     33  O   UNL     1       4.070   3.071   1.234  0.00  0.00    -0.292 OA
BRANCH  32  39
ATOM     34  C   UNL     1       4.742   1.121   3.107  0.00  0.00    +0.131 A 
ATOM     35  C   UNL     1       4.983   0.133   4.050  0.00  0.00    +0.046 A 
ATOM     36  C   UNL     1       3.937  -0.614   4.554  0.00  0.00    +0.004 A 
ATOM     37  C   UNL     1       2.638  -0.381   4.129  0.00  0.00    +0.001 A 
ATOM     38  C   UNL     1       2.377   0.599   3.197  0.00  0.00    +0.015 A 
ATOM     39  C   UNL     1       3.427   1.364   2.676  0.00  0.00    +0.059 A 
BRANCH  34  40
ATOM     40  O   UNL     1       5.769   1.851   2.606  0.00  0.00    -0.492 OA
BRANCH  40  42
ATOM     41  C   UNL     1       8.098   2.466   2.417  0.00  0.00    +0.048 C 
ATOM     42  C   UNL     1       7.078   1.546   3.091  0.00  0.00    +0.226 C 
ENDBRANCH  40  42
ENDBRANCH  34  40
ENDBRANCH  32  39
ENDBRANCH   1  32
TORSDOF 4
