REMARK  Name = ZINC15636412
REMARK  7 active torsions:
REMARK  status: ('A' for Active; 'I' for Inactive)
REMARK    1  A    between atoms: C_1  and  C_2
REMARK    2  A    between atoms: C_2  and  O_3
REMARK    3  A    between atoms: O_3  and  C_4
REMARK    4  A    between atoms: C_4  and  C_6
REMARK    5  A    between atoms: C_7  and  C_23
REMARK    6  A    between atoms: C_12  and  C_14
REMARK    7  A    between atoms: C_19  and  O_20
REMARK                            x       y       z     vdW  Elec       q    Type
REMARK                         _______ _______ _______ _____ _____    ______ ____
ROOT
ATOM      1  C   UNL     1      -0.774   1.746   3.401  0.00  0.00    +0.078 C 
ATOM      2  C   UNL     1      -0.226   1.103   4.454  0.00  0.00    +0.021 C 
ATOM      3  N   UNL     1      -0.871   1.043   5.656  0.00  0.00    -0.273 N 
ATOM      4  C   UNL     1      -2.071   1.592   5.883  0.00  0.00    +0.304 C 
ATOM      5  O   UNL     1      -2.568   1.483   6.987  0.00  0.00    -0.252 OA
ATOM      6  N   UNL     1      -2.746   2.263   4.928  0.00  0.00    -0.288 N 
ATOM      7  C   UNL     1      -2.133   2.389   3.595  0.00  0.00    +0.147 C 
ATOM      8  C   UNL     1       1.121   0.446   4.302  0.00  0.00    +0.061 C 
ATOM      9  H   UNL     1      -0.437   0.574   6.386  0.00  0.00    +0.156 HD
ATOM     10  H   UNL     1      -3.614   2.652   5.114  0.00  0.00    +0.151 HD
ENDROOT
BRANCH   7  11
ATOM     11  C   UNL     1      -3.080   1.786   2.590  0.00  0.00    +0.021 A 
ATOM     12  C   UNL     1      -2.773   0.581   1.987  0.00  0.00    +0.024 A 
ATOM     13  C   UNL     1      -3.642   0.027   1.065  0.00  0.00    +0.019 A 
ATOM     14  C   UNL     1      -4.820   0.677   0.744  0.00  0.00    +0.034 A 
ATOM     15  C   UNL     1      -5.131   1.882   1.344  0.00  0.00    +0.061 A 
ATOM     16  C   UNL     1      -4.263   2.437   2.274  0.00  0.00    +0.136 A 
ATOM     17 BR   UNL     1      -6.742   2.770   0.906  0.00  0.00    -0.046 Br
ATOM     18 BR   UNL     1      -3.218  -1.622   0.241  0.00  0.00    -0.050 Br
BRANCH  16  19
ATOM     19  O   UNL     1      -4.569   3.619   2.871  0.00  0.00    -0.505 OA
ATOM     20  H   UNL     1      -4.313   4.397   2.357  0.00  0.00    +0.292 HD
ENDBRANCH  16  19
ENDBRANCH   7  11
BRANCH   1  21
ATOM     21  C   UNL     1      -0.105   1.813   2.156  0.00  0.00    +0.339 C 
ATOM     22  O   UNL     1       0.962   1.248   2.008  0.00  0.00    -0.245 OA
BRANCH  21  23
ATOM     23  O   UNL     1      -0.651   2.504   1.133  0.00  0.00    -0.462 OA
BRANCH  23  25
ATOM     24  C   UNL     1      -0.803   3.173  -1.184  0.00  0.00    +0.048 C 
ATOM     25  C   UNL     1       0.022   2.438  -0.126  0.00  0.00    +0.229 C 
ENDBRANCH  23  25
ENDBRANCH  21  23
ENDBRANCH   1  21
TORSDOF 5
