REMARK  Name = ZINC00925553
REMARK  14 active torsions:
REMARK  status: ('A' for Active; 'I' for Inactive)
REMARK    1  A    between atoms: C_1  and  C_2
REMARK    2  A    between atoms: C_2  and  C_3
REMARK    3  A    between atoms: C_2  and  C_4
REMARK    4  A    between atoms: C_2  and  C_5
REMARK    5  A    between atoms: C_8  and  S_11
REMARK    6  A    between atoms: S_11  and  N_14
REMARK    7  A    between atoms: N_14  and  C_15
REMARK    8  A    between atoms: N_14  and  C_24
REMARK    9  A    between atoms: C_15  and  C_16
REMARK   10  A    between atoms: C_19  and  O_22
REMARK   11  A    between atoms: O_22  and  C_23
REMARK   12  A    between atoms: C_24  and  C_25
REMARK   13  A    between atoms: C_29  and  O_37
REMARK   14  A    between atoms: O_37  and  C_38
REMARK                            x       y       z     vdW  Elec       q    Type
REMARK                         _______ _______ _______ _____ _____    ______ ____
ROOT
ATOM      1  N   UNL     1       1.052  -2.852  -1.549  0.00  0.00    -0.168 NA
ENDROOT
BRANCH   1   2
ATOM      2  S   UNL     1       1.124  -2.120  -0.065  0.00  0.00    +0.061 S 
ATOM      3  O   UNL     1       2.260  -2.657   0.599  0.00  0.00    -0.153 OA
ATOM      4  O   UNL     1      -0.184  -2.189   0.486  0.00  0.00    -0.153 OA
BRANCH   2   8
ATOM      5  C   UNL     1       1.996   2.265  -0.775  0.00  0.00    -0.042 A 
ATOM      6  C   UNL     1       0.694   1.841  -0.586  0.00  0.00    +0.006 A 
ATOM      7  C   UNL     1       0.428   0.502  -0.369  0.00  0.00    +0.029 A 
ATOM      8  C   UNL     1       1.464  -0.413  -0.342  0.00  0.00    +0.106 A 
ATOM      9  C   UNL     1       2.765   0.011  -0.532  0.00  0.00    +0.029 A 
ATOM     10  C   UNL     1       3.032   1.350  -0.750  0.00  0.00    +0.006 A 
BRANCH   5  12
ATOM     11  C   UNL     1       1.803   4.542   0.188  0.00  0.00    +0.015 C 
ATOM     12  C   UNL     1       2.287   3.725  -1.012  0.00  0.00    -0.013 C 
ATOM     13  C   UNL     1       3.793   3.923  -1.190  0.00  0.00    +0.015 C 
ATOM     14  C   UNL     1       1.559   4.192  -2.274  0.00  0.00    +0.015 C 
ENDBRANCH   5  12
ENDBRANCH   2   8
ENDBRANCH   1   2
BRANCH   1  15
ATOM     15  C   UNL     1       2.283  -3.301  -2.204  0.00  0.00    +0.145 C 
BRANCH  15  16
ATOM     16  C   UNL     1       2.514  -4.758  -1.896  0.00  0.00    -0.031 A 
ATOM     17  C   UNL     1       3.254  -5.120  -0.786  0.00  0.00    +0.008 A 
ATOM     18  C   UNL     1       3.462  -6.455  -0.498  0.00  0.00    +0.046 A 
ATOM     19  C   UNL     1       2.937  -7.432  -1.331  0.00  0.00    +0.120 A 
ATOM     20  C   UNL     1       2.200  -7.066  -2.448  0.00  0.00    +0.046 A 
ATOM     21  C   UNL     1       1.990  -5.730  -2.728  0.00  0.00    +0.008 A 
BRANCH  19  22
ATOM     22  O   UNL     1       3.145  -8.746  -1.053  0.00  0.00    -0.495 OA
ATOM     23  C   UNL     1       3.913  -9.049   0.113  0.00  0.00    +0.277 C 
ENDBRANCH  19  22
ENDBRANCH  15  16
ENDBRANCH   1  15
BRANCH   1  24
ATOM     24  C   UNL     1      -0.242  -3.051  -2.205  0.00  0.00    +0.150 C 
BRANCH  24  25
ATOM     25  C   UNL     1      -0.302  -2.219  -3.460  0.00  0.00    +0.033 A 
ATOM     26  C   UNL     1       0.046  -2.766  -4.651  0.00  0.00    +0.020 A 
ATOM     27  C   UNL     1      -0.022  -1.931  -5.852  0.00  0.00    +0.002 A 
ATOM     28  C   UNL     1       0.324  -2.442  -7.107  0.00  0.00    +0.055 A 
ATOM     29  C   UNL     1       0.247  -1.627  -8.219  0.00  0.00    +0.121 A 
ATOM     30  C   UNL     1      -0.172  -0.305  -8.094  0.00  0.00    +0.047 A 
ATOM     31  C   UNL     1      -0.516   0.209  -6.864  0.00  0.00    +0.030 A 
ATOM     32  C   UNL     1      -0.446  -0.594  -5.731  0.00  0.00    +0.049 A 
ATOM     33  N   UNL     1      -0.786  -0.098  -4.489  0.00  0.00    -0.322 N 
ATOM     34  H   UNL     1      -1.082   0.854  -4.403  0.00  0.00    +0.169 HD
ATOM     35  C   UNL     1      -0.725  -0.874  -3.393  0.00  0.00    +0.254 A 
ATOM     36  O   UNL     1      -1.038  -0.403  -2.313  0.00  0.00    -0.268 OA
BRANCH  29  37
ATOM     37  O   UNL     1       0.583  -2.118  -9.442  0.00  0.00    -0.495 OA
ATOM     38  C   UNL     1       0.481  -1.223 -10.550  0.00  0.00    +0.277 C 
ENDBRANCH  29  37
ENDBRANCH  24  25
ENDBRANCH   1  24
TORSDOF 9
