REMARK  Name = ZINC36215607
REMARK  12 active torsions:
REMARK  status: ('A' for Active; 'I' for Inactive)
REMARK    1  A    between atoms: C_1  and  N_2
REMARK    2  A    between atoms: N_2  and  C_3
REMARK    3  A    between atoms: N_2  and  C_4
REMARK    4  A    between atoms: C_4  and  C_5
REMARK    5  A    between atoms: C_5  and  N_6
REMARK    6  A    between atoms: C_7  and  C_9
REMARK    7  A    between atoms: C_11  and  C_25
REMARK    8  A    between atoms: N_16  and  C_17
REMARK    9  A    between atoms: C_17  and  C_18
REMARK   10  A    between atoms: C_28  and  N_31
REMARK   11  A    between atoms: C_32  and  C_34
REMARK   12  A    between atoms: C_34  and  C_35
REMARK                            x       y       z     vdW  Elec       q    Type
REMARK                         _______ _______ _______ _____ _____    ______ ____
ROOT
ATOM      1  C   UNL     1      -4.560  -4.523  -0.171  0.00  0.00    +0.210 C 
ATOM      2  C   UNL     1      -5.028  -4.297  -1.628  0.00  0.00    +0.238 C 
ATOM      3  O   UNL     1      -5.780  -5.497  -1.891  0.00  0.00    -0.440 OA
ATOM      4  C   UNL     1      -5.300  -6.471  -1.100  0.00  0.00    +0.405 C 
ATOM      5  O   UNL     1      -5.484  -7.655  -1.303  0.00  0.00    -0.226 OA
ATOM      6  N   UNL     1      -4.593  -5.995  -0.052  0.00  0.00    -0.248 N 
ENDROOT
BRANCH   2   7
ATOM      7  C   UNL     1      -5.908  -3.077  -1.727  0.00  0.00    -0.005 A 
ATOM      8  C   UNL     1      -7.239  -3.155  -1.360  0.00  0.00    +0.009 A 
ATOM      9  C   UNL     1      -8.048  -2.039  -1.450  0.00  0.00    +0.024 A 
ATOM     10  C   UNL     1      -7.523  -0.838  -1.908  0.00  0.00    +0.033 A 
ATOM     11  C   UNL     1      -6.186  -0.763  -2.274  0.00  0.00    +0.024 A 
ATOM     12  C   UNL     1      -5.381  -1.881  -2.178  0.00  0.00    +0.009 A 
BRANCH  10  13
ATOM     13  N   UNL     1      -8.340   0.294  -2.000  0.00  0.00    -0.285 N 
ATOM     14  C   UNL     1      -9.334   0.482  -1.109  0.00  0.00    +0.222 C 
ATOM     15  O   UNL     1      -9.461  -0.278  -0.173  0.00  0.00    -0.275 OA
ATOM     16  H   UNL     1      -8.191   0.944  -2.705  0.00  0.00    +0.155 HD
BRANCH  14  17
ATOM     17  C   UNL     1     -10.288   1.637  -1.278  0.00  0.00    +0.131 C 
BRANCH  17  18
ATOM     18  C   UNL     1     -11.297   1.622  -0.158  0.00  0.00    -0.039 A 
ATOM     19  C   UNL     1     -12.478   0.919  -0.302  0.00  0.00    +0.004 A 
ATOM     20  C   UNL     1     -13.403   0.905   0.725  0.00  0.00    +0.000 A 
ATOM     21  C   UNL     1     -13.147   1.595   1.895  0.00  0.00    +0.000 A 
ATOM     22  C   UNL     1     -11.965   2.297   2.039  0.00  0.00    +0.000 A 
ATOM     23  C   UNL     1     -11.038   2.307   1.014  0.00  0.00    +0.004 A 
ENDBRANCH  17  18
ENDBRANCH  14  17
ENDBRANCH  10  13
ENDBRANCH   2   7
BRANCH   1  25
ATOM     24  N   UNL     1      -2.959  -2.692   0.279  0.00  0.00    -0.315 N 
ATOM     25  C   UNL     1      -3.160  -4.001   0.030  0.00  0.00    +0.238 C 
ATOM     26  O   UNL     1      -2.216  -4.759  -0.031  0.00  0.00    -0.274 OA
ATOM     27  H   UNL     1      -3.715  -2.086   0.328  0.00  0.00    +0.149 HD
BRANCH  24  28
ATOM     28  C   UNL     1      -1.599  -2.184   0.474  0.00  0.00    +0.085 C 
BRANCH  28  29
ATOM     29  C   UNL     1      -1.650  -0.678   0.738  0.00  0.00    -0.061 C 
BRANCH  29  31
ATOM     30  C   UNL     1      -0.324   1.294   1.068  0.00  0.00    -0.097 C 
ATOM     31  N   UNL     1      -0.286  -0.168   0.934  0.00  0.00    +0.377 N 
ATOM     32  C   UNL     1       0.286  -0.757   2.152  0.00  0.00    -0.097 C 
ATOM     33  H   UNL     1       0.284  -0.418   0.140  0.00  0.00    -0.083 HD
ENDBRANCH  29  31
ENDBRANCH  28  29
ENDBRANCH  24  28
ENDBRANCH   1  25
BRANCH   6  34
ATOM     34  C   UNL     1      -3.970  -6.790   1.008  0.00  0.00    +0.147 C 
BRANCH  34  35
ATOM     35  C   UNL     1      -4.949  -6.974   2.139  0.00  0.00    -0.030 A 
ATOM     36  C   UNL     1      -4.995  -6.052   3.169  0.00  0.00    +0.008 A 
ATOM     37  C   UNL     1      -5.893  -6.219   4.207  0.00  0.00    +0.038 A 
ATOM     38  C   UNL     1      -6.745  -7.310   4.215  0.00  0.00    +0.123 A 
ATOM     39  C   UNL     1      -6.698  -8.233   3.183  0.00  0.00    +0.038 A 
ATOM     40  C   UNL     1      -5.803  -8.061   2.144  0.00  0.00    +0.008 A 
ATOM     41  F   UNL     1      -7.622  -7.475   5.229  0.00  0.00    -0.205 F 
ENDBRANCH  34  35
ENDBRANCH   6  34
TORSDOF 10
