REMARK  Name = ZINC41004985
REMARK  11 active torsions:
REMARK  status: ('A' for Active; 'I' for Inactive)
REMARK    1  A    between atoms: C_1  and  C_2
REMARK    2  A    between atoms: C_2  and  S_3
REMARK    3  A    between atoms: S_3  and  C_4
REMARK    4  A    between atoms: C_9  and  C_18
REMARK    5  A    between atoms: C_11  and  C_15
REMARK    6  A    between atoms: C_12  and  C_14
REMARK    7  A    between atoms: C_21  and  O_26
REMARK    8  A    between atoms: C_22  and  O_24
REMARK    9  A    between atoms: O_24  and  C_25
REMARK   10  A    between atoms: O_26  and  C_27
REMARK   11  A    between atoms: C_27  and  C_28
REMARK                            x       y       z     vdW  Elec       q    Type
REMARK                         _______ _______ _______ _____ _____    ______ ____
ROOT
ATOM      1  C   UNL     1       0.322  -2.361  -1.394  0.00  0.00    +0.210 A 
ATOM      2  N   UNL     1      -0.160  -3.111  -0.393  0.00  0.00    -0.187 NA
ATOM      3  C   UNL     1       0.170  -4.359  -0.586  0.00  0.00    +0.219 A 
ATOM      4  N   UNL     1       0.879  -4.434  -1.739  0.00  0.00    -0.220 N 
ATOM      5  N   UNL     1       0.962  -3.137  -2.242  0.00  0.00    -0.141 NA
ATOM      6  C   UNL     1       1.409  -5.682  -2.283  0.00  0.00    +0.177 C 
ATOM      7  C   UNL     1       1.307  -6.765  -1.242  0.00  0.00    +0.060 C 
ATOM      8  C   UNL     1       0.592  -6.633  -0.115  0.00  0.00    +0.018 C 
ATOM      9  N   UNL     1      -0.099  -5.484   0.183  0.00  0.00    -0.287 N 
ATOM     10  C   UNL     1       0.545  -7.783   0.857  0.00  0.00    +0.061 C 
ATOM     11  H   UNL     1      -0.750  -5.459   0.901  0.00  0.00    +0.155 HD
ENDROOT
BRANCH   6  12
ATOM     12  C   UNL     1       0.613  -6.078  -3.499  0.00  0.00    -0.015 A 
ATOM     13  C   UNL     1      -0.747  -6.305  -3.390  0.00  0.00    +0.010 A 
ATOM     14  C   UNL     1      -1.482  -6.669  -4.503  0.00  0.00    +0.050 A 
ATOM     15  C   UNL     1      -0.856  -6.806  -5.732  0.00  0.00    +0.162 A 
ATOM     16  C   UNL     1       0.513  -6.577  -5.842  0.00  0.00    +0.162 A 
ATOM     17  C   UNL     1       1.242  -6.208  -4.723  0.00  0.00    +0.055 A 
BRANCH  16  18
ATOM     18  O   UNL     1       1.131  -6.710  -7.045  0.00  0.00    -0.491 OA
ATOM     19  C   UNL     1       2.538  -6.460  -7.083  0.00  0.00    +0.277 C 
ENDBRANCH  16  18
BRANCH  15  20
ATOM     20  O   UNL     1      -1.577  -7.164  -6.828  0.00  0.00    -0.484 OA
BRANCH  20  21
ATOM     21  C   UNL     1      -2.976  -7.383  -6.641  0.00  0.00    +0.266 C 
BRANCH  21  22
ATOM     22  C   UNL     1      -3.605  -7.769  -7.955  0.00  0.00    +0.008 A 
ATOM     23  C   UNL     1      -2.825  -7.865  -9.092  0.00  0.00    +0.010 A 
ATOM     24  C   UNL     1      -3.401  -8.219 -10.298  0.00  0.00    +0.020 A 
ATOM     25  C   UNL     1      -4.758  -8.478 -10.367  0.00  0.00    +0.042 A 
ATOM     26  C   UNL     1      -5.539  -8.382  -9.229  0.00  0.00    +0.040 A 
ATOM     27  C   UNL     1      -4.961  -8.033  -8.022  0.00  0.00    +0.049 A 
ATOM     28 CL   UNL     1      -5.939  -7.918  -6.592  0.00  0.00    -0.083 Cl
ATOM     29 CL   UNL     1      -5.481  -8.921 -11.882  0.00  0.00    -0.083 Cl
ENDBRANCH  21  22
ENDBRANCH  20  21
ENDBRANCH  15  20
ENDBRANCH   6  12
BRANCH   7  30
ATOM     30  C   UNL     1       1.998  -7.980  -1.463  0.00  0.00    +0.241 C 
ATOM     31  O   UNL     1       3.188  -8.057  -1.217  0.00  0.00    -0.271 OA
ATOM     32  N   UNL     1       1.338  -9.052  -1.946  0.00  0.00    -0.325 N 
ATOM     33  H   UNL     1       0.390  -8.990  -2.142  0.00  0.00    +0.145 HD
ATOM     34  H   UNL     1       1.812  -9.885  -2.098  0.00  0.00    +0.145 HD
ENDBRANCH   7  30
BRANCH   1  35
ATOM     35  S   UNL     1       0.123  -0.617  -1.553  0.00  0.00    -0.085 S 
BRANCH  35  37
ATOM     36  C   UNL     1      -1.083   1.361  -0.099  0.00  0.00    +0.016 C 
ATOM     37  C   UNL     1      -0.836  -0.149  -0.086  0.00  0.00    +0.074 C 
ENDBRANCH  35  37
ENDBRANCH   1  35
TORSDOF 8
