REMARK  Name = ZINC14643206
REMARK  11 active torsions:
REMARK  status: ('A' for Active; 'I' for Inactive)
REMARK    1  A    between atoms: C_1  and  C_2
REMARK    2  A    between atoms: C_6  and  C_30
REMARK    3  A    between atoms: C_7  and  O_8
REMARK    4  A    between atoms: O_8  and  C_9
REMARK    5  A    between atoms: C_9  and  C_11
REMARK    6  A    between atoms: C_9  and  C_12
REMARK    7  A    between atoms: N_14  and  N_15
REMARK    8  A    between atoms: C_16  and  C_18
REMARK    9  A    between atoms: C_18  and  C_19
REMARK   10  A    between atoms: C_19  and  C_20
REMARK   11  A    between atoms: N_22  and  C_23
REMARK                            x       y       z     vdW  Elec       q    Type
REMARK                         _______ _______ _______ _____ _____    ______ ____
ROOT
ATOM      1  N   UNL     1       4.851   1.260   1.348  0.00  0.00    -0.234 N 
ATOM      2  C   UNL     1       4.017   2.266   1.680  0.00  0.00    +0.230 C 
ATOM      3  O   UNL     1       4.448   3.391   1.815  0.00  0.00    -0.274 OA
ATOM      4  H   UNL     1       4.506   0.360   1.240  0.00  0.00    +0.173 HD
ENDROOT
BRANCH   1   7
ATOM      5  C   UNL     1       7.049   0.510   0.827  0.00  0.00    +0.270 C 
ATOM      6  O   UNL     1       6.618  -0.616   0.692  0.00  0.00    -0.270 OA
ATOM      7  N   UNL     1       6.215   1.515   1.159  0.00  0.00    -0.231 N 
ATOM      8  H   UNL     1       6.560   2.416   1.267  0.00  0.00    +0.173 HD
BRANCH   5   9
ATOM      9  C   UNL     1       8.517   0.784   0.624  0.00  0.00    +0.257 C 
ATOM     10  C   UNL     1       9.140   1.230   1.948  0.00  0.00    +0.062 C 
BRANCH   9  11
ATOM     11  O   UNL     1       9.165  -0.405   0.168  0.00  0.00    -0.479 OA
BRANCH  11  18
ATOM     12  C   UNL     1       8.815   0.070  -2.594  0.00  0.00    +0.047 C 
ATOM     13  C   UNL     1      10.175  -0.012  -1.950  0.00  0.00    -0.007 A 
ATOM     14  C   UNL     1      11.313   0.154  -2.715  0.00  0.00    +0.022 A 
ATOM     15  C   UNL     1      12.562   0.074  -2.124  0.00  0.00    +0.019 A 
ATOM     16  C   UNL     1      12.673  -0.166  -0.766  0.00  0.00    +0.022 A 
ATOM     17  C   UNL     1      11.537  -0.327   0.003  0.00  0.00    -0.007 A 
ATOM     18  C   UNL     1      10.284  -0.247  -0.587  0.00  0.00    +0.127 A 
ATOM     19  C   UNL     1      11.659  -0.590   1.482  0.00  0.00    +0.047 C 
ATOM     20 BR   UNL     1      14.119   0.293  -3.175  0.00  0.00    -0.050 Br
ENDBRANCH  11  18
ENDBRANCH   9  11
ENDBRANCH   5   9
ENDBRANCH   1   7
BRANCH   2  21
ATOM     21  C   UNL     1       2.549   1.991   1.883  0.00  0.00    +0.106 C 
BRANCH  21  22
ATOM     22  C   UNL     1       1.833   3.292   2.250  0.00  0.00    +0.105 C 
BRANCH  22  23
ATOM     23  C   UNL     1       0.365   3.018   2.453  0.00  0.00    +0.218 C 
ATOM     24  O   UNL     1      -0.066   1.893   2.318  0.00  0.00    -0.275 OA
ATOM     25  N   UNL     1      -0.470   4.025   2.780  0.00  0.00    -0.284 N 
ATOM     26  H   UNL     1      -0.117   4.912   2.949  0.00  0.00    +0.155 HD
BRANCH  25  27
ATOM     27  C   UNL     1      -1.846   3.789   2.876  0.00  0.00    +0.052 A 
ATOM     28  C   UNL     1      -2.313   2.547   3.285  0.00  0.00    +0.025 A 
ATOM     29  C   UNL     1      -3.672   2.319   3.383  0.00  0.00    +0.002 A 
ATOM     30  C   UNL     1      -4.568   3.323   3.064  0.00  0.00    +0.002 A 
ATOM     31  C   UNL     1      -4.107   4.560   2.651  0.00  0.00    +0.022 A 
ATOM     32  C   UNL     1      -2.749   4.796   2.556  0.00  0.00    +0.062 A 
ATOM     33 CL   UNL     1      -2.171   6.348   2.036  0.00  0.00    -0.082 Cl
ENDBRANCH  25  27
ENDBRANCH  22  23
ENDBRANCH  21  22
ENDBRANCH   2  21
TORSDOF 8
