REMARK  Name = ZINC23374033
REMARK  11 active torsions:
REMARK  status: ('A' for Active; 'I' for Inactive)
REMARK    1  A    between atoms: C_1  and  C_2
REMARK    2  A    between atoms: C_2  and  C_3
REMARK    3  A    between atoms: C_3  and  N_4
REMARK    4  A    between atoms: C_7  and  N_10
REMARK    5  A    between atoms: C_12  and  N_31
REMARK    6  A    between atoms: C_15  and  C_17
REMARK    7  A    between atoms: N_19  and  C_20
REMARK    8  A    between atoms: C_20  and  C_21
REMARK    9  A    between atoms: C_21  and  C_22
REMARK   10  A    between atoms: N_31  and  C_32
REMARK   11  A    between atoms: C_32  and  C_33
REMARK                            x       y       z     vdW  Elec       q    Type
REMARK                         _______ _______ _______ _____ _____    ______ ____
ROOT
ATOM      1  N   UNL     1       1.984  -6.017   1.298  0.00  0.00    -0.290 NA
ATOM      2  C   UNL     1       0.573  -6.442   1.295  0.00  0.00    +0.070 C 
ATOM      3  C   UNL     1       0.370  -7.363   2.517  0.00  0.00    -0.055 C 
ATOM      4  C   UNL     1       1.807  -7.863   2.820  0.00  0.00    +0.014 C 
ATOM      5  C   UNL     1       2.652  -6.612   2.475  0.00  0.00    +0.142 C 
ENDROOT
BRANCH   1   9
ATOM      6  N   UNL     1       0.762  -1.980   1.234  0.00  0.00    +0.380 N 
ATOM      7  C   UNL     1       1.544  -2.451   0.084  0.00  0.00    -0.077 C 
ATOM      8  C   UNL     1       1.501  -3.979   0.025  0.00  0.00    +0.000 C 
ATOM      9  C   UNL     1       2.092  -4.552   1.316  0.00  0.00    +0.054 C 
ATOM     10  C   UNL     1       1.315  -3.995   2.513  0.00  0.00    +0.000 C 
ATOM     11  C   UNL     1       1.366  -2.466   2.480  0.00  0.00    -0.077 C 
ATOM     12  H   UNL     1      -0.182  -2.328   1.160  0.00  0.00    -0.082 HD
BRANCH   6  13
ATOM     13  C   UNL     1       0.742  -0.511   1.242  0.00  0.00    -0.079 C 
BRANCH  13  15
ATOM     14  C   UNL     1      -0.019   1.526   0.010  0.00  0.00    +0.002 C 
ATOM     15  C   UNL     1       0.002  -0.004   0.002  0.00  0.00    -0.022 C 
ENDBRANCH  13  15
ENDBRANCH   6  13
ENDBRANCH   1   9
BRANCH   5  16
ATOM     16  C   UNL     1       4.064  -7.011   2.131  0.00  0.00    +0.230 C 
ATOM     17  O   UNL     1       4.491  -6.824   1.011  0.00  0.00    -0.274 OA
ATOM     18  N   UNL     1       4.852  -7.576   3.067  0.00  0.00    -0.314 N 
ATOM     19  H   UNL     1       4.511  -7.725   3.963  0.00  0.00    +0.149 HD
BRANCH  18  20
ATOM     20  C   UNL     1       6.224  -7.964   2.732  0.00  0.00    +0.109 C 
BRANCH  20  21
ATOM     21  C   UNL     1       6.896  -8.576   3.963  0.00  0.00    +0.054 C 
BRANCH  21  22
ATOM     22  C   UNL     1       8.308  -8.976   3.619  0.00  0.00    -0.042 A 
ATOM     23  C   UNL     1       8.566 -10.242   3.127  0.00  0.00    +0.007 A 
ATOM     24  C   UNL     1       9.859 -10.613   2.810  0.00  0.00    +0.050 A 
ATOM     25  C   UNL     1      10.900  -9.716   2.984  0.00  0.00    +0.166 A 
ATOM     26  C   UNL     1      10.640  -8.440   3.479  0.00  0.00    +0.166 A 
ATOM     27  C   UNL     1       9.341  -8.073   3.790  0.00  0.00    +0.053 A 
ATOM     28  O   UNL     1      11.818  -7.754   3.558  0.00  0.00    -0.453 OA
ATOM     29  C   UNL     1      12.851  -8.755   3.493  0.00  0.00    +0.466 C 
ATOM     30  O   UNL     1      12.241  -9.829   2.752  0.00  0.00    -0.453 OA
ENDBRANCH  21  22
ENDBRANCH  20  21
ENDBRANCH  18  20
ENDBRANCH   5  16
BRANCH   3  31
ATOM     31  N   UNL     1      -0.514  -8.487   2.179  0.00  0.00    +0.385 N 
ATOM     32  H   UNL     1      -0.159  -8.961   1.363  0.00  0.00    -0.085 HD
ATOM     33  H   UNL     1      -0.550  -9.132   2.955  0.00  0.00    -0.085 HD
BRANCH  31  34
ATOM     34  C   UNL     1      -1.865  -7.981   1.902  0.00  0.00    -0.043 C 
BRANCH  34  35
ATOM     35  C   UNL     1      -2.772  -9.133   1.555  0.00  0.00    -0.026 A 
ATOM     36  C   UNL     1      -3.062  -9.411   0.233  0.00  0.00    +0.043 A 
ATOM     37  C   UNL     1      -3.895 -10.470  -0.085  0.00  0.00    +0.124 A 
ATOM     38  C   UNL     1      -4.437 -11.251   0.922  0.00  0.00    +0.041 A 
ATOM     39  C   UNL     1      -4.147 -10.973   2.244  0.00  0.00    +0.041 A 
ATOM     40  C   UNL     1      -3.310  -9.917   2.562  0.00  0.00    +0.125 A 
ATOM     41  F   UNL     1      -3.022  -9.648   3.854  0.00  0.00    -0.205 F 
ATOM     42  F   UNL     1      -4.179 -10.742  -1.378  0.00  0.00    -0.205 F 
ENDBRANCH  34  35
ENDBRANCH  31  34
ENDBRANCH   3  31
TORSDOF 10
