REMARK  Name = ZINC58913533
REMARK  11 active torsions:
REMARK  status: ('A' for Active; 'I' for Inactive)
REMARK    1  A    between atoms: C_1  and  C_2
REMARK    2  A    between atoms: C_5  and  N_9
REMARK    3  A    between atoms: C_6  and  C_8
REMARK    4  A    between atoms: C_10  and  C_32
REMARK    5  A    between atoms: C_12  and  C_15
REMARK    6  A    between atoms: C_13  and  C_14
REMARK    7  A    between atoms: N_16  and  N_17
REMARK    8  A    between atoms: C_18  and  C_20
REMARK    9  A    between atoms: N_22  and  C_23
REMARK   10  A    between atoms: C_28  and  O_29
REMARK   11  A    between atoms: O_29  and  C_30
REMARK                            x       y       z     vdW  Elec       q    Type
REMARK                         _______ _______ _______ _____ _____    ______ ____
ROOT
ATOM      1  C   UNL     1       1.697  -7.426  -0.081  0.00  0.00    +0.140 C 
ATOM      2  N   UNL     1       2.986  -7.264  -0.073  0.00  0.00    -0.187 NA
ENDROOT
BRANCH   1   6
ATOM      3  N   UNL     1       0.058  -4.175  -0.092  0.00  0.00    -0.317 N 
ATOM      4  C   UNL     1      -1.050  -4.973  -0.098  0.00  0.00    +0.022 A 
ATOM      5  C   UNL     1      -0.659  -6.261  -0.096  0.00  0.00    +0.032 A 
ATOM      6  C   UNL     1       0.807  -6.253  -0.087  0.00  0.00    +0.016 A 
ATOM      7  C   UNL     1       1.183  -4.939  -0.091  0.00  0.00    +0.030 A 
ATOM      8  C   UNL     1       2.599  -4.425  -0.090  0.00  0.00    +0.064 C 
ATOM      9  C   UNL     1      -2.478  -4.491  -0.106  0.00  0.00    +0.064 C 
BRANCH   3  14
ATOM     10  C   UNL     1      -0.022   1.500  -0.093  0.00  0.00    +0.044 C 
ATOM     11  C   UNL     1      -0.001  -0.007  -0.093  0.00  0.00    -0.050 A 
ATOM     12  C   UNL     1       0.009  -0.697  -1.291  0.00  0.00    +0.005 A 
ATOM     13  C   UNL     1       0.029  -2.078  -1.294  0.00  0.00    +0.026 A 
ATOM     14  C   UNL     1       0.038  -2.773  -0.092  0.00  0.00    +0.049 A 
ATOM     15  C   UNL     1       0.027  -2.078   1.109  0.00  0.00    -0.026 A 
ATOM     16  C   UNL     1       0.013  -0.696   1.105  0.00  0.00    +0.008 A 
ATOM     17  C   UNL     1       0.036  -2.829   2.416  0.00  0.00    +0.046 C 
ENDBRANCH   3  14
ENDBRANCH   1   6
BRANCH   2  18
ATOM     18  N   UNL     1       3.833  -8.380  -0.068  0.00  0.00    -0.199 N 
ATOM     19  C   UNL     1       5.170  -8.212  -0.059  0.00  0.00    +0.318 C 
ATOM     20  O   UNL     1       5.641  -7.092  -0.057  0.00  0.00    -0.263 OA
ATOM     21  H   UNL     1       3.457  -9.274  -0.070  0.00  0.00    +0.178 HD
BRANCH  19  22
ATOM     22  C   UNL     1       6.071  -9.399  -0.053  0.00  0.00    +0.305 C 
ATOM     23  O   UNL     1       5.600 -10.518  -0.056  0.00  0.00    -0.265 OA
ATOM     24  N   UNL     1       7.408  -9.231  -0.045  0.00  0.00    -0.275 N 
ATOM     25  H   UNL     1       7.785  -8.339  -0.108  0.00  0.00    +0.155 HD
BRANCH  24  26
ATOM     26  C   UNL     1       8.252 -10.342   0.055  0.00  0.00    +0.077 A 
ATOM     27  C   UNL     1       7.896 -11.543  -0.542  0.00  0.00    +0.047 A 
ATOM     28  C   UNL     1       8.732 -12.639  -0.442  0.00  0.00    +0.043 A 
ATOM     29  C   UNL     1       9.925 -12.542   0.254  0.00  0.00    +0.024 A 
ATOM     30  C   UNL     1      10.286 -11.349   0.852  0.00  0.00    +0.049 A 
ATOM     31  C   UNL     1       9.456 -10.244   0.750  0.00  0.00    +0.141 A 
ATOM     32 CL   UNL     1       8.285 -14.141  -1.190  0.00  0.00    -0.083 Cl
BRANCH  31  33
ATOM     33  O   UNL     1       9.813  -9.068   1.332  0.00  0.00    -0.493 OA
ATOM     34  C   UNL     1      11.061  -9.041   2.028  0.00  0.00    +0.277 C 
ENDBRANCH  31  33
ENDBRANCH  24  26
ENDBRANCH  19  22
ENDBRANCH   2  18
TORSDOF 6
