REMARK  Name = ZINC41581471
REMARK  3 active torsions:
REMARK  status: ('A' for Active; 'I' for Inactive)
REMARK    1  A    between atoms: C_1  and  C_2
REMARK    2  A    between atoms: C_2  and  C_3
REMARK    3  A    between atoms: C_13  and  C_14
REMARK                            x       y       z     vdW  Elec       q    Type
REMARK                         _______ _______ _______ _____ _____    ______ ____
ROOT
ATOM      1  C   UNL     1       0.707  -0.490  -1.238  0.00  0.00    -0.012 A 
ATOM      2  C   UNL     1      -0.013  -0.722  -2.410  0.00  0.00    +0.076 A 
ATOM      3  C   UNL     1      -1.463  -0.560  -2.662  0.00  0.00    +0.260 A 
ATOM      4  O   UNL     1      -2.212  -0.175  -1.782  0.00  0.00    -0.267 OA
ATOM      5  N   UNL     1      -1.934  -0.850  -3.891  0.00  0.00    -0.313 N 
ATOM      6  H   UNL     1      -2.881  -0.749  -4.073  0.00  0.00    +0.170 HD
ATOM      7  C   UNL     1      -1.110  -1.280  -4.878  0.00  0.00    +0.200 A 
ATOM      8  N   UNL     1       0.172  -1.433  -4.690  0.00  0.00    -0.230 NA
ATOM      9  C   UNL     1       0.740  -1.176  -3.518  0.00  0.00    +0.116 A 
ATOM     10  S   UNL     1       2.396  -1.259  -2.887  0.00  0.00    -0.062 S 
ATOM     11  C   UNL     1       2.068  -0.702  -1.223  0.00  0.00    +0.106 A 
ENDROOT
BRANCH  11  12
ATOM     12  C   UNL     1       2.980  -0.525  -0.152  0.00  0.00    +0.393 C 
ATOM     13  O   UNL     1       2.578  -0.133   0.937  0.00  0.00    -0.240 OA
ATOM     14  O   UNL     1       4.170  -0.764  -0.316  0.00  0.00    -0.240 OA
ENDBRANCH  11  12
BRANCH   1  16
ATOM     15  C   UNL     1      -0.019   1.526   0.010  0.00  0.00    +0.009 C 
ATOM     16  C   UNL     1       0.002  -0.004   0.002  0.00  0.00    +0.034 C 
ENDBRANCH   1  16
TORSDOF 2
