REMARK  Name = ZINC02743510
REMARK  5 active torsions:
REMARK  status: ('A' for Active; 'I' for Inactive)
REMARK    1  A    between atoms: C_4  and  O_8
REMARK    2  A    between atoms: O_8  and  C_9
REMARK    3  A    between atoms: C_9  and  C_10
REMARK    4  A    between atoms: C_13  and  C_15
REMARK    5  A    between atoms: C_19  and  C_23
REMARK                            x       y       z     vdW  Elec       q    Type
REMARK                         _______ _______ _______ _____ _____    ______ ____
ROOT
ATOM      1  C   UNL     1       3.610   5.891  -0.001  0.00  0.00    +0.143 A 
ATOM      2  C   UNL     1       4.323   6.208  -1.105  0.00  0.00    +0.049 A 
ATOM      3  C   UNL     1       5.549   6.733  -0.669  0.00  0.00    +0.055 A 
ATOM      4  C   UNL     1       5.522   6.710   0.698  0.00  0.00    +0.194 A 
ATOM      5  O   UNL     1       4.334   6.199   1.083  0.00  0.00    -0.451 OA
ENDROOT
BRANCH   4   6
ATOM      6  C   UNL     1       6.592   7.165   1.587  0.00  0.00    +0.314 C 
ATOM      7  O   UNL     1       7.621   7.614   1.120  0.00  0.00    -0.262 OA
ATOM      8  N   UNL     1       6.436   7.087   2.924  0.00  0.00    -0.198 N 
ATOM      9  C   UNL     1       7.352   7.469   3.838  0.00  0.00    +0.138 A 
ATOM     10  C   UNL     1       6.820   7.234   5.088  0.00  0.00    +0.111 A 
ATOM     11  C   UNL     1       5.489   6.660   4.872  0.00  0.00    +0.156 A 
ATOM     12  N   UNL     1       5.304   6.591   3.577  0.00  0.00    -0.148 NA
ATOM     13  N   UNL     1       4.590   6.262   5.858  0.00  0.00    -0.341 N 
ATOM     14  H   UNL     1       3.729   5.891   5.608  0.00  0.00    +0.144 HD
ATOM     15  H   UNL     1       4.824   6.355   6.795  0.00  0.00    +0.144 HD
BRANCH  10  16
ATOM     16  C   UNL     1       7.446   7.496   6.349  0.00  0.00    +0.104 C 
ATOM     17  N   UNL     1       7.943   7.703   7.350  0.00  0.00    -0.191 NA
ENDBRANCH  10  16
ENDBRANCH   4   6
BRANCH   1  18
ATOM     18  C   UNL     1       2.227   5.294   0.009  0.00  0.00    +0.303 C 
BRANCH  18  19
ATOM     19  O   UNL     1       2.323   3.868   0.001  0.00  0.00    -0.483 OA
BRANCH  19  23
ATOM     20  C   UNL     1      -1.220   1.750   0.017  0.00  0.00    +0.021 A 
ATOM     21  C   UNL     1      -0.013   1.076   0.008  0.00  0.00    +0.025 A 
ATOM     22  C   UNL     1       1.175   1.782   0.000  0.00  0.00    +0.083 A 
ATOM     23  C   UNL     1       1.156   3.171   0.008  0.00  0.00    +0.141 A 
ATOM     24  C   UNL     1      -0.056   3.845   0.022  0.00  0.00    +0.067 A 
ATOM     25  C   UNL     1      -1.242   3.134   0.030  0.00  0.00    +0.045 A 
ATOM     26 CL   UNL     1      -2.759   3.977   0.048  0.00  0.00    -0.083 Cl
ATOM     27 CL   UNL     1       2.690   0.935  -0.018  0.00  0.00    -0.080 Cl
ENDBRANCH  19  23
ENDBRANCH  18  19
ENDBRANCH   1  18
TORSDOF 5
