REMARK  Name = ZINC01727949
REMARK  10 active torsions:
REMARK  status: ('A' for Active; 'I' for Inactive)
REMARK    1  A    between atoms: C_1  and  C_2
REMARK    2  A    between atoms: C_2  and  C_34
REMARK    3  A    between atoms: C_5  and  C_32
REMARK    4  A    between atoms: C_5  and  C_33
REMARK    5  A    between atoms: C_8  and  N_22
REMARK    6  A    between atoms: C_11  and  N_12
REMARK    7  A    between atoms: N_12  and  S_13
REMARK    8  A    between atoms: S_13  and  C_16
REMARK    9  A    between atoms: N_22  and  S_23
REMARK   10  A    between atoms: S_23  and  C_26
REMARK                            x       y       z     vdW  Elec       q    Type
REMARK                         _______ _______ _______ _____ _____    ______ ____
ROOT
ATOM      1  C   UNL     1       4.492   2.395  -3.232  0.00  0.00    +0.020 C 
ATOM      2  C   UNL     1       4.342   2.167  -1.726  0.00  0.00    +0.010 C 
ATOM      3  C   UNL     1       4.685   0.745  -1.395  0.00  0.00    -0.019 C 
ATOM      4  C   UNL     1       3.796  -0.180  -1.220  0.00  0.00    -0.019 C 
ATOM      5  C   UNL     1       2.322   0.063  -1.318  0.00  0.00    +0.010 C 
ATOM      6  C   UNL     1       1.990   1.516  -1.126  0.00  0.00    -0.010 A 
ATOM      7  C   UNL     1       2.934   2.500  -1.318  0.00  0.00    -0.010 A 
ATOM      8  C   UNL     1       2.590   3.836  -1.127  0.00  0.00    +0.052 A 
ATOM      9  C   UNL     1       1.300   4.181  -0.750  0.00  0.00    +0.026 A 
ATOM     10  C   UNL     1       0.352   3.194  -0.563  0.00  0.00    +0.026 A 
ATOM     11  C   UNL     1       0.694   1.863  -0.752  0.00  0.00    +0.052 A 
ATOM     12  C   UNL     1       1.608  -0.760  -0.244  0.00  0.00    +0.020 C 
ATOM     13  C   UNL     1       1.833  -0.384  -2.697  0.00  0.00    +0.020 C 
ATOM     14  C   UNL     1       5.310   3.090  -0.984  0.00  0.00    +0.020 C 
ENDROOT
BRANCH  11  15
ATOM     15  N   UNL     1      -0.268   0.864  -0.561  0.00  0.00    -0.216 N 
ATOM     16  H   UNL     1      -0.560   0.322  -1.311  0.00  0.00    +0.174 HD
BRANCH  15  17
ATOM     17  S   UNL     1      -0.910   0.609   0.944  0.00  0.00    +0.072 S 
ATOM     18  O   UNL     1      -1.856  -0.442   0.809  0.00  0.00    -0.150 OA
ATOM     19  O   UNL     1       0.185   0.538   1.846  0.00  0.00    -0.150 OA
BRANCH  17  20
ATOM     20  C   UNL     1      -1.822   2.055   1.372  0.00  0.00    +0.108 A 
ATOM     21  C   UNL     1      -1.199   3.091   2.043  0.00  0.00    +0.029 A 
ATOM     22  C   UNL     1      -1.913   4.228   2.375  0.00  0.00    +0.002 A 
ATOM     23  C   UNL     1      -3.252   4.324   2.044  0.00  0.00    +0.000 A 
ATOM     24  C   UNL     1      -3.876   3.285   1.378  0.00  0.00    +0.002 A 
ATOM     25  C   UNL     1      -3.160   2.151   1.042  0.00  0.00    +0.029 A 
ENDBRANCH  17  20
ENDBRANCH  15  17
ENDBRANCH  11  15
BRANCH   8  26
ATOM     26  N   UNL     1       3.550   4.837  -1.316  0.00  0.00    -0.216 N 
ATOM     27  H   UNL     1       4.215   4.745  -2.017  0.00  0.00    +0.174 HD
BRANCH  26  28
ATOM     28  S   UNL     1       3.552   6.178  -0.344  0.00  0.00    +0.072 S 
ATOM     29  O   UNL     1       4.707   6.930  -0.692  0.00  0.00    -0.150 OA
ATOM     30  O   UNL     1       2.241   6.723  -0.403  0.00  0.00    -0.150 OA
BRANCH  28  31
ATOM     31  C   UNL     1       3.792   5.622   1.310  0.00  0.00    +0.108 A 
ATOM     32  C   UNL     1       2.701   5.310   2.100  0.00  0.00    +0.029 A 
ATOM     33  C   UNL     1       2.890   4.869   3.396  0.00  0.00    +0.002 A 
ATOM     34  C   UNL     1       4.169   4.750   3.906  0.00  0.00    +0.000 A 
ATOM     35  C   UNL     1       5.260   5.067   3.119  0.00  0.00    +0.002 A 
ATOM     36  C   UNL     1       5.071   5.503   1.821  0.00  0.00    +0.029 A 
ENDBRANCH  28  31
ENDBRANCH  26  28
ENDBRANCH   8  26
TORSDOF 6
