REMARK  Name = ZINC07781545
REMARK  5 active torsions:
REMARK  status: ('A' for Active; 'I' for Inactive)
REMARK    1  A    between atoms: C_1  and  C_2
REMARK    2  A    between atoms: C_10  and  C_16
REMARK    3  A    between atoms: C_16  and  O_18
REMARK    4  A    between atoms: O_18  and  C_19
REMARK    5  A    between atoms: C_22  and  N_25
REMARK                            x       y       z     vdW  Elec       q    Type
REMARK                         _______ _______ _______ _____ _____    ______ ____
ROOT
ATOM      1  C   UNL     1      -1.307   3.806  -2.360  0.00  0.00    +0.008 C 
ATOM      2  C   UNL     1      -0.831   3.212  -1.033  0.00  0.00    -0.009 C 
ATOM      3  C   UNL     1      -0.617   1.704  -1.196  0.00  0.00    +0.009 C 
ATOM      4  C   UNL     1       0.092   1.154   0.046  0.00  0.00    +0.054 C 
ATOM      5  C   UNL     1      -0.643   1.630   1.277  0.00  0.00    +0.020 A 
ATOM      6  C   UNL     1      -1.527   2.654   1.269  0.00  0.00    -0.019 A 
ATOM      7  C   UNL     1      -2.019   2.797   2.624  0.00  0.00    +0.004 A 
ATOM      8  C   UNL     1      -2.933   3.672   3.211  0.00  0.00    +0.025 A 
ATOM      9  C   UNL     1      -3.165   3.509   4.580  0.00  0.00    +0.060 A 
ATOM     10  C   UNL     1      -2.512   2.518   5.321  0.00  0.00    +0.017 A 
ATOM     11  C   UNL     1      -1.613   1.655   4.754  0.00  0.00    +0.027 A 
ATOM     12  C   UNL     1      -1.362   1.795   3.388  0.00  0.00    +0.047 A 
ATOM     13  N   UNL     1      -0.543   1.113   2.540  0.00  0.00    -0.358 N 
ATOM     14  H   UNL     1       0.029   0.372   2.793  0.00  0.00    +0.166 HD
ATOM     15  C   UNL     1      -1.890   3.460   0.048  0.00  0.00    +0.040 C 
ENDROOT
BRANCH   9  16
ATOM     16  C   UNL     1      -4.121   4.404   5.260  0.00  0.00    +0.344 C 
ATOM     17  O   UNL     1      -4.697   5.269   4.631  0.00  0.00    -0.245 OA
BRANCH  16  18
ATOM     18  O   UNL     1      -4.356   4.261   6.579  0.00  0.00    -0.422 OA
BRANCH  18  19
ATOM     19  C   UNL     1      -5.169   5.181   7.164  0.00  0.00    +0.132 A 
ATOM     20  C   UNL     1      -4.624   6.192   7.943  0.00  0.00    +0.048 A 
ATOM     21  C   UNL     1      -5.448   7.129   8.533  0.00  0.00    +0.031 A 
ATOM     22  C   UNL     1      -6.823   7.053   8.357  0.00  0.00    +0.069 A 
ATOM     23  C   UNL     1      -7.368   6.038   7.583  0.00  0.00    +0.031 A 
ATOM     24  C   UNL     1      -6.543   5.104   6.988  0.00  0.00    +0.048 A 
BRANCH  22  25
ATOM     25  N   UNL     1      -7.661   8.002   8.961  0.00  0.00    -0.200 N 
ATOM     26  C   UNL     1      -7.294   9.044   9.738  0.00  0.00    +0.250 A 
ATOM     27  N   UNL     1      -8.387   9.671  10.089  0.00  0.00    -0.116 NA
ATOM     28  N   UNL     1      -9.420   9.096   9.586  0.00  0.00    -0.023 NA
ATOM     29  N   UNL     1      -9.063   8.076   8.882  0.00  0.00    -0.039 NA
ENDBRANCH  22  25
ENDBRANCH  18  19
ENDBRANCH  16  18
ENDBRANCH   9  16
TORSDOF 4
