REMARK  Name = ZINC19633649
REMARK  11 active torsions:
REMARK  status: ('A' for Active; 'I' for Inactive)
REMARK    1  A    between atoms: C_1  and  C_2
REMARK    2  A    between atoms: C_2  and  C_3
REMARK    3  A    between atoms: C_3  and  O_4
REMARK    4  A    between atoms: O_4  and  C_5
REMARK    5  A    between atoms: C_5  and  C_7
REMARK    6  A    between atoms: C_8  and  C_35
REMARK    7  A    between atoms: C_12  and  C_14
REMARK    8  A    between atoms: C_25  and  C_31
REMARK    9  A    between atoms: C_27  and  C_30
REMARK   10  A    between atoms: C_31  and  O_33
REMARK   11  A    between atoms: O_33  and  C_34
REMARK                            x       y       z     vdW  Elec       q    Type
REMARK                         _______ _______ _______ _____ _____    ______ ____
ROOT
ATOM      1  C   UNL     1      -2.869   0.360   7.417  0.00  0.00    +0.065 C 
ATOM      2  C   UNL     1      -4.203   0.510   7.350  0.00  0.00    +0.016 C 
ATOM      3  N   UNL     1      -4.831   0.593   6.138  0.00  0.00    -0.321 N 
ATOM      4  C   UNL     1      -4.129   0.923   5.010  0.00  0.00    +0.016 C 
ATOM      5  C   UNL     1      -2.786   0.789   4.976  0.00  0.00    +0.025 C 
ATOM      6  C   UNL     1      -2.032   0.271   6.175  0.00  0.00    +0.092 C 
ATOM      7  C   UNL     1      -2.053   1.124   3.823  0.00  0.00    +0.176 C 
ATOM      8  O   UNL     1      -0.844   1.008   3.831  0.00  0.00    -0.291 OA
ATOM      9  C   UNL     1      -2.740   1.623   2.581  0.00  0.00    +0.171 C 
ATOM     10  C   UNL     1      -4.159   1.046   2.530  0.00  0.00    +0.013 C 
ATOM     11  C   UNL     1      -4.889   1.442   3.815  0.00  0.00    +0.055 C 
ATOM     12  C   UNL     1      -4.091  -0.478   2.426  0.00  0.00    +0.009 C 
ATOM     13  C   UNL     1      -5.012   0.587   8.619  0.00  0.00    +0.061 C 
ATOM     14  H   UNL     1      -5.910   0.394   6.063  0.00  0.00    +0.152 HD
ENDROOT
BRANCH   6  15
ATOM     15  C   UNL     1      -1.653  -1.168   5.936  0.00  0.00    -0.032 A 
ATOM     16  C   UNL     1      -2.637  -2.115   5.725  0.00  0.00    +0.008 A 
ATOM     17  C   UNL     1      -2.294  -3.435   5.501  0.00  0.00    +0.050 A 
ATOM     18  C   UNL     1      -0.961  -3.814   5.499  0.00  0.00    +0.166 A 
ATOM     19  C   UNL     1       0.030  -2.861   5.717  0.00  0.00    +0.167 A 
ATOM     20  C   UNL     1      -0.321  -1.538   5.936  0.00  0.00    +0.054 A 
ATOM     21  O   UNL     1       1.247  -3.478   5.667  0.00  0.00    -0.453 OA
ATOM     22  C   UNL     1       0.972  -4.883   5.823  0.00  0.00    +0.466 C 
ATOM     23  O   UNL     1      -0.366  -5.028   5.312  0.00  0.00    -0.453 OA
ENDBRANCH   6  15
BRANCH   1  24
ATOM     24  C   UNL     1      -2.242   0.284   8.682  0.00  0.00    +0.338 C 
ATOM     25  O   UNL     1      -2.909   0.354   9.697  0.00  0.00    -0.245 OA
BRANCH  24  26
ATOM     26  O   UNL     1      -0.903   0.133   8.764  0.00  0.00    -0.461 OA
BRANCH  26  27
ATOM     27  C   UNL     1      -0.337   0.064  10.074  0.00  0.00    +0.232 C 
BRANCH  27  29
ATOM     28  C   UNL     1       1.786  -0.180  11.369  0.00  0.00    +0.007 C 
ATOM     29  C   UNL     1       1.179  -0.106   9.966  0.00  0.00    +0.038 C 
ENDBRANCH  27  29
ENDBRANCH  26  27
ENDBRANCH  24  26
ENDBRANCH   1  24
BRANCH   9  30
ATOM     30  C   UNL     1      -1.970   1.175   1.365  0.00  0.00    +0.318 C 
ATOM     31  O   UNL     1      -2.502   0.475   0.537  0.00  0.00    -0.250 OA
BRANCH  30  32
ATOM     32  O   UNL     1      -0.692   1.554   1.203  0.00  0.00    -0.467 OA
ATOM     33  C   UNL     1      -0.013   1.086   0.008  0.00  0.00    +0.280 C 
ENDBRANCH  30  32
ENDBRANCH   9  30
TORSDOF 7
