REMARK  Name = ZINC02899296
REMARK  6 active torsions:
REMARK  status: ('A' for Active; 'I' for Inactive)
REMARK    1  A    between atoms: C_1  and  C_2
REMARK    2  A    between atoms: C_9  and  N_14
REMARK    3  A    between atoms: C_10  and  C_11
REMARK    4  A    between atoms: C_15  and  C_17
REMARK    5  A    between atoms: C_17  and  O_18
REMARK    6  A    between atoms: O_18  and  C_19
REMARK                            x       y       z     vdW  Elec       q    Type
REMARK                         _______ _______ _______ _____ _____    ______ ____
ROOT
ATOM      1  C   UNL     1     -11.912  -3.126  -0.060  0.00  0.00    +0.008 C 
ATOM      2  C   UNL     1     -11.081  -1.872  -0.339  0.00  0.00    -0.009 C 
ATOM      3  C   UNL     1     -11.603  -0.707   0.507  0.00  0.00    +0.008 C 
ATOM      4  C   UNL     1     -10.947   0.599   0.056  0.00  0.00    +0.037 C 
ATOM      5  C   UNL     1      -9.435   0.411   0.046  0.00  0.00    -0.023 A 
ATOM      6  C   UNL     1      -8.888  -0.824   0.036  0.00  0.00    -0.004 A 
ATOM      7  S   UNL     1      -7.140  -0.544   0.023  0.00  0.00    -0.077 S 
ATOM      8  C   UNL     1      -7.134   1.189   0.041  0.00  0.00    +0.084 A 
ATOM      9  C   UNL     1      -8.484   1.509   0.049  0.00  0.00    +0.068 A 
ATOM     10  C   UNL     1      -9.614  -2.134   0.031  0.00  0.00    +0.046 C 
ENDROOT
BRANCH   9  11
ATOM     11  C   UNL     1      -8.934   2.905   0.058  0.00  0.00    +0.244 C 
ATOM     12  O   UNL     1      -9.125   3.490  -0.992  0.00  0.00    -0.270 OA
ATOM     13  N   UNL     1      -9.136   3.539   1.230  0.00  0.00    -0.325 N 
ATOM     14  H   UNL     1      -8.984   3.073   2.067  0.00  0.00    +0.145 HD
ATOM     15  H   UNL     1      -9.434   4.463   1.236  0.00  0.00    +0.145 HD
ENDBRANCH   9  11
BRANCH   8  16
ATOM     16  N   UNL     1      -6.045   2.047   0.041  0.00  0.00    -0.277 N 
ATOM     17  C   UNL     1      -4.793   1.547   0.032  0.00  0.00    +0.255 C 
ATOM     18  O   UNL     1      -4.620   0.347   0.024  0.00  0.00    -0.272 OA
ATOM     19  H   UNL     1      -6.184   3.007   0.047  0.00  0.00    +0.155 HD
BRANCH  17  20
ATOM     20  C   UNL     1      -3.609   2.479   0.032  0.00  0.00    +0.325 C 
BRANCH  20  21
ATOM     21  O   UNL     1      -2.401   1.716   0.022  0.00  0.00    -0.481 OA
BRANCH  21  22
ATOM     22  C   UNL     1      -1.232   2.410   0.021  0.00  0.00    +0.140 A 
ATOM     23  C   UNL     1      -1.248   3.797   0.034  0.00  0.00    +0.048 A 
ATOM     24  C   UNL     1      -0.059   4.501   0.027  0.00  0.00    +0.023 A 
ATOM     25  C   UNL     1       1.147   3.823   0.012  0.00  0.00    +0.043 A 
ATOM     26  C   UNL     1       1.166   2.440   0.004  0.00  0.00    +0.043 A 
ATOM     27  C   UNL     1      -0.021   1.732   0.012  0.00  0.00    +0.084 A 
ATOM     28 CL   UNL     1       0.002  -0.004   0.002  0.00  0.00    -0.080 Cl
ATOM     29 CL   UNL     1       2.639   4.710   0.002  0.00  0.00    -0.083 Cl
ENDBRANCH  21  22
ENDBRANCH  20  21
ENDBRANCH  17  20
ENDBRANCH   8  16
TORSDOF 5
