REMARK  Name = ZINC41992557
REMARK  3 active torsions:
REMARK  status: ('A' for Active; 'I' for Inactive)
REMARK    1  A    between atoms: C_5  and  C_9
REMARK    2  A    between atoms: C_5  and  S_12
REMARK    3  A    between atoms: S_12  and  C_13
REMARK                            x       y       z     vdW  Elec       q    Type
REMARK                         _______ _______ _______ _____ _____    ______ ____
ROOT
ATOM      1  C   UNL     1      -0.592   0.802  -0.149  0.00  0.00    +0.000 C 
ATOM      2  C   UNL     1       0.810   1.283   0.252  0.00  0.00    +0.000 C 
ATOM      3  C   UNL     1       1.824   0.680  -0.738  0.00  0.00    +0.002 C 
ATOM      4  C   UNL     1       1.938   1.391  -2.100  0.00  0.00    +0.029 C 
ATOM      5  C   UNL     1       0.746   0.968  -2.991  0.00  0.00    +0.125 C 
ATOM      6  C   UNL     1       0.493  -0.531  -2.803  0.00  0.00    +0.029 C 
ATOM      7  C   UNL     1      -0.793  -0.833  -2.041  0.00  0.00    +0.002 C 
ATOM      8  C   UNL     1      -0.563  -0.673  -0.532  0.00  0.00    +0.000 C 
ENDROOT
BRANCH   5   9
ATOM      9  C   UNL     1      -0.417   1.877  -2.899  0.00  0.00    +0.372 C 
ATOM     10  O   UNL     1      -0.298   2.968  -2.369  0.00  0.00    -0.245 OA
ATOM     11  O   UNL     1      -1.496   1.535  -3.353  0.00  0.00    -0.245 OA
ENDBRANCH   5   9
BRANCH   5  12
ATOM     12  S   UNL     1       1.378   1.131  -4.716  0.00  0.00    -0.066 S 
BRANCH  12  13
ATOM     13  C   UNL     1       0.012   0.646  -5.718  0.00  0.00    +0.211 A 
ATOM     14  N   UNL     1       0.006   0.600  -7.056  0.00  0.00    -0.188 NA
ATOM     15  C   UNL     1      -1.172   0.196  -7.479  0.00  0.00    +0.209 A 
ATOM     16  N   UNL     1      -1.950  -0.026  -6.399  0.00  0.00    -0.246 N 
ATOM     17  H   UNL     1      -2.870  -0.332  -6.399  0.00  0.00    +0.192 HD
ATOM     18  N   UNL     1      -1.162   0.266  -5.274  0.00  0.00    -0.144 NA
ATOM     19  N   UNL     1      -1.548   0.029  -8.800  0.00  0.00    -0.328 N 
ATOM     20  H   UNL     1      -0.916   0.216  -9.511  0.00  0.00    +0.145 HD
ATOM     21  H   UNL     1      -2.444  -0.274  -9.014  0.00  0.00    +0.145 HD
ENDBRANCH  12  13
ENDBRANCH   5  12
TORSDOF 3
