REMARK  Name = ZINC34787104
REMARK  8 active torsions:
REMARK  status: ('A' for Active; 'I' for Inactive)
REMARK    1  A    between atoms: C_1  and  C_2
REMARK    2  A    between atoms: C_4  and  C_33
REMARK    3  A    between atoms: C_11  and  C_17
REMARK    4  A    between atoms: C_12  and  C_16
REMARK    5  A    between atoms: N_18  and  N_19
REMARK    6  A    between atoms: N_18  and  N_26
REMARK    7  A    between atoms: N_19  and  C_20
REMARK    8  A    between atoms: N_26  and  C_27
REMARK                            x       y       z     vdW  Elec       q    Type
REMARK                         _______ _______ _______ _____ _____    ______ ____
ROOT
ATOM      1  C   UNL     1       5.556  -3.549   0.105  0.00  0.00    +0.067 C 
ATOM      2  C   UNL     1       4.079  -3.843   0.082  0.00  0.00    +0.061 A 
ATOM      3  C   UNL     1       3.322  -4.145  -1.056  0.00  0.00    +0.048 A 
ATOM      4  C   UNL     1       2.042  -4.345  -0.666  0.00  0.00    +0.045 A 
ATOM      5  N   UNL     1       1.992  -4.174   0.682  0.00  0.00    -0.202 N 
ATOM      6  N   UNL     1       3.286  -3.866   1.122  0.00  0.00    -0.169 NA
ATOM      7  C   UNL     1       0.857  -4.290   1.484  0.00  0.00    +0.254 A 
ATOM      8  N   UNL     1       0.961  -4.089   2.791  0.00  0.00    -0.192 NA
ATOM      9  C   UNL     1      -0.080  -4.184   3.601  0.00  0.00    +0.164 A 
ATOM     10  C   UNL     1      -1.354  -4.514   3.062  0.00  0.00    +0.053 A 
ATOM     11  C   UNL     1      -2.632  -4.676   3.734  0.00  0.00    -0.028 A 
ATOM     12  C   UNL     1      -3.716  -4.993   3.011  0.00  0.00    -0.008 A 
ATOM     13  S   UNL     1      -3.090  -5.098   1.345  0.00  0.00    -0.073 S 
ATOM     14  C   UNL     1      -1.389  -4.714   1.665  0.00  0.00    +0.116 A 
ATOM     15  N   UNL     1      -0.304  -4.594   0.925  0.00  0.00    -0.203 NA
ATOM     16  C   UNL     1      -5.128  -5.208   3.492  0.00  0.00    +0.052 C 
ATOM     17  C   UNL     1      -2.738  -4.492   5.225  0.00  0.00    +0.045 C 
ATOM     18  N   UNL     1       0.070  -3.967   4.959  0.00  0.00    -0.181 N 
ATOM     19  C   UNL     1       0.882  -4.694  -1.562  0.00  0.00    +0.066 C 
ENDROOT
BRANCH  18  20
ATOM     20  N   UNL     1       0.332  -2.710   5.425  0.00  0.00    -0.221 NA
ATOM     21  H   UNL     1       0.907  -2.196   4.774  0.00  0.00    +0.146 HD
BRANCH  20  22
ATOM     22  C   UNL     1      -0.913  -1.986   5.714  0.00  0.00    +0.074 C 
ATOM     23  C   UNL     1      -1.365  -1.230   4.463  0.00  0.00    +0.020 C 
ATOM     24  C   UNL     1      -2.662  -0.475   4.765  0.00  0.00    +0.002 C 
ATOM     25  C   UNL     1      -2.421   0.519   5.902  0.00  0.00    +0.000 C 
ATOM     26  C   UNL     1      -1.968  -0.237   7.153  0.00  0.00    +0.002 C 
ATOM     27  C   UNL     1      -0.672  -0.992   6.852  0.00  0.00    +0.020 C 
ENDBRANCH  20  22
ENDBRANCH  18  20
BRANCH  18  28
ATOM     28  N   UNL     1      -0.044  -5.010   5.834  0.00  0.00    -0.221 NA
ATOM     29  H   UNL     1      -0.567  -5.770   5.425  0.00  0.00    +0.146 HD
BRANCH  28  30
ATOM     30  C   UNL     1       1.277  -5.464   6.288  0.00  0.00    +0.074 C 
ATOM     31  C   UNL     1       1.741  -6.633   5.417  0.00  0.00    +0.020 C 
ATOM     32  C   UNL     1       3.118  -7.106   5.890  0.00  0.00    +0.002 C 
ATOM     33  C   UNL     1       3.028  -7.560   7.348  0.00  0.00    +0.000 C 
ATOM     34  C   UNL     1       2.564  -6.390   8.218  0.00  0.00    +0.002 C 
ATOM     35  C   UNL     1       1.188  -5.917   7.746  0.00  0.00    +0.020 C 
ENDBRANCH  28  30
ENDBRANCH  18  28
TORSDOF 4
