REMARK  Name = ZINC59145753
REMARK  6 active torsions:
REMARK  status: ('A' for Active; 'I' for Inactive)
REMARK    1  A    between atoms: C_1  and  C_2
REMARK    2  A    between atoms: C_6  and  N_8
REMARK    3  A    between atoms: C_14  and  C_15
REMARK    4  A    between atoms: C_20  and  O_21
REMARK    5  A    between atoms: O_21  and  C_22
REMARK    6  A    between atoms: C_22  and  C_23
REMARK                            x       y       z     vdW  Elec       q    Type
REMARK                         _______ _______ _______ _____ _____    ______ ____
ROOT
ATOM      1  N   UNL     1      -1.684  -1.907   3.020  0.00  0.00    -0.226 NA
ATOM      2  C   UNL     1      -2.014  -3.179   3.006  0.00  0.00    +0.166 C 
ATOM      3  N   UNL     1      -2.501  -3.926   1.956  0.00  0.00    -0.260 N 
ATOM      4  C   UNL     1      -2.784  -5.208   2.116  0.00  0.00    +0.256 C 
ATOM      5  O   UNL     1      -3.215  -5.883   1.199  0.00  0.00    -0.269 OA
ATOM      6  C   UNL     1      -2.554  -5.783   3.454  0.00  0.00    +0.078 C 
ATOM      7  C   UNL     1      -2.755  -7.052   3.893  0.00  0.00    +0.032 C 
ATOM      8  S   UNL     1      -1.932  -4.362   4.341  0.00  0.00    -0.049 S 
ATOM      9  H   UNL     1      -2.638  -3.508   1.092  0.00  0.00    +0.157 HD
ENDROOT
BRANCH   1  15
ATOM     10  C   UNL     1      -3.135   2.248   0.875  0.00  0.00    +0.044 C 
ATOM     11  C   UNL     1      -2.520   0.874   0.805  0.00  0.00    -0.048 A 
ATOM     12  C   UNL     1      -2.088   0.372  -0.410  0.00  0.00    +0.003 A 
ATOM     13  C   UNL     1      -1.522  -0.888  -0.484  0.00  0.00    +0.002 A 
ATOM     14  C   UNL     1      -1.385  -1.654   0.656  0.00  0.00    +0.028 A 
ATOM     15  C   UNL     1      -1.818  -1.153   1.885  0.00  0.00    +0.067 A 
ATOM     16  C   UNL     1      -2.383   0.122   1.953  0.00  0.00    +0.031 A 
ENDBRANCH   1  15
BRANCH   7  17
ATOM     17  C   UNL     1      -2.287  -7.450   5.227  0.00  0.00    +0.019 A 
ATOM     18  C   UNL     1      -1.327  -6.681   5.895  0.00  0.00    +0.031 A 
ATOM     19  C   UNL     1      -0.892  -7.062   7.147  0.00  0.00    +0.042 A 
ATOM     20  C   UNL     1      -1.402  -8.203   7.747  0.00  0.00    +0.023 A 
ATOM     21  C   UNL     1      -2.350  -8.971   7.098  0.00  0.00    +0.048 A 
ATOM     22  C   UNL     1      -2.803  -8.602   5.842  0.00  0.00    +0.128 A 
ATOM     23 CL   UNL     1       0.299  -6.108   7.975  0.00  0.00    -0.084 Cl
BRANCH  22  24
ATOM     24  O   UNL     1      -3.739  -9.353   5.207  0.00  0.00    -0.487 OA
BRANCH  24  25
ATOM     25  C   UNL     1      -4.218 -10.510   5.895  0.00  0.00    +0.266 C 
BRANCH  25  26
ATOM     26  C   UNL     1      -5.242 -11.213   5.042  0.00  0.00    +0.008 A 
ATOM     27  C   UNL     1      -5.570 -10.708   3.797  0.00  0.00    +0.008 A 
ATOM     28  C   UNL     1      -6.510 -11.353   3.015  0.00  0.00    +0.000 A 
ATOM     29  C   UNL     1      -7.122 -12.503   3.477  0.00  0.00    +0.001 A 
ATOM     30  C   UNL     1      -6.796 -13.009   4.720  0.00  0.00    +0.020 A 
ATOM     31  C   UNL     1      -5.851 -12.367   5.502  0.00  0.00    +0.047 A 
ATOM     32 CL   UNL     1      -5.435 -13.006   7.061  0.00  0.00    -0.083 Cl
ENDBRANCH  25  26
ENDBRANCH  24  25
ENDBRANCH  22  24
ENDBRANCH   7  17
TORSDOF 5
