REMARK  Name = ZINC09113405
REMARK  12 active torsions:
REMARK  status: ('A' for Active; 'I' for Inactive)
REMARK    1  A    between atoms: C_1  and  C_2
REMARK    2  A    between atoms: C_2  and  O_3
REMARK    3  A    between atoms: O_3  and  C_4
REMARK    4  A    between atoms: C_6  and  C_12
REMARK    5  A    between atoms: C_9  and  O_10
REMARK    6  A    between atoms: C_17  and  C_21
REMARK    7  A    between atoms: C_17  and  C_22
REMARK    8  A    between atoms: C_24  and  C_36
REMARK    9  A    between atoms: C_25  and  C_26
REMARK   10  A    between atoms: C_26  and  O_28
REMARK   11  A    between atoms: O_28  and  C_29
REMARK   12  A    between atoms: C_29  and  C_30
REMARK                            x       y       z     vdW  Elec       q    Type
REMARK                         _______ _______ _______ _____ _____    ______ ____
ROOT
ATOM      1  C   UNL     1       2.600  -0.264   2.905  0.00  0.00    +0.092 C 
ATOM      2  C   UNL     1       1.844   0.285   1.721  0.00  0.00    +0.024 C 
ATOM      3  C   UNL     1       2.162   1.488   1.198  0.00  0.00    +0.016 C 
ATOM      4  C   UNL     1       1.426   2.034  -0.001  0.00  0.00    +0.058 C 
ATOM      5  C   UNL     1      -0.019   1.528   0.010  0.00  0.00    -0.023 C 
ATOM      6  C   UNL     1       0.002  -0.004   0.002  0.00  0.00    +0.086 C 
ATOM      7  C   UNL     1       0.804  -0.490   1.179  0.00  0.00    +0.162 C 
ATOM      8  O   UNL     1       0.548  -1.572   1.669  0.00  0.00    -0.292 OA
ATOM      9  C   UNL     1      -0.752   2.039  -1.232  0.00  0.00    +0.011 C 
ATOM     10  C   UNL     1      -0.728   2.026   1.272  0.00  0.00    +0.011 C 
ATOM     11  N   UNL     1       3.168   2.240   1.744  0.00  0.00    -0.321 N 
ATOM     12  C   UNL     1       3.603   2.001   3.018  0.00  0.00    +0.016 C 
ATOM     13  C   UNL     1       3.353   0.823   3.614  0.00  0.00    +0.065 C 
ATOM     14  C   UNL     1       4.369   3.067   3.759  0.00  0.00    +0.061 C 
ATOM     15  H   UNL     1       3.634   3.045   1.157  0.00  0.00    +0.152 HD
ENDROOT
BRANCH   1  18
ATOM     16  C   UNL     1       4.372  -3.571   2.458  0.00  0.00    +0.163 A 
ATOM     17  C   UNL     1       3.478  -2.607   2.896  0.00  0.00    +0.054 A 
ATOM     18  C   UNL     1       3.574  -1.310   2.427  0.00  0.00    -0.030 A 
ATOM     19  C   UNL     1       4.558  -0.972   1.517  0.00  0.00    +0.028 A 
ATOM     20  C   UNL     1       5.458  -1.927   1.079  0.00  0.00    +0.086 A 
ATOM     21  C   UNL     1       5.366  -3.230   1.546  0.00  0.00    +0.177 A 
ATOM     22 CL   UNL     1       6.696  -1.498  -0.059  0.00  0.00    -0.080 Cl
BRANCH  21  23
ATOM     23  O   UNL     1       6.247  -4.172   1.113  0.00  0.00    -0.502 OA
ATOM     24  H   UNL     1       7.032  -3.902   0.393  0.00  0.00    +0.292 HD
ENDBRANCH  21  23
BRANCH  16  25
ATOM     25  O   UNL     1       4.279  -4.847   2.918  0.00  0.00    -0.489 OA
BRANCH  25  27
ATOM     26  C   UNL     1       3.286  -6.600   4.253  0.00  0.00    +0.048 C 
ATOM     27  C   UNL     1       3.233  -5.125   3.852  0.00  0.00    +0.226 C 
ENDBRANCH  25  27
ENDBRANCH  16  25
ENDBRANCH   1  18
BRANCH  13  28
ATOM     28  C   UNL     1       3.808   0.603   4.935  0.00  0.00    +0.338 C 
ATOM     29  O   UNL     1       4.420   1.476   5.521  0.00  0.00    -0.245 OA
BRANCH  28  30
ATOM     30  O   UNL     1       3.564  -0.576   5.545  0.00  0.00    -0.459 OA
BRANCH  30  31
ATOM     31  C   UNL     1       4.053  -0.729   6.879  0.00  0.00    +0.264 C 
BRANCH  31  32
ATOM     32  C   UNL     1       3.683  -2.119   7.402  0.00  0.00    +0.156 C 
ATOM     33  C   UNL     1       4.306  -2.338   8.794  0.00  0.00    +0.037 C 
ATOM     34  C   UNL     1       3.092  -2.623   9.712  0.00  0.00    +0.031 C 
ATOM     35  C   UNL     1       2.012  -3.068   8.693  0.00  0.00    +0.160 C 
ATOM     36  O   UNL     1       2.256  -2.222   7.547  0.00  0.00    -0.373 OA
ENDBRANCH  31  32
ENDBRANCH  30  31
ENDBRANCH  28  30
ENDBRANCH  13  28
TORSDOF 8
