REMARK  Name = ZINC16695044
REMARK  12 active torsions:
REMARK  status: ('A' for Active; 'I' for Inactive)
REMARK    1  A    between atoms: C_1  and  C_2
REMARK    2  A    between atoms: C_2  and  C_3
REMARK    3  A    between atoms: C_2  and  C_4
REMARK    4  A    between atoms: C_4  and  C_6
REMARK    5  A    between atoms: C_4  and  N_17
REMARK    6  A    between atoms: N_17  and  C_18
REMARK    7  A    between atoms: C_18  and  C_19
REMARK    8  A    between atoms: N_21  and  C_22
REMARK    9  A    between atoms: C_22  and  C_23
REMARK   10  A    between atoms: C_23  and  C_24
REMARK   11  A    between atoms: C_27  and  S_30
REMARK   12  A    between atoms: S_30  and  N_33
REMARK                            x       y       z     vdW  Elec       q    Type
REMARK                         _______ _______ _______ _____ _____    ______ ____
ROOT
ATOM      1  C   UNL     1      -1.418  -2.419   1.527  0.00  0.00    +0.178 C 
ENDROOT
BRANCH   1   2
ATOM      2  C   UNL     1      -1.520  -3.921   1.605  0.00  0.00    +0.227 C 
ATOM      3  O   UNL     1      -1.560  -4.579   0.587  0.00  0.00    -0.274 OA
ATOM      4  N   UNL     1      -1.567  -4.532   2.805  0.00  0.00    -0.314 N 
ATOM      5  H   UNL     1      -1.535  -4.005   3.619  0.00  0.00    +0.149 HD
BRANCH   4   6
ATOM      6  C   UNL     1      -1.666  -5.991   2.881  0.00  0.00    +0.109 C 
BRANCH   6   7
ATOM      7  C   UNL     1      -1.702  -6.425   4.347  0.00  0.00    +0.054 C 
BRANCH   7   8
ATOM      8  C   UNL     1      -1.804  -7.926   4.425  0.00  0.00    -0.046 A 
ATOM      9  C   UNL     1      -3.045  -8.534   4.449  0.00  0.00    +0.005 A 
ATOM     10  C   UNL     1      -3.139  -9.912   4.521  0.00  0.00    +0.029 A 
ATOM     11  C   UNL     1      -1.991 -10.681   4.567  0.00  0.00    +0.105 A 
ATOM     12  C   UNL     1      -0.750 -10.073   4.542  0.00  0.00    +0.029 A 
ATOM     13  C   UNL     1      -0.656  -8.696   4.466  0.00  0.00    +0.005 A 
BRANCH  11  14
ATOM     14  S   UNL     1      -2.111 -12.437   4.659  0.00  0.00    +0.056 S 
ATOM     15  O   UNL     1      -0.898 -12.896   5.241  0.00  0.00    -0.153 OA
ATOM     16  O   UNL     1      -3.383 -12.728   5.220  0.00  0.00    -0.153 OA
BRANCH  14  17
ATOM     17  N   UNL     1      -2.136 -13.008   3.105  0.00  0.00    -0.204 NA
ATOM     18  H   UNL     1      -2.088 -12.389   2.360  0.00  0.00    +0.144 HD
ATOM     19  H   UNL     1      -2.199 -13.961   2.940  0.00  0.00    +0.144 HD
ENDBRANCH  14  17
ENDBRANCH  11  14
ENDBRANCH   7   8
ENDBRANCH   6   7
ENDBRANCH   4   6
ENDBRANCH   1   2
BRANCH   1  20
ATOM     20  N   UNL     1      -1.383  -2.003   0.119  0.00  0.00    -0.301 NA
ATOM     21  H   UNL     1      -2.227  -2.278  -0.361  0.00  0.00    +0.123 HD
BRANCH  20  22
ATOM     22  C   UNL     1      -1.159  -0.556   0.003  0.00  0.00    +0.087 C 
BRANCH  22  23
ATOM     23  C   UNL     1      -1.715  -0.065  -1.310  0.00  0.00    -0.027 A 
ATOM     24  C   UNL     1      -1.562  -0.829  -2.451  0.00  0.00    +0.009 A 
ATOM     25  C   UNL     1      -2.069  -0.385  -3.659  0.00  0.00    +0.050 A 
ATOM     26  C   UNL     1      -2.732   0.829  -3.721  0.00  0.00    +0.162 A 
ATOM     27  C   UNL     1      -2.886   1.595  -2.575  0.00  0.00    +0.162 A 
ATOM     28  C   UNL     1      -2.381   1.146  -1.366  0.00  0.00    +0.054 A 
ATOM     29  O   UNL     1      -3.543   2.790  -2.646  0.00  0.00    -0.488 OA
ATOM     30  C   UNL     1      -2.880   3.824  -3.376  0.00  0.00    +0.232 C 
ATOM     31  C   UNL     1      -3.169   3.704  -4.864  0.00  0.00    +0.082 C 
ATOM     32  C   UNL     1      -2.600   2.428  -5.463  0.00  0.00    +0.232 C 
ATOM     33  O   UNL     1      -3.239   1.277  -4.906  0.00  0.00    -0.488 OA
ENDBRANCH  22  23
BRANCH  22  35
ATOM     34  C   UNL     1       1.047  -0.994  -1.084  0.00  0.00    +0.009 C 
ATOM     35  C   UNL     1       0.342  -0.265   0.062  0.00  0.00    +0.004 C 
ATOM     36  C   UNL     1       0.576   1.241  -0.071  0.00  0.00    +0.009 C 
ENDBRANCH  22  35
ENDBRANCH  20  22
ENDBRANCH   1  20
TORSDOF 10
