REMARK  Name = ZINC01930509
REMARK  5 active torsions:
REMARK  status: ('A' for Active; 'I' for Inactive)
REMARK    1  A    between atoms: C_1  and  C_2
REMARK    2  A    between atoms: C_9  and  N_14
REMARK    3  A    between atoms: C_10  and  C_11
REMARK    4  A    between atoms: C_15  and  C_17
REMARK    5  A    between atoms: C_18  and  C_19
REMARK                            x       y       z     vdW  Elec       q    Type
REMARK                         _______ _______ _______ _____ _____    ______ ____
ROOT
ATOM      1  C   UNL     1      -4.237  -2.366  -4.655  0.00  0.00    +0.008 C 
ATOM      2  C   UNL     1      -3.567  -1.650  -3.482  0.00  0.00    -0.009 C 
ATOM      3  C   UNL     1      -2.045  -1.717  -3.637  0.00  0.00    +0.008 C 
ATOM      4  C   UNL     1      -1.376  -0.799  -2.613  0.00  0.00    +0.037 C 
ATOM      5  C   UNL     1      -1.919  -1.128  -1.228  0.00  0.00    -0.023 A 
ATOM      6  C   UNL     1      -3.070  -1.821  -1.079  0.00  0.00    -0.004 A 
ATOM      7  S   UNL     1      -3.285  -1.968   0.672  0.00  0.00    -0.077 S 
ATOM      8  C   UNL     1      -1.865  -1.129   1.201  0.00  0.00    +0.085 A 
ATOM      9  C   UNL     1      -1.257  -0.754   0.010  0.00  0.00    +0.068 A 
ATOM     10  C   UNL     1      -3.960  -2.338  -2.166  0.00  0.00    +0.046 C 
ENDROOT
BRANCH   9  11
ATOM     11  C   UNL     1       0.002  -0.004   0.002  0.00  0.00    +0.244 C 
ATOM     12  O   UNL     1       1.064  -0.598  -0.011  0.00  0.00    -0.270 OA
ATOM     13  N   UNL     1      -0.016   1.344   0.009  0.00  0.00    -0.325 N 
ATOM     14  H   UNL     1       0.817   1.840   0.004  0.00  0.00    +0.145 HD
ATOM     15  H   UNL     1      -0.863   1.817   0.016  0.00  0.00    +0.145 HD
ENDBRANCH   9  11
BRANCH   8  16
ATOM     16  N   UNL     1      -1.439  -0.890   2.497  0.00  0.00    -0.276 N 
ATOM     17  C   UNL     1      -2.168  -1.335   3.539  0.00  0.00    +0.241 C 
ATOM     18  O   UNL     1      -3.201  -1.947   3.341  0.00  0.00    -0.270 OA
ATOM     19  H   UNL     1      -0.615  -0.402   2.654  0.00  0.00    +0.156 HD
BRANCH  17  20
ATOM     20  C   UNL     1      -1.718  -1.083   4.907  0.00  0.00    +0.068 C 
ATOM     21  C   UNL     1      -2.448  -1.528   5.951  0.00  0.00    +0.013 C 
BRANCH  21  22
ATOM     22  C   UNL     1      -1.996  -1.274   7.327  0.00  0.00    -0.025 A 
ATOM     23  C   UNL     1      -0.805  -0.576   7.558  0.00  0.00    +0.011 A 
ATOM     24  C   UNL     1      -0.390  -0.337   8.850  0.00  0.00    +0.039 A 
ATOM     25  C   UNL     1      -1.142  -0.797   9.920  0.00  0.00    +0.123 A 
ATOM     26  C   UNL     1      -2.320  -1.494   9.698  0.00  0.00    +0.039 A 
ATOM     27  C   UNL     1      -2.750  -1.735   8.411  0.00  0.00    +0.011 A 
ATOM     28  F   UNL     1      -0.726  -0.564  11.184  0.00  0.00    -0.205 F 
ENDBRANCH  21  22
ENDBRANCH  17  20
ENDBRANCH   8  16
TORSDOF 4
