REMARK  Name = ZINC00507404
REMARK  4 active torsions:
REMARK  status: ('A' for Active; 'I' for Inactive)
REMARK    1  A    between atoms: C_1  and  C_2
REMARK    2  A    between atoms: C_2  and  C_3
REMARK    3  A    between atoms: C_2  and  C_4
REMARK    4  A    between atoms: N_12  and  N_15
REMARK                            x       y       z     vdW  Elec       q    Type
REMARK                         _______ _______ _______ _____ _____    ______ ____
ROOT
ATOM      1  C   UNL     1      -1.300   3.772  -2.294  0.00  0.00    +0.049 A 
ATOM      2  C   UNL     1      -0.986   3.082  -1.125  0.00  0.00    -0.022 A 
ATOM      3  C   UNL     1      -0.895   3.762   0.061  0.00  0.00    -0.031 A 
ATOM      4  C   UNL     1      -1.130   5.160   0.076  0.00  0.00    +0.037 A 
ATOM      5  C   UNL     1      -1.084   6.064   1.239  0.00  0.00    +0.095 A 
ATOM      6  C   UNL     1      -1.360   7.405   0.982  0.00  0.00    +0.106 A 
ATOM      7  C   UNL     1      -1.347   8.359   2.008  0.00  0.00    +0.285 A 
ATOM      8  O   UNL     1      -1.591   9.531   1.778  0.00  0.00    -0.265 OA
ATOM      9  N   UNL     1      -1.056   7.941   3.263  0.00  0.00    -0.221 N 
ATOM     10  C   UNL     1      -0.791   6.627   3.478  0.00  0.00    +0.222 A 
ATOM     11  N   UNL     1      -0.802   5.740   2.533  0.00  0.00    -0.234 NA
ATOM     12  S   UNL     1      -1.671   7.476  -0.762  0.00  0.00    -0.062 S 
ATOM     13  C   UNL     1      -1.443   5.759  -1.157  0.00  0.00    +0.112 A 
ATOM     14  N   UNL     1      -1.516   5.070  -2.276  0.00  0.00    -0.244 NA
ATOM     15  C   UNL     1      -0.547   3.096   1.364  0.00  0.00    +0.036 C 
ATOM     16  C   UNL     1      -0.739   1.584   1.263  0.00  0.00    +0.005 C 
ATOM     17  C   UNL     1      -0.013   1.086   0.008  0.00  0.00    +0.005 C 
ATOM     18  C   UNL     1      -0.760   1.596  -1.223  0.00  0.00    +0.037 C 
ENDROOT
BRANCH   1  20
ATOM     19  C   UNL     1      -2.802   3.177  -4.175  0.00  0.00    +0.014 C 
ATOM     20  C   UNL     1      -1.394   3.022  -3.598  0.00  0.00    +0.032 C 
ATOM     21  C   UNL     1      -0.371   3.586  -4.586  0.00  0.00    +0.014 C 
ENDBRANCH   1  20
BRANCH   9  22
ATOM     22  N   UNL     1      -1.030   8.830   4.300  0.00  0.00    -0.294 N 
ATOM     23  H   UNL     1      -0.798   8.368   5.167  0.00  0.00    +0.163 HD
ATOM     24  H   UNL     1      -0.389   9.586   4.111  0.00  0.00    +0.163 HD
ENDBRANCH   9  22
TORSDOF 2
