REMARK  Name = ZINC33011954
REMARK  9 active torsions:
REMARK  status: ('A' for Active; 'I' for Inactive)
REMARK    1  A    between atoms: C_1  and  C_2
REMARK    2  A    between atoms: C_2  and  C_3
REMARK    3  A    between atoms: C_3  and  C_4
REMARK    4  A    between atoms: C_4  and  N_5
REMARK    5  A    between atoms: C_24  and  C_27
REMARK    6  A    between atoms: C_30  and  O_35
REMARK    7  A    between atoms: C_31  and  O_33
REMARK    8  A    between atoms: O_33  and  C_34
REMARK    9  A    between atoms: O_35  and  C_36
REMARK                            x       y       z     vdW  Elec       q    Type
REMARK                         _______ _______ _______ _____ _____    ______ ____
ROOT
ATOM      1  N   UNL     1       1.513  -2.268   2.537  0.00  0.00    -0.249 N 
ATOM      2  C   UNL     1       2.849  -2.447   2.482  0.00  0.00    +0.259 C 
ATOM      3  O   UNL     1       3.503  -1.991   1.563  0.00  0.00    -0.269 OA
ATOM      4  C   UNL     1       3.494  -3.210   3.565  0.00  0.00    +0.116 C 
ATOM      5  C   UNL     1       2.622  -3.724   4.636  0.00  0.00    +0.256 C 
ATOM      6  N   UNL     1       1.300  -3.467   4.560  0.00  0.00    -0.263 N 
ATOM      7  H   UNL     1       0.712  -3.798   5.256  0.00  0.00    +0.157 HD
ATOM      8  C   UNL     1       0.781  -2.760   3.546  0.00  0.00    +0.146 C 
ATOM      9  S   UNL     1      -0.908  -2.478   3.536  0.00  0.00    -0.018 S 
ATOM     10  O   UNL     1       3.082  -4.363   5.563  0.00  0.00    -0.270 OA
ATOM     11  C   UNL     1       4.859  -3.435   3.575  0.00  0.00    +0.027 C 
ATOM     12  N   UNL     1       5.448  -3.279   2.442  0.00  0.00    -0.316 N 
ATOM     13  C   UNL     1       6.695  -3.139   1.896  0.00  0.00    +0.045 A 
ATOM     14  C   UNL     1       6.702  -2.701   0.560  0.00  0.00    +0.024 A 
ATOM     15  C   UNL     1       7.873  -2.515  -0.134  0.00  0.00    +0.002 A 
ATOM     16  C   UNL     1       9.084  -2.763   0.488  0.00  0.00    +0.001 A 
ATOM     17  C   UNL     1       9.096  -3.189   1.794  0.00  0.00    +0.016 A 
ATOM     18  C   UNL     1       7.910  -3.383   2.517  0.00  0.00    +0.030 A 
ATOM     19  S   UNL     1       8.087  -3.922   4.170  0.00  0.00    -0.115 S 
ATOM     20  C   UNL     1       6.773  -3.201   5.141  0.00  0.00    +0.087 C 
ATOM     21  C   UNL     1       5.428  -3.814   4.897  0.00  0.00    +0.071 C 
ATOM     22  H   UNL     1       4.784  -3.252   1.736  0.00  0.00    +0.152 HD
ENDROOT
BRANCH  20  23
ATOM     23  C   UNL     1       7.112  -3.357   6.601  0.00  0.00    -0.030 A 
ATOM     24  C   UNL     1       7.294  -4.619   7.135  0.00  0.00    +0.008 A 
ATOM     25  C   UNL     1       7.605  -4.768   8.474  0.00  0.00    +0.050 A 
ATOM     26  C   UNL     1       7.737  -3.651   9.283  0.00  0.00    +0.162 A 
ATOM     27  C   UNL     1       7.555  -2.381   8.745  0.00  0.00    +0.162 A 
ATOM     28  C   UNL     1       7.247  -2.238   7.401  0.00  0.00    +0.054 A 
BRANCH  27  29
ATOM     29  O   UNL     1       7.683  -1.281   9.535  0.00  0.00    -0.491 OA
ATOM     30  C   UNL     1       7.482  -0.009   8.914  0.00  0.00    +0.277 C 
ENDBRANCH  27  29
BRANCH  26  31
ATOM     31  O   UNL     1       8.043  -3.795  10.600  0.00  0.00    -0.491 OA
ATOM     32  C   UNL     1       8.215  -5.129  11.084  0.00  0.00    +0.277 C 
ENDBRANCH  26  31
ENDBRANCH  20  23
BRANCH   1  33
ATOM     33  C   UNL     1       0.848  -1.512   1.472  0.00  0.00    +0.116 C 
BRANCH  33  34
ATOM     34  C   UNL     1       0.817  -0.028   1.843  0.00  0.00    +0.019 C 
BRANCH  34  36
ATOM     35  C   UNL     1       0.091   2.245   1.102  0.00  0.00    +0.004 C 
ATOM     36  C   UNL     1       0.122   0.761   0.731  0.00  0.00    -0.002 C 
ENDBRANCH  34  36
ENDBRANCH  33  34
ENDBRANCH   1  33
TORSDOF 6
