REMARK  Name = ZINC54652677
REMARK  4 active torsions:
REMARK  status: ('A' for Active; 'I' for Inactive)
REMARK    1  A    between atoms: C_1  and  C_2
REMARK    2  A    between atoms: C_5  and  N_8
REMARK    3  A    between atoms: C_26  and  C_36
REMARK    4  A    between atoms: C_39  and  O_42
REMARK                            x       y       z     vdW  Elec       q    Type
REMARK                         _______ _______ _______ _____ _____    ______ ____
ROOT
ATOM      1  N   UNL     1       0.375  -3.940   0.923  0.00  0.00    -0.210 N 
ATOM      2  C   UNL     1       0.131  -4.772   1.986  0.00  0.00    +0.230 C 
ATOM      3  O   UNL     1      -0.440  -4.495   3.018  0.00  0.00    -0.274 OA
ATOM      4  C   UNL     1       0.723  -6.104   1.599  0.00  0.00    +0.091 C 
ATOM      5  C   UNL     1      -0.002  -7.410   1.944  0.00  0.00    +0.007 C 
ATOM      6  C   UNL     1       0.641  -8.250   0.732  0.00  0.00    +0.010 C 
ATOM      7  C   UNL     1       0.037  -7.351  -0.428  0.00  0.00    +0.016 C 
ATOM      8  C   UNL     1       0.320  -5.965   0.082  0.00  0.00    +0.092 C 
ATOM      9  C   UNL     1       0.718  -4.624  -0.230  0.00  0.00    +0.230 C 
ATOM     10  O   UNL     1       1.226  -4.199  -1.245  0.00  0.00    -0.274 OA
ATOM     11  C   UNL     1      -1.473  -7.420  -0.057  0.00  0.00    +0.061 C 
ATOM     12  C   UNL     1      -1.421  -7.544   1.497  0.00  0.00    +0.019 C 
ATOM     13  C   UNL     1      -2.676  -7.173   2.188  0.00  0.00    +0.063 C 
ATOM     14  C   UNL     1      -3.775  -8.044   1.625  0.00  0.00    +0.032 A 
ATOM     15  C   UNL     1      -3.791  -8.807   0.510  0.00  0.00    +0.087 A 
ATOM     16  N   UNL     1      -4.950  -9.515   0.311  0.00  0.00    -0.311 N 
ATOM     17  H   UNL     1      -5.032 -10.107  -0.454  0.00  0.00    +0.170 HD
ATOM     18  C   UNL     1      -5.974  -9.390   1.177  0.00  0.00    +0.289 A 
ATOM     19  O   UNL     1      -7.064  -9.934   1.142  0.00  0.00    -0.260 OA
ATOM     20  S   UNL     1      -5.388  -8.300   2.316  0.00  0.00    -0.030 S 
ATOM     21  S   UNL     1      -2.376  -8.856  -0.667  0.00  0.00    -0.103 S 
ENDROOT
BRANCH   1  26
ATOM     22  C   UNL     1      -0.005   1.715   1.219  0.00  0.00    +0.044 C 
ATOM     23  C   UNL     1       0.096   0.214   1.140  0.00  0.00    -0.050 A 
ATOM     24  C   UNL     1       0.446  -0.393  -0.052  0.00  0.00    +0.005 A 
ATOM     25  C   UNL     1       0.539  -1.769  -0.127  0.00  0.00    +0.024 A 
ATOM     26  C   UNL     1       0.282  -2.543   0.997  0.00  0.00    +0.044 A 
ATOM     27  C   UNL     1      -0.069  -1.931   2.192  0.00  0.00    +0.024 A 
ATOM     28  C   UNL     1      -0.156  -0.554   2.262  0.00  0.00    +0.005 A 
ENDBRANCH   1  26
BRANCH  13  29
ATOM     29  C   UNL     1      -2.990  -5.721   1.936  0.00  0.00    -0.039 A 
ATOM     30  C   UNL     1      -3.403  -5.312   0.682  0.00  0.00    +0.008 A 
ATOM     31  C   UNL     1      -3.692  -3.981   0.448  0.00  0.00    +0.045 A 
ATOM     32  C   UNL     1      -3.567  -3.055   1.474  0.00  0.00    +0.117 A 
ATOM     33  C   UNL     1      -3.153  -3.469   2.732  0.00  0.00    +0.045 A 
ATOM     34  C   UNL     1      -2.871  -4.801   2.962  0.00  0.00    +0.008 A 
BRANCH  32  35
ATOM     35  O   UNL     1      -3.850  -1.746   1.246  0.00  0.00    -0.507 OA
ATOM     36  H   UNL     1      -4.773  -1.508   1.410  0.00  0.00    +0.292 HD
ENDBRANCH  32  35
ENDBRANCH  13  29
TORSDOF 3
