REMARK  Name = ZINC13490257
REMARK  9 active torsions:
REMARK  status: ('A' for Active; 'I' for Inactive)
REMARK    1  A    between atoms: C_5  and  C_7
REMARK    2  A    between atoms: C_7  and  C_9
REMARK    3  A    between atoms: C_7  and  C_23
REMARK    4  A    between atoms: C_9  and  C_10
REMARK    5  A    between atoms: C_10  and  N_11
REMARK    6  A    between atoms: C_12  and  C_13
REMARK    7  A    between atoms: C_13  and  C_14
REMARK    8  A    between atoms: C_14  and  C_15
REMARK    9  A    between atoms: C_15  and  C_16
REMARK                            x       y       z     vdW  Elec       q    Type
REMARK                         _______ _______ _______ _____ _____    ______ ____
ROOT
ATOM      1  C   UNL     1       2.444  -2.042   2.168  0.00  0.00    +0.114 C 
ENDROOT
BRANCH   1   2
ATOM      2  N   UNL     1       2.344  -2.324   3.603  0.00  0.00    -0.377 N 
ATOM      3  C   UNL     1       3.334  -2.046   4.387  0.00  0.00    +0.065 C 
ATOM      4  N   UNL     1       3.241  -2.309   5.728  0.00  0.00    -0.348 N 
ATOM      5  H   UNL     1       2.432  -2.704   6.090  0.00  0.00    +0.143 HD
ATOM      6  H   UNL     1       3.984  -2.101   6.316  0.00  0.00    +0.143 HD
ATOM      7  H   UNL     1       1.535  -2.718   3.964  0.00  0.00    +0.160 HD
BRANCH   3   8
ATOM      8  C   UNL     1       4.591  -1.433   3.825  0.00  0.00    +0.069 C 
BRANCH   8   9
ATOM      9  C   UNL     1       5.560  -2.543   3.414  0.00  0.00    +0.014 C 
BRANCH   9  10
ATOM     10  C   UNL     1       6.836  -1.921   2.844  0.00  0.00    +0.057 C 
BRANCH  10  11
ATOM     11  C   UNL     1       7.791  -3.014   2.439  0.00  0.00    +0.059 A 
ATOM     12  C   UNL     1       8.350  -3.167   1.223  0.00  0.00    +0.107 A 
ATOM     13  N   UNL     1       9.146  -4.278   1.290  0.00  0.00    -0.351 N 
ATOM     14  C   UNL     1       9.046  -4.766   2.546  0.00  0.00    +0.196 A 
ATOM     15  N   UNL     1       8.238  -4.002   3.228  0.00  0.00    -0.241 NA
ATOM     16  H   UNL     1       9.682  -4.646   0.571  0.00  0.00    +0.166 HD
ENDBRANCH  10  11
ENDBRANCH   9  10
ENDBRANCH   8   9
ENDBRANCH   3   8
ENDBRANCH   1   2
BRANCH   1  17
ATOM     17  C   UNL     1       1.146  -2.462   1.475  0.00  0.00    +0.035 C 
BRANCH  17  18
ATOM     18  C   UNL     1       1.250  -2.168  -0.023  0.00  0.00    +0.069 C 
BRANCH  18  19
ATOM     19  C   UNL     1       0.024  -2.692  -0.724  0.00  0.00    -0.038 A 
ATOM     20  C   UNL     1      -1.233  -2.300  -0.304  0.00  0.00    +0.006 A 
ATOM     21  C   UNL     1      -2.358  -2.781  -0.947  0.00  0.00    +0.020 A 
ATOM     22  C   UNL     1      -2.226  -3.655  -2.011  0.00  0.00    +0.041 A 
ATOM     23  C   UNL     1      -0.968  -4.046  -2.432  0.00  0.00    +0.020 A 
ATOM     24  C   UNL     1       0.157  -3.561  -1.792  0.00  0.00    +0.006 A 
ATOM     25 CL   UNL     1      -3.639  -4.259  -2.819  0.00  0.00    -0.084 Cl
ENDBRANCH  18  19
BRANCH  18  30
ATOM     26  C   UNL     1       0.749   1.546   0.379  0.00  0.00    +0.003 A 
ATOM     27  C   UNL     1       1.560   2.001  -0.650  0.00  0.00    +0.020 A 
ATOM     28  C   UNL     1       2.236   1.082  -1.430  0.00  0.00    +0.111 A 
ATOM     29  N   UNL     1       2.116  -0.212  -1.206  0.00  0.00    -0.259 NA
ATOM     30  C   UNL     1       1.354  -0.679  -0.237  0.00  0.00    +0.049 A 
ATOM     31  C   UNL     1       0.648   0.179   0.585  0.00  0.00    +0.024 A 
ENDBRANCH  18  30
ENDBRANCH  17  18
ENDBRANCH   1  17
TORSDOF 9
