REMARK  Name = ZINC38582968
REMARK  8 active torsions:
REMARK  status: ('A' for Active; 'I' for Inactive)
REMARK    1  A    between atoms: C_1  and  C_2
REMARK    2  A    between atoms: C_2  and  C_3
REMARK    3  A    between atoms: C_3  and  C_4
REMARK    4  A    between atoms: C_6  and  C_18
REMARK    5  A    between atoms: C_8  and  C_16
REMARK    6  A    between atoms: C_9  and  N_15
REMARK    7  A    between atoms: N_20  and  C_33
REMARK    8  A    between atoms: C_22  and  C_23
REMARK                            x       y       z     vdW  Elec       q    Type
REMARK                         _______ _______ _______ _____ _____    ______ ____
ROOT
ATOM      1  C   UNL     1       3.550  -1.065   0.731  0.00  0.00    +0.007 A 
ATOM      2  C   UNL     1       3.674  -0.665   2.018  0.00  0.00    +0.119 A 
ATOM      3  N   UNL     1       4.073   0.627   2.010  0.00  0.00    -0.239 N 
ATOM      4  N   UNL     1       4.198   1.031   0.675  0.00  0.00    -0.171 NA
ATOM      5  C   UNL     1       3.890   0.015  -0.091  0.00  0.00    +0.074 A 
ENDROOT
BRANCH   5   6
ATOM      6  C   UNL     1       3.897   0.011  -1.598  0.00  0.00    +0.016 C 
ATOM      7  C   UNL     1       2.492  -0.309  -2.113  0.00  0.00    +0.016 C 
ATOM      8  C   UNL     1       2.498  -0.313  -3.643  0.00  0.00    -0.010 C 
ATOM      9  C   UNL     1       2.929   1.063  -4.155  0.00  0.00    +0.007 C 
ATOM     10  C   UNL     1       4.334   1.382  -3.640  0.00  0.00    -0.010 C 
ATOM     11  C   UNL     1       4.327   1.387  -2.110  0.00  0.00    +0.016 C 
ATOM     12  C   UNL     1       5.315   0.321  -4.142  0.00  0.00    +0.007 C 
ATOM     13  C   UNL     1       4.884  -1.055  -3.630  0.00  0.00    -0.010 C 
ATOM     14  C   UNL     1       3.480  -1.374  -4.145  0.00  0.00    +0.007 C 
ATOM     15  C   UNL     1       4.878  -1.050  -2.100  0.00  0.00    +0.016 C 
ENDBRANCH   5   6
BRANCH   1  18
ATOM     16  C   UNL     1       0.762  -2.018   1.233  0.00  0.00    +0.069 C 
ATOM     17  C   UNL     1       1.746  -2.751   0.770  0.00  0.00    +0.030 C 
ATOM     18  C   UNL     1       3.127  -2.434   0.266  0.00  0.00    +0.101 C 
ATOM     19  C   UNL     1       4.032  -3.497   0.862  0.00  0.00    +0.098 C 
ATOM     20  C   UNL     1       3.534  -4.566   1.517  0.00  0.00    +0.195 C 
ATOM     21  O   UNL     1       2.236  -4.830   1.755  0.00  0.00    -0.448 OA
ATOM     22  C   UNL     1       1.268  -4.196   0.915  0.00  0.00    +0.343 C 
ATOM     23  N   UNL     1      -0.023  -4.024   1.590  0.00  0.00    -0.138 NA
ATOM     24  N   UNL     1      -0.232  -2.810   1.710  0.00  0.00    -0.155 NA
BRANCH  20  25
ATOM     25  N   UNL     1       4.444  -5.479   1.987  0.00  0.00    -0.329 N 
ATOM     26  H   UNL     1       5.392  -5.337   1.842  0.00  0.00    +0.145 HD
ATOM     27  H   UNL     1       4.139  -6.266   2.465  0.00  0.00    +0.145 HD
ENDBRANCH  20  25
BRANCH  19  28
ATOM     28  C   UNL     1       5.451  -3.361   0.725  0.00  0.00    +0.101 C 
ATOM     29  N   UNL     1       6.576  -3.254   0.617  0.00  0.00    -0.191 NA
ENDBRANCH  19  28
BRANCH  16  30
ATOM     30  C   UNL     1       0.742  -0.511   1.242  0.00  0.00    +0.057 C 
BRANCH  30  32
ATOM     31  C   UNL     1      -0.019   1.526   0.010  0.00  0.00    +0.004 C 
ATOM     32  C   UNL     1       0.002  -0.004   0.002  0.00  0.00    +0.003 C 
ENDBRANCH  30  32
ENDBRANCH  16  30
ENDBRANCH   1  18
BRANCH   3  33
ATOM     33  C   UNL     1       4.318   1.422   3.139  0.00  0.00    +0.065 A 
ATOM     34  C   UNL     1       4.159   0.890   4.412  0.00  0.00    +0.028 A 
ATOM     35  C   UNL     1       4.401   1.676   5.522  0.00  0.00    +0.002 A 
ATOM     36  C   UNL     1       4.800   2.990   5.367  0.00  0.00    +0.000 A 
ATOM     37  C   UNL     1       4.960   3.523   4.100  0.00  0.00    +0.002 A 
ATOM     38  C   UNL     1       4.725   2.740   2.986  0.00  0.00    +0.028 A 
ENDBRANCH   3  33
TORSDOF 7
