REMARK  Name = ZINC38433018
REMARK  18 active torsions:
REMARK  status: ('A' for Active; 'I' for Inactive)
REMARK    1  A    between atoms: C_1  and  C_2
REMARK    2  A    between atoms: C_2  and  C_3
REMARK    3  A    between atoms: C_3  and  N_4
REMARK    4  A    between atoms: N_4  and  C_5
REMARK    5  A    between atoms: C_5  and  C_6
REMARK    6  A    between atoms: C_6  and  C_7
REMARK    7  A    between atoms: C_8  and  C_10
REMARK    8  A    between atoms: N_15  and  C_17
REMARK    9  A    between atoms: C_17  and  C_18
REMARK   10  A    between atoms: C_21  and  C_24
REMARK   11  A    between atoms: C_24  and  N_25
REMARK   12  A    between atoms: C_29  and  C_32
REMARK   13  A    between atoms: N_34  and  C_35
REMARK   14  A    between atoms: N_34  and  C_38
REMARK   15  A    between atoms: C_35  and  C_36
REMARK   16  A    between atoms: C_36  and  C_37
REMARK   17  A    between atoms: C_38  and  C_39
REMARK   18  A    between atoms: C_39  and  C_40
REMARK                            x       y       z     vdW  Elec       q    Type
REMARK                         _______ _______ _______ _____ _____    ______ ____
ROOT
ATOM      1  C   UNL     1       6.723   2.537   0.974  0.00  0.00    -0.064 A 
ATOM      2  C   UNL     1       7.426   2.854  -0.173  0.00  0.00    +0.002 A 
ATOM      3  C   UNL     1       8.116   4.049  -0.253  0.00  0.00    +0.002 A 
ATOM      4  C   UNL     1       8.102   4.928   0.815  0.00  0.00    -0.064 A 
ATOM      5  C   UNL     1       7.398   4.611   1.961  0.00  0.00    +0.002 A 
ATOM      6  C   UNL     1       6.705   3.417   2.039  0.00  0.00    +0.002 A 
ENDROOT
BRANCH   1   7
ATOM      7  C   UNL     1       5.971   1.234   1.060  0.00  0.00    -0.043 C 
BRANCH   7  12
ATOM      8  C   UNL     1       2.514   0.309  -0.068  0.00  0.00    +0.059 C 
ATOM      9  C   UNL     1       1.719   1.289   0.799  0.00  0.00    +0.009 C 
ATOM     10  C   UNL     1       2.485   2.612   0.890  0.00  0.00    -0.018 C 
ATOM     11  C   UNL     1       3.885   2.347   1.449  0.00  0.00    -0.078 C 
ATOM     12  N   UNL     1       4.603   1.424   0.562  0.00  0.00    +0.383 N 
ATOM     13  C   UNL     1       3.913   0.129   0.525  0.00  0.00    -0.066 C 
ATOM     14  H   UNL     1       4.637   1.812  -0.369  0.00  0.00    -0.081 HD
BRANCH   8  16
ATOM     15  N   UNL     1       0.830  -1.243  -1.004  0.00  0.00    -0.301 N 
ATOM     16  C   UNL     1       1.806  -1.021  -0.101  0.00  0.00    +0.217 C 
ATOM     17  O   UNL     1       2.115  -1.892   0.685  0.00  0.00    -0.275 OA
BRANCH  15  18
ATOM     18  C   UNL     1       0.244  -2.579  -1.135  0.00  0.00    +0.107 C 
BRANCH  18  20
ATOM     19  C   UNL     1       0.559  -4.853  -2.122  0.00  0.00    +0.005 C 
ATOM     20  C   UNL     1       1.102  -3.423  -2.080  0.00  0.00    +0.016 C 
ENDBRANCH  18  20
ENDBRANCH  15  18
BRANCH  15  21
ATOM     21  C   UNL     1       0.356  -0.148  -1.854  0.00  0.00    +0.107 C 
BRANCH  21  22
ATOM     22  C   UNL     1      -0.930   0.434  -1.266  0.00  0.00    +0.016 C 
ATOM     23  C   UNL     1      -1.388   1.621  -2.115  0.00  0.00    +0.005 C 
ENDBRANCH  21  22
ENDBRANCH  15  21
ENDBRANCH   8  16
ENDBRANCH   7  12
ENDBRANCH   1   7
BRANCH   4  24
ATOM     24  C   UNL     1       8.855   6.230   0.728  0.00  0.00    -0.043 C 
BRANCH  24  25
ATOM     25  N   UNL     1       7.974   7.269   0.179  0.00  0.00    +0.383 N 
ATOM     26  C   UNL     1       7.616   6.926  -1.202  0.00  0.00    -0.078 C 
ATOM     27  C   UNL     1       6.634   7.962  -1.752  0.00  0.00    -0.018 C 
ATOM     28  C   UNL     1       7.291   9.345  -1.722  0.00  0.00    +0.009 C 
ATOM     29  C   UNL     1       7.726   9.662  -0.289  0.00  0.00    +0.059 C 
ATOM     30  C   UNL     1       8.668   8.562   0.207  0.00  0.00    -0.066 C 
ATOM     31  H   UNL     1       7.135   7.327   0.737  0.00  0.00    -0.081 HD
BRANCH  29  32
ATOM     32  C   UNL     1       8.441  10.988  -0.262  0.00  0.00    +0.217 C 
ATOM     33  O   UNL     1       9.653  11.023  -0.224  0.00  0.00    -0.275 OA
ATOM     34  N   UNL     1       7.734  12.136  -0.279  0.00  0.00    -0.301 N 
BRANCH  34  35
ATOM     35  C   UNL     1       8.430  13.423  -0.350  0.00  0.00    +0.107 C 
BRANCH  35  36
ATOM     36  C   UNL     1       8.621  13.819  -1.815  0.00  0.00    +0.016 C 
ATOM     37  C   UNL     1       9.347  15.164  -1.890  0.00  0.00    +0.005 C 
ENDBRANCH  35  36
ENDBRANCH  34  35
BRANCH  34  38
ATOM     38  C   UNL     1       6.271  12.095  -0.227  0.00  0.00    +0.107 C 
BRANCH  38  39
ATOM     39  C   UNL     1       5.810  12.185   1.230  0.00  0.00    +0.016 C 
ATOM     40  C   UNL     1       4.282  12.142   1.284  0.00  0.00    +0.005 C 
ENDBRANCH  38  39
ENDBRANCH  34  38
ENDBRANCH  29  32
ENDBRANCH  24  25
ENDBRANCH   4  24
TORSDOF 14
