REMARK  Name = ZINC02313757
REMARK  11 active torsions:
REMARK  status: ('A' for Active; 'I' for Inactive)
REMARK    1  A    between atoms: C_1  and  C_2
REMARK    2  A    between atoms: C_2  and  C_3
REMARK    3  A    between atoms: C_3  and  C_4
REMARK    4  A    between atoms: C_4  and  C_5
REMARK    5  A    between atoms: C_5  and  N_6
REMARK    6  A    between atoms: C_7  and  N_35
REMARK    7  A    between atoms: C_8  and  C_19
REMARK    8  A    between atoms: N_21  and  C_22
REMARK    9  A    between atoms: C_23  and  C_31
REMARK   10  A    between atoms: C_31  and  O_33
REMARK   11  A    between atoms: O_33  and  C_34
REMARK                            x       y       z     vdW  Elec       q    Type
REMARK                         _______ _______ _______ _____ _____    ______ ____
ROOT
ATOM      1  N   UNL     1       0.002  -0.004   0.002  0.00  0.00    -0.312 N 
ATOM      2  C   UNL     1      -0.004  -0.771  -1.122  0.00  0.00    +0.112 A 
ATOM      3  C   UNL     1       0.022  -2.122  -0.789  0.00  0.00    +0.104 A 
ATOM      4  C   UNL     1       0.037  -2.188   0.681  0.00  0.00    +0.122 A 
ATOM      5  C   UNL     1       0.024  -0.794   1.133  0.00  0.00    +0.162 A 
ATOM      6  N   UNL     1       0.032  -0.532   2.423  0.00  0.00    -0.226 NA
ATOM      7  C   UNL     1       0.054  -1.537   3.308  0.00  0.00    +0.092 A 
ATOM      8  C   UNL     1       0.064  -1.265   4.689  0.00  0.00    +0.030 A 
ATOM      9  C   UNL     1       0.086  -2.292   5.580  0.00  0.00    +0.002 A 
ATOM     10  C   UNL     1       0.100  -3.617   5.148  0.00  0.00    +0.002 A 
ATOM     11  C   UNL     1       0.091  -3.919   3.822  0.00  0.00    +0.030 A 
ATOM     12  C   UNL     1       0.068  -2.884   2.868  0.00  0.00    +0.090 A 
ATOM     13  N   UNL     1       0.059  -3.170   1.561  0.00  0.00    -0.241 NA
ENDROOT
BRANCH   3  14
ATOM     14  C   UNL     1       0.028  -3.218  -1.688  0.00  0.00    +0.254 C 
ATOM     15  O   UNL     1      -1.025  -3.702  -2.065  0.00  0.00    -0.270 OA
ATOM     16  N   UNL     1       1.197  -3.724  -2.127  0.00  0.00    -0.275 N 
ATOM     17  H   UNL     1       2.035  -3.338  -1.827  0.00  0.00    +0.156 HD
BRANCH  16  18
ATOM     18  C   UNL     1       1.202  -4.794  -3.005  0.00  0.00    +0.087 A 
ATOM     19  C   UNL     1       2.294  -5.444  -3.568  0.00  0.00    +0.091 A 
ATOM     20  C   UNL     1       2.024  -6.554  -4.466  0.00  0.00    -0.021 A 
ATOM     21  C   UNL     1       0.717  -6.828  -4.666  0.00  0.00    -0.004 A 
ATOM     22  S   UNL     1      -0.151  -5.644  -3.676  0.00  0.00    -0.077 S 
ATOM     23  C   UNL     1       0.141  -7.902  -5.537  0.00  0.00    +0.043 C 
ATOM     24  C   UNL     1       1.249  -8.414  -6.469  0.00  0.00    +0.005 C 
ATOM     25  C   UNL     1       2.505  -8.690  -5.637  0.00  0.00    +0.005 C 
ATOM     26  C   UNL     1       3.110  -7.370  -5.156  0.00  0.00    +0.037 C 
BRANCH  19  27
ATOM     27  C   UNL     1       3.664  -5.029  -3.264  0.00  0.00    +0.342 C 
ATOM     28  O   UNL     1       4.256  -5.525  -2.323  0.00  0.00    -0.245 OA
BRANCH  27  29
ATOM     29  O   UNL     1       4.272  -4.097  -4.026  0.00  0.00    -0.464 OA
ATOM     30  C   UNL     1       5.631  -3.734  -3.666  0.00  0.00    +0.280 C 
ENDBRANCH  27  29
ENDBRANCH  19  27
ENDBRANCH  16  18
ENDBRANCH   3  14
BRANCH   2  31
ATOM     31  N   UNL     1      -0.029  -0.282  -2.402  0.00  0.00    -0.344 N 
ATOM     32  H   UNL     1      -0.044   0.676  -2.555  0.00  0.00    +0.144 HD
ATOM     33  H   UNL     1      -0.032  -0.893  -3.155  0.00  0.00    +0.144 HD
ENDBRANCH   2  31
BRANCH   1  34
ATOM     34  C   UNL     1      -0.018   1.461   0.010  0.00  0.00    +0.125 C 
BRANCH  34  35
ATOM     35  C   UNL     1       1.418   1.990  -0.001  0.00  0.00    +0.022 C 
BRANCH  35  36
ATOM     36  C   UNL     1       1.397   3.520   0.008  0.00  0.00    +0.001 C 
BRANCH  36  38
ATOM     37  C   UNL     1       2.812   5.580   0.005  0.00  0.00    +0.004 C 
ATOM     38  C   UNL     1       2.832   4.050  -0.003  0.00  0.00    -0.003 C 
ENDBRANCH  36  38
ENDBRANCH  35  36
ENDBRANCH  34  35
ENDBRANCH   1  34
TORSDOF 9
