REMARK  Name = ZINC20078630
REMARK  2 active torsions:
REMARK  status: ('A' for Active; 'I' for Inactive)
REMARK    1  A    between atoms: C_5  and  C_6
REMARK    2  A    between atoms: C_8  and  N_11
REMARK                            x       y       z     vdW  Elec       q    Type
REMARK                         _______ _______ _______ _____ _____    ______ ____
ROOT
ATOM      1  C   UNL     1       1.344  -0.265   0.004  0.00  0.00    +0.021 A 
ATOM      2  C   UNL     1       2.254   0.791   0.010  0.00  0.00    -0.037 A 
ATOM      3  C   UNL     1       1.730   2.036  -0.004  0.00  0.00    -0.006 A 
ATOM      4  S   UNL     1      -0.022   1.783   0.012  0.00  0.00    -0.091 S 
ATOM      5  C   UNL     1       0.002  -0.004   0.002  0.00  0.00    +0.041 A 
ATOM      6  C   UNL     1       2.489   3.340  -0.064  0.00  0.00    +0.043 C 
ATOM      7  C   UNL     1       3.233   3.494   1.275  0.00  0.00    +0.005 C 
ATOM      8  C   UNL     1       4.480   2.641   1.280  0.00  0.00    +0.001 C 
ATOM      9  C   UNL     1       4.276   1.151   1.379  0.00  0.00    +0.005 C 
ATOM     10  C   UNL     1       3.767   0.553   0.065  0.00  0.00    +0.036 C 
ENDROOT
BRANCH   5  11
ATOM     11  C   UNL     1      -1.132  -0.952  -0.006  0.00  0.00    +0.122 A 
ATOM     12  C   UNL     1      -2.515  -0.628  -0.007  0.00  0.00    +0.097 A 
ATOM     13  C   UNL     1      -3.135  -1.842  -0.016  0.00  0.00    +0.216 A 
ATOM     14  O   UNL     1      -2.162  -2.768  -0.020  0.00  0.00    -0.339 OA
ATOM     15  N   UNL     1      -1.063  -2.264  -0.019  0.00  0.00    -0.076 NA
BRANCH  13  16
ATOM     16  N   UNL     1      -4.499  -2.074  -0.021  0.00  0.00    -0.327 N 
ATOM     17  H   UNL     1      -4.881  -3.106  -0.029  0.00  0.00    +0.145 HD
ATOM     18  H   UNL     1      -5.201  -1.228  -0.017  0.00  0.00    +0.145 HD
ENDBRANCH  13  16
ENDBRANCH   5  11
TORSDOF 2
