REMARK  Name = ZINC34210888
REMARK  9 active torsions:
REMARK  status: ('A' for Active; 'I' for Inactive)
REMARK    1  A    between atoms: C_1  and  C_2
REMARK    2  A    between atoms: N_17  and  C_18
REMARK    3  A    between atoms: C_26  and  C_41
REMARK    4  A    between atoms: C_29  and  O_40
REMARK    5  A    between atoms: C_32  and  C_39
REMARK    6  A    between atoms: C_33  and  C_34
REMARK    7  A    between atoms: C_33  and  O_38
REMARK    8  A    between atoms: C_34  and  C_36
REMARK    9  A    between atoms: C_36  and  O_37
REMARK                            x       y       z     vdW  Elec       q    Type
REMARK                         _______ _______ _______ _____ _____    ______ ____
ROOT
ATOM      1  C   UNL     1      -0.595   1.555   0.036  0.00  0.00    +0.011 C 
ATOM      2  C   UNL     1      -0.428   0.036  -0.039  0.00  0.00    +0.026 C 
ATOM      3  C   UNL     1      -1.797  -0.662   0.185  0.00  0.00    +0.011 C 
ATOM      4  C   UNL     1      -1.677  -1.236   1.605  0.00  0.00    +0.002 C 
ATOM      5  C   UNL     1      -2.650  -2.315   1.983  0.00  0.00    -0.001 C 
ATOM      6  C   UNL     1      -3.311  -3.001   0.801  0.00  0.00    +0.008 C 
ATOM      7  C   UNL     1      -3.908  -4.345   1.216  0.00  0.00    +0.031 C 
ATOM      8  C   UNL     1      -4.191  -4.365   2.699  0.00  0.00    -0.061 C 
ATOM      9  C   UNL     1      -5.431  -4.618   3.120  0.00  0.00    +0.028 C 
ATOM     10  C   UNL     1      -5.674  -4.620   4.571  0.00  0.00    +0.071 A 
ATOM     11  C   UNL     1      -4.757  -4.027   5.435  0.00  0.00    -0.001 A 
ATOM     12  C   UNL     1      -5.226  -4.183   6.722  0.00  0.00    +0.139 A 
ATOM     13  N   UNL     1      -6.376  -4.820   6.671  0.00  0.00    -0.174 NA
ATOM     14  N   UNL     1      -6.685  -5.093   5.327  0.00  0.00    -0.231 N 
ATOM     15  C   UNL     1      -3.516  -3.355   4.902  0.00  0.00    +0.050 C 
ATOM     16  C   UNL     1      -3.052  -4.114   3.661  0.00  0.00    -0.001 C 
ATOM     17  C   UNL     1      -1.977  -3.331   2.907  0.00  0.00    +0.031 C 
ATOM     18  C   UNL     1      -1.001  -2.623   3.836  0.00  0.00    +0.119 C 
ATOM     19  C   UNL     1       0.209  -2.103   3.039  0.00  0.00    +0.041 C 
ATOM     20  C   UNL     1      -0.209  -1.706   1.645  0.00  0.00    +0.009 C 
ATOM     21  C   UNL     1       0.505  -0.453   1.095  0.00  0.00    +0.134 C 
ATOM     22  C   UNL     1       0.063  -2.846   0.658  0.00  0.00    +0.015 C 
ATOM     23  C   UNL     1      -2.474  -5.467   4.091  0.00  0.00    +0.016 C 
ENDROOT
BRANCH  14  24
ATOM     24  C   UNL     1      -7.837  -5.744   4.863  0.00  0.00    +0.084 A 
ATOM     25  C   UNL     1      -8.419  -6.767   5.609  0.00  0.00    +0.034 A 
ATOM     26  C   UNL     1      -9.555  -7.380   5.110  0.00  0.00    +0.061 A 
ATOM     27  C   UNL     1     -10.073  -6.959   3.896  0.00  0.00    +0.213 A 
ATOM     28  N   UNL     1      -9.496  -5.987   3.214  0.00  0.00    -0.225 NA
ATOM     29  C   UNL     1      -8.416  -5.374   3.658  0.00  0.00    +0.141 A 
ATOM     30  F   UNL     1     -11.182  -7.553   3.402  0.00  0.00    -0.184 F 
ENDBRANCH  14  24
BRANCH  21  31
ATOM     31  C   UNL     1       1.854  -0.828   0.549  0.00  0.00    +0.190 C 
ATOM     32  O   UNL     1       1.967  -1.153  -0.609  0.00  0.00    -0.292 OA
BRANCH  31  33
ATOM     33  C   UNL     1       3.065  -0.799   1.445  0.00  0.00    +0.233 C 
BRANCH  33  34
ATOM     34  O   UNL     1       4.219  -1.194   0.700  0.00  0.00    -0.387 OA
ATOM     35  H   UNL     1       5.037  -1.198   1.215  0.00  0.00    +0.210 HD
ENDBRANCH  33  34
ENDBRANCH  31  33
ENDBRANCH  21  31
BRANCH  21  36
ATOM     36  O   UNL     1       0.621   0.538   2.111  0.00  0.00    -0.380 OA
ATOM     37  H   UNL     1       1.003   1.372   1.806  0.00  0.00    +0.211 HD
ENDBRANCH  21  36
BRANCH  18  38
ATOM     38  O   UNL     1      -1.634  -1.511   4.476  0.00  0.00    -0.391 OA
ATOM     39  H   UNL     1      -1.057  -1.024   5.079  0.00  0.00    +0.210 HD
ENDBRANCH  18  38
TORSDOF 6
