REMARK  Name = ZINC08589510
REMARK  5 active torsions:
REMARK  status: ('A' for Active; 'I' for Inactive)
REMARK    1  A    between atoms: C_1  and  C_2
REMARK    2  A    between atoms: C_5  and  N_8
REMARK    3  A    between atoms: C_9  and  C_11
REMARK    4  A    between atoms: C_21  and  S_24
REMARK    5  A    between atoms: S_24  and  C_27
REMARK                            x       y       z     vdW  Elec       q    Type
REMARK                         _______ _______ _______ _____ _____    ______ ____
ROOT
ATOM      1  C   UNL     1       0.308  -6.321   1.122  0.00  0.00    +0.039 A 
ATOM      2  C   UNL     1       0.316  -7.006  -0.099  0.00  0.00    +0.014 A 
ATOM      3  C   UNL     1       0.437  -8.366  -0.127  0.00  0.00    +0.014 A 
ATOM      4  C   UNL     1       0.553  -9.079   1.067  0.00  0.00    +0.047 A 
ATOM      5  C   UNL     1       0.546  -8.403   2.299  0.00  0.00    +0.054 A 
ATOM      6  C   UNL     1       0.428  -7.018   2.319  0.00  0.00    +0.039 A 
ATOM      7  N   UNL     1       0.662  -9.123   3.471  0.00  0.00    -0.320 N 
ATOM      8  H   UNL     1       0.656  -8.651   4.319  0.00  0.00    +0.169 HD
ATOM      9  C   UNL     1       0.783 -10.475   3.465  0.00  0.00    +0.278 A 
ATOM     10  O   UNL     1       0.892 -11.125   4.644  0.00  0.00    -0.266 OA
ATOM     11  C   UNL     1       0.797 -11.199   2.311  0.00  0.00    +0.204 A 
ATOM     12  C   UNL     1       0.685 -10.549   1.070  0.00  0.00    +0.218 A 
ATOM     13  O   UNL     1       0.697 -11.181   0.025  0.00  0.00    -0.285 OA
ENDROOT
BRANCH   1  15
ATOM     14  N   UNL     1       0.059  -4.169  -0.021  0.00  0.00    -0.282 N 
ATOM     15  C   UNL     1       0.176  -4.848   1.138  0.00  0.00    +0.248 C 
ATOM     16  O   UNL     1       0.174  -4.249   2.196  0.00  0.00    -0.270 OA
ATOM     17  H   UNL     1      -0.016  -4.650  -0.860  0.00  0.00    +0.155 HD
BRANCH  14  22
ATOM     18  C   UNL     1       0.006   1.503   0.009  0.00  0.00    +0.044 C 
ATOM     19  C   UNL     1       0.020  -0.004   0.001  0.00  0.00    -0.050 A 
ATOM     20  C   UNL     1      -0.723  -0.696  -0.937  0.00  0.00    +0.005 A 
ATOM     21  C   UNL     1      -0.712  -2.077  -0.948  0.00  0.00    +0.023 A 
ATOM     22  C   UNL     1       0.047  -2.771  -0.014  0.00  0.00    +0.034 A 
ATOM     23  C   UNL     1       0.792  -2.072   0.927  0.00  0.00    +0.023 A 
ATOM     24  C   UNL     1       0.781  -0.692   0.928  0.00  0.00    +0.005 A 
ENDBRANCH  14  22
ENDBRANCH   1  15
BRANCH  11  25
ATOM     25  S   UNL     1       0.957 -12.953   2.374  0.00  0.00    +0.034 S 
ATOM     26  O   UNL     1       1.978 -13.301   1.450  0.00  0.00    -0.164 OA
ATOM     27  O   UNL     1       1.021 -13.305   3.750  0.00  0.00    -0.164 OA
BRANCH  25  28
ATOM     28  C   UNL     1      -0.543 -13.635   1.749  0.00  0.00    +0.094 A 
ATOM     29  C   UNL     1      -1.593 -13.899   2.609  0.00  0.00    +0.029 A 
ATOM     30  C   UNL     1      -2.769 -14.435   2.119  0.00  0.00    +0.022 A 
ATOM     31  C   UNL     1      -2.896 -14.706   0.768  0.00  0.00    +0.041 A 
ATOM     32  C   UNL     1      -1.844 -14.442  -0.091  0.00  0.00    +0.022 A 
ATOM     33  C   UNL     1      -0.670 -13.901   0.399  0.00  0.00    +0.029 A 
ATOM     34 CL   UNL     1      -4.372 -15.379   0.152  0.00  0.00    -0.084 Cl
ENDBRANCH  25  28
ENDBRANCH  11  25
TORSDOF 4
