REMARK  Name = ZINC39558600
REMARK  4 active torsions:
REMARK  status: ('A' for Active; 'I' for Inactive)
REMARK    1  A    between atoms: C_6  and  N_7
REMARK    2  A    between atoms: C_8  and  C_10
REMARK    3  A    between atoms: C_10  and  N_11
REMARK    4  A    between atoms: C_12  and  C_14
REMARK                            x       y       z     vdW  Elec       q    Type
REMARK                         _______ _______ _______ _____ _____    ______ ____
ROOT
ATOM      1  N   UNL     1      -1.202  -0.720   0.010  0.00  0.00    -0.284 N 
ATOM      2  C   UNL     1      -2.374  -0.065   0.126  0.00  0.00    +0.234 C 
ATOM      3  O   UNL     1      -2.393   1.148   0.133  0.00  0.00    -0.274 OA
ATOM      4  H   UNL     1      -1.192  -1.687  -0.063  0.00  0.00    +0.155 HD
ENDROOT
BRANCH   1  10
ATOM      5  C   UNL     1       1.138  -0.544   0.584  0.00  0.00    +0.025 A 
ATOM      6  C   UNL     1       2.328   0.157   0.572  0.00  0.00    +0.029 A 
ATOM      7  C   UNL     1       2.390   1.404  -0.031  0.00  0.00    +0.067 A 
ATOM      8  C   UNL     1       1.250   1.950  -0.625  0.00  0.00    +0.069 A 
ATOM      9  C   UNL     1       0.057   1.244  -0.610  0.00  0.00    +0.051 A 
ATOM     10  C   UNL     1       0.002  -0.003  -0.006  0.00  0.00    +0.036 A 
ATOM     11  N   UNL     1       1.618   3.191  -1.138  0.00  0.00    -0.306 N 
ATOM     12  H   UNL     1       1.034   3.807  -1.608  0.00  0.00    +0.170 HD
ATOM     13  C   UNL     1       2.922   3.392  -0.869  0.00  0.00    +0.325 A 
ATOM     14  O   UNL     1       3.557   4.382  -1.181  0.00  0.00    -0.247 OA
ATOM     15  N   UNL     1       3.416   2.332  -0.202  0.00  0.00    -0.306 N 
ATOM     16  H   UNL     1       4.330   2.232   0.107  0.00  0.00    +0.170 HD
ENDBRANCH   1  10
BRANCH   2  17
ATOM     17  C   UNL     1      -3.662  -0.839   0.248  0.00  0.00    +0.200 C 
BRANCH  17  18
ATOM     18  N   UNL     1      -4.785   0.095   0.360  0.00  0.00    -0.302 N 
ATOM     19  C   UNL     1      -6.042  -0.375   0.480  0.00  0.00    +0.251 C 
ATOM     20  O   UNL     1      -6.245  -1.575   0.495  0.00  0.00    -0.270 OA
ATOM     21  H   UNL     1      -4.623   1.051   0.349  0.00  0.00    +0.150 HD
BRANCH  19  22
ATOM     22  C   UNL     1      -7.165   0.559   0.593  0.00  0.00    +0.076 A 
ATOM     23  C   UNL     1      -8.518   0.286   0.729  0.00  0.00    +0.037 A 
ATOM     24  C   UNL     1      -9.343   1.382   0.812  0.00  0.00    +0.040 A 
ATOM     25  C   UNL     1      -8.796   2.624   0.757  0.00  0.00    +0.070 A 
ATOM     26  S   UNL     1      -7.148   2.341   0.600  0.00  0.00    -0.076 S 
ATOM     27 BR   UNL     1      -9.686   4.290   0.846  0.00  0.00    -0.041 Br
ATOM     28 BR   UNL     1     -11.212   1.165   0.999  0.00  0.00    -0.049 Br
ENDBRANCH  19  22
ENDBRANCH  17  18
ENDBRANCH   2  17
TORSDOF 4
