REMARK  Name = ZINC39699870
REMARK  5 active torsions:
REMARK  status: ('A' for Active; 'I' for Inactive)
REMARK    1  A    between atoms: C_1  and  O_2
REMARK    2  A    between atoms: O_2  and  C_3
REMARK    3  A    between atoms: C_6  and  C_11
REMARK    4  A    between atoms: C_7  and  O_10
REMARK    5  A    between atoms: N_12  and  N_13
REMARK                            x       y       z     vdW  Elec       q    Type
REMARK                         _______ _______ _______ _____ _____    ______ ____
ROOT
ATOM      1  N   UNL     1       4.369  -3.398  -5.414  0.00  0.00    -0.206 N 
ATOM      2  C   UNL     1       5.714  -3.700  -5.365  0.00  0.00    +0.230 C 
ATOM      3  N   UNL     1       6.257  -4.277  -6.410  0.00  0.00    -0.330 N 
ATOM      4  C   UNL     1       7.663  -4.664  -6.320  0.00  0.00    +0.229 C 
ATOM      5  C   UNL     1       8.311  -3.695  -5.341  0.00  0.00    +0.115 C 
ATOM      6  C   UNL     1       9.439  -3.250  -5.961  0.00  0.00    +0.025 A 
ATOM      7  C   UNL     1      10.503  -2.424  -5.521  0.00  0.00    +0.012 A 
ATOM      8  C   UNL     1      11.493  -2.152  -6.413  0.00  0.00    +0.001 A 
ATOM      9  C   UNL     1      11.524  -2.634  -7.726  0.00  0.00    +0.002 A 
ATOM     10  C   UNL     1      10.561  -3.438  -8.251  0.00  0.00    +0.026 A 
ATOM     11  C   UNL     1       9.449  -3.793  -7.354  0.00  0.00    +0.046 A 
ATOM     12  N   UNL     1       8.412  -4.546  -7.562  0.00  0.00    -0.359 N 
ATOM     13  N   UNL     1       7.696  -3.339  -4.209  0.00  0.00    -0.146 NA
ATOM     14  N   UNL     1       6.400  -3.377  -4.242  0.00  0.00    -0.113 NA
ATOM     15  H   UNL     1       3.851  -3.617  -6.205  0.00  0.00    +0.177 HD
ATOM     16  H   UNL     1       8.176  -4.961  -8.407  0.00  0.00    +0.162 HD
ATOM     17  H   UNL     1       5.742  -4.442  -7.216  0.00  0.00    +0.165 HD
ENDROOT
BRANCH   1  19
ATOM     18  C   UNL     1       2.483  -2.492  -4.368  0.00  0.00    +0.142 C 
ATOM     19  N   UNL     1       3.750  -2.776  -4.322  0.00  0.00    -0.187 NA
BRANCH  18  23
ATOM     20  C   UNL     1       0.606  -0.607  -1.056  0.00  0.00    +0.151 A 
ATOM     21  C   UNL     1      -0.135  -0.920  -2.190  0.00  0.00    +0.061 A 
ATOM     22  C   UNL     1       0.470  -1.532  -3.267  0.00  0.00    +0.032 A 
ATOM     23  C   UNL     1       1.833  -1.838  -3.220  0.00  0.00    +0.038 A 
ATOM     24  C   UNL     1       2.578  -1.521  -2.075  0.00  0.00    +0.143 A 
ATOM     25  C   UNL     1       1.960  -0.903  -1.002  0.00  0.00    +0.102 A 
ATOM     26 BR   UNL     1       2.962  -0.467   0.542  0.00  0.00    -0.043 Br
ATOM     27 BR   UNL     1      -1.979  -0.506  -2.255  0.00  0.00    -0.046 Br
BRANCH  20  29
ATOM     28  C   UNL     1      -0.017   1.425   0.010  0.00  0.00    +0.277 C 
ATOM     29  O   UNL     1       0.002  -0.004   0.002  0.00  0.00    -0.493 OA
ENDBRANCH  20  29
BRANCH  24  30
ATOM     30  O   UNL     1       3.903  -1.817  -2.022  0.00  0.00    -0.505 OA
ATOM     31  H   UNL     1       4.477  -1.110  -2.349  0.00  0.00    +0.292 HD
ENDBRANCH  24  30
ENDBRANCH  18  23
ENDBRANCH   1  19
TORSDOF 4
