REMARK  Name = ZINC11983361
REMARK  6 active torsions:
REMARK  status: ('A' for Active; 'I' for Inactive)
REMARK    1  A    between atoms: C_3  and  S_29
REMARK    2  A    between atoms: C_6  and  C_7
REMARK    3  A    between atoms: C_7  and  C_8
REMARK    4  A    between atoms: C_8  and  N_53
REMARK    5  A    between atoms: N_12  and  C_22
REMARK    6  A    between atoms: S_29  and  N_32
REMARK                            x       y       z     vdW  Elec       q    Type
REMARK                         _______ _______ _______ _____ _____    ______ ____
ROOT
ATOM      1  C   UNL     1      -2.922   4.398   0.896  0.00  0.00    +0.020 C 
ATOM      2  C   UNL     1      -4.215   5.164   1.044  0.00  0.00    +0.203 C 
ATOM      3  O   UNL     1      -4.412   6.125   0.332  0.00  0.00    -0.277 OA
ATOM      4  N   UNL     1      -5.161   4.805   1.917  0.00  0.00    -0.270 N 
ATOM      5  C   UNL     1      -5.043   3.656   2.807  0.00  0.00    +0.090 C 
ATOM      6  C   UNL     1      -3.597   3.148   2.850  0.00  0.00    -0.024 C 
ATOM      7  C   UNL     1      -2.742   4.155   3.666  0.00  0.00    +0.152 C 
ATOM      8  S   UNL     1      -3.913   4.569   5.026  0.00  0.00    -0.031 S 
ATOM      9  O   UNL     1      -3.906   5.976   5.230  0.00  0.00    -0.174 OA
ATOM     10  O   UNL     1      -3.672   3.702   6.126  0.00  0.00    -0.174 OA
ATOM     11  C   UNL     1      -5.496   4.089   4.222  0.00  0.00    +0.187 C 
ATOM     12  N   UNL     1      -3.077   3.048   1.473  0.00  0.00    +0.390 N 
ATOM     13  H   UNL     1      -3.743   2.515   0.902  0.00  0.00    -0.081 HD
ENDROOT
BRANCH   4  14
ATOM     14  C   UNL     1      -6.330   5.574   1.980  0.00  0.00    +0.037 A 
ATOM     15  C   UNL     1      -7.540   5.034   1.566  0.00  0.00    +0.025 A 
ATOM     16  C   UNL     1      -8.693   5.792   1.634  0.00  0.00    +0.022 A 
ATOM     17  C   UNL     1      -8.639   7.093   2.103  0.00  0.00    +0.041 A 
ATOM     18  C   UNL     1      -7.433   7.635   2.511  0.00  0.00    +0.022 A 
ATOM     19  C   UNL     1      -6.279   6.879   2.450  0.00  0.00    +0.025 A 
ATOM     20 CL   UNL     1     -10.088   8.046   2.180  0.00  0.00    -0.084 Cl
ENDBRANCH   4  14
BRANCH  12  21
ATOM     21  C   UNL     1      -1.776   2.346   1.473  0.00  0.00    -0.073 C 
BRANCH  21  22
ATOM     22  C   UNL     1      -1.369   2.057   0.027  0.00  0.00    +0.016 C 
BRANCH  22  28
ATOM     23  C   UNL     1       1.133   2.032  -0.045  0.00  0.00    +0.005 A 
ATOM     24  C   UNL     1       2.340   1.358  -0.066  0.00  0.00    +0.029 A 
ATOM     25  C   UNL     1       2.362  -0.023  -0.027  0.00  0.00    +0.105 A 
ATOM     26  C   UNL     1       1.176  -0.732   0.031  0.00  0.00    +0.029 A 
ATOM     27  C   UNL     1      -0.031  -0.059   0.051  0.00  0.00    +0.005 A 
ATOM     28  C   UNL     1      -0.053   1.323   0.012  0.00  0.00    -0.049 A 
BRANCH  25  29
ATOM     29  S   UNL     1       3.900  -0.881  -0.053  0.00  0.00    +0.056 S 
ATOM     30  O   UNL     1       4.878   0.023   0.442  0.00  0.00    -0.153 OA
ATOM     31  O   UNL     1       3.667  -2.151   0.542  0.00  0.00    -0.153 OA
BRANCH  29  32
ATOM     32  N   UNL     1       4.277  -1.164  -1.640  0.00  0.00    -0.204 NA
ATOM     33  H   UNL     1       3.678  -0.863  -2.342  0.00  0.00    +0.144 HD
ATOM     34  H   UNL     1       5.096  -1.631  -1.869  0.00  0.00    +0.144 HD
ENDBRANCH  29  32
ENDBRANCH  25  29
ENDBRANCH  22  28
ENDBRANCH  21  22
ENDBRANCH  12  21
TORSDOF 6
