REMARK  Name = ZINC02690272
REMARK  7 active torsions:
REMARK  status: ('A' for Active; 'I' for Inactive)
REMARK    1  A    between atoms: C_1  and  O_2
REMARK    2  A    between atoms: O_2  and  C_3
REMARK    3  A    between atoms: N_15  and  C_20
REMARK    4  A    between atoms: C_20  and  C_21
REMARK    5  A    between atoms: C_24  and  C_27
REMARK    6  A    between atoms: N_29  and  C_30
REMARK    7  A    between atoms: C_30  and  C_31
REMARK                            x       y       z     vdW  Elec       q    Type
REMARK                         _______ _______ _______ _____ _____    ______ ____
ROOT
ATOM      1  C   UNL     1       1.043   5.915   0.026  0.00  0.00    +0.121 A 
ATOM      2  C   UNL     1      -0.347   6.011   0.041  0.00  0.00    +0.047 A 
ATOM      3  C   UNL     1      -1.127   4.877   0.041  0.00  0.00    +0.030 A 
ATOM      4  C   UNL     1      -0.530   3.619   0.028  0.00  0.00    +0.049 A 
ATOM      5  C   UNL     1       0.873   3.519   0.013  0.00  0.00    +0.027 A 
ATOM      6  C   UNL     1       1.655   4.679   0.013  0.00  0.00    +0.057 A 
ATOM      7  C   UNL     1       1.189   2.091   0.002  0.00  0.00    +0.079 A 
ATOM      8  C   UNL     1      -0.017   1.415   0.010  0.00  0.00    +0.129 A 
ATOM      9  N   UNL     1      -1.047   2.341   0.030  0.00  0.00    -0.349 N 
ATOM     10  H   UNL     1      -1.992   2.122   0.042  0.00  0.00    +0.166 HD
ATOM     11  C   UNL     1       0.002  -0.004   0.002  0.00  0.00    +0.279 A 
ATOM     12  O   UNL     1      -1.041  -0.633   0.009  0.00  0.00    -0.265 OA
ATOM     13  N   UNL     1       1.185  -0.650  -0.013  0.00  0.00    -0.283 N 
ATOM     14  C   UNL     1       2.346   0.028  -0.021  0.00  0.00    +0.161 A 
ATOM     15  S   UNL     1       3.822  -0.839  -0.040  0.00  0.00    -0.013 S 
ATOM     16  N   UNL     1       2.371   1.374  -0.013  0.00  0.00    -0.333 N 
ATOM     17  H   UNL     1       3.221   1.842  -0.019  0.00  0.00    +0.168 HD
ENDROOT
BRANCH   1  19
ATOM     18  C   UNL     1       1.102   8.293   0.041  0.00  0.00    +0.277 C 
ATOM     19  O   UNL     1       1.799   7.046   0.026  0.00  0.00    -0.495 OA
ENDBRANCH   1  19
BRANCH  13  20
ATOM     20  C   UNL     1       1.206  -2.115  -0.021  0.00  0.00    +0.162 C 
BRANCH  20  21
ATOM     21  C   UNL     1       1.199  -2.610  -1.444  0.00  0.00    -0.028 A 
ATOM     22  C   UNL     1      -0.003  -2.858  -2.082  0.00  0.00    +0.006 A 
ATOM     23  C   UNL     1      -0.017  -3.307  -3.386  0.00  0.00    +0.013 A 
ATOM     24  C   UNL     1       1.187  -3.519  -4.060  0.00  0.00    +0.037 A 
ATOM     25  C   UNL     1       2.397  -3.272  -3.409  0.00  0.00    +0.013 A 
ATOM     26  C   UNL     1       2.396  -2.818  -2.106  0.00  0.00    +0.006 A 
BRANCH  24  27
ATOM     27  C   UNL     1       1.181  -4.006  -5.456  0.00  0.00    +0.244 C 
ATOM     28  O   UNL     1       2.231  -4.191  -6.040  0.00  0.00    -0.270 OA
ATOM     29  N   UNL     1       0.011  -4.244  -6.081  0.00  0.00    -0.307 N 
ATOM     30  H   UNL     1      -0.827  -4.096  -5.615  0.00  0.00    +0.149 HD
BRANCH  29  31
ATOM     31  C   UNL     1       0.005  -4.726  -7.465  0.00  0.00    +0.139 C 
BRANCH  31  32
ATOM     32  C   UNL     1      -1.418  -4.911  -7.926  0.00  0.00    -0.030 A 
ATOM     33  C   UNL     1      -2.048  -6.129  -7.748  0.00  0.00    +0.006 A 
ATOM     34  C   UNL     1      -3.355  -6.298  -8.166  0.00  0.00    +0.020 A 
ATOM     35  C   UNL     1      -4.028  -5.252  -8.771  0.00  0.00    +0.041 A 
ATOM     36  C   UNL     1      -3.395  -4.035  -8.953  0.00  0.00    +0.020 A 
ATOM     37  C   UNL     1      -2.090  -3.866  -8.530  0.00  0.00    +0.006 A 
ATOM     38 CL   UNL     1      -5.668  -5.465  -9.302  0.00  0.00    -0.084 Cl
ENDBRANCH  31  32
ENDBRANCH  29  31
ENDBRANCH  24  27
ENDBRANCH  20  21
ENDBRANCH  13  20
TORSDOF 6
