REMARK  Name = ZINC45824176
REMARK  8 active torsions:
REMARK  status: ('A' for Active; 'I' for Inactive)
REMARK    1  A    between atoms: C_1  and  N_2
REMARK    2  A    between atoms: N_10  and  C_11
REMARK    3  A    between atoms: C_11  and  C_13
REMARK    4  A    between atoms: C_15  and  O_25
REMARK    5  A    between atoms: C_16  and  O_20
REMARK    6  A    between atoms: O_20  and  C_21
REMARK    7  A    between atoms: C_21  and  C_22
REMARK    8  A    between atoms: O_25  and  C_26
REMARK                            x       y       z     vdW  Elec       q    Type
REMARK                         _______ _______ _______ _____ _____    ______ ____
ROOT
ATOM      1  C   UNL     1       2.181  -7.600   3.051  0.00  0.00    +0.044 A 
ATOM      2  C   UNL     1       3.227  -7.932   3.914  0.00  0.00    +0.062 A 
ATOM      3  C   UNL     1       3.453  -9.255   4.245  0.00  0.00    +0.164 A 
ATOM      4  C   UNL     1       2.639 -10.254   3.717  0.00  0.00    +0.181 A 
ATOM      5  C   UNL     1       1.599  -9.924   2.858  0.00  0.00    +0.087 A 
ATOM      6  C   UNL     1       1.365  -8.605   2.529  0.00  0.00    +0.037 A 
ATOM      7 CL   UNL     1       0.587 -11.173   2.202  0.00  0.00    -0.080 Cl
ENDROOT
BRANCH   1   8
ATOM      8  C   UNL     1       1.935  -6.186   2.694  0.00  0.00    +0.270 C 
ATOM      9  O   UNL     1       2.649  -5.309   3.151  0.00  0.00    -0.268 OA
BRANCH   8  19
ATOM     10  C   UNL     1      -0.018   1.465   0.010  0.00  0.00    +0.105 C 
ATOM     11  N   UNL     1       0.002  -0.004   0.002  0.00  0.00    -0.300 NA
ATOM     12  C   UNL     1      -1.363  -0.549   0.022  0.00  0.00    +0.090 C 
ATOM     13  C   UNL     1      -1.343  -2.035  -0.350  0.00  0.00    +0.069 C 
ATOM     14  C   UNL     1      -0.315  -2.733   0.532  0.00  0.00    +0.030 A 
ATOM     15  C   UNL     1       0.617  -2.011   1.176  0.00  0.00    +0.026 A 
ATOM     16  S   UNL     1       1.555  -3.228   2.053  0.00  0.00    -0.056 S 
ATOM     17  C   UNL     1       0.710  -4.595   1.551  0.00  0.00    +0.164 A 
ATOM     18  N   UNL     1      -0.253  -4.084   0.738  0.00  0.00    -0.339 N 
ATOM     19  N   UNL     1       0.932  -5.869   1.872  0.00  0.00    -0.152 NA
ATOM     20  C   UNL     1       0.790  -0.529   1.135  0.00  0.00    +0.128 C 
ATOM     21  H   UNL     1      -0.892  -4.673   0.307  0.00  0.00    +0.167 HD
ENDBRANCH   8  19
ENDBRANCH   1   8
BRANCH   3  22
ATOM     22  O   UNL     1       4.471  -9.581   5.086  0.00  0.00    -0.491 OA
ATOM     23  C   UNL     1       5.266  -8.505   5.590  0.00  0.00    +0.277 C 
ENDBRANCH   3  22
BRANCH   4  24
ATOM     24  O   UNL     1       2.863 -11.554   4.042  0.00  0.00    -0.478 OA
BRANCH  24  25
ATOM     25  C   UNL     1       2.184 -12.061   5.193  0.00  0.00    +0.324 C 
BRANCH  25  26
ATOM     26  C   UNL     1       2.552 -13.508   5.397  0.00  0.00    +0.248 C 
ATOM     27  O   UNL     1       3.320 -14.052   4.632  0.00  0.00    -0.272 OA
ATOM     28  N   UNL     1       2.028 -14.198   6.429  0.00  0.00    -0.327 N 
ATOM     29  H   UNL     1       1.414 -13.763   7.041  0.00  0.00    +0.145 HD
ATOM     30  H   UNL     1       2.265 -15.129   6.560  0.00  0.00    +0.145 HD
ENDBRANCH  25  26
ENDBRANCH  24  25
ENDBRANCH   4  24
TORSDOF 6
