REMARK  Name = ZINC21253310
REMARK  13 active torsions:
REMARK  status: ('A' for Active; 'I' for Inactive)
REMARK    1  A    between atoms: C_1  and  C_2
REMARK    2  A    between atoms: C_2  and  C_3
REMARK    3  A    between atoms: C_2  and  C_4
REMARK    4  A    between atoms: C_4  and  O_5
REMARK    5  A    between atoms: O_5  and  C_6
REMARK    6  A    between atoms: C_9  and  C_12
REMARK    7  A    between atoms: C_17  and  C_22
REMARK    8  A    between atoms: C_24  and  O_32
REMARK    9  A    between atoms: C_25  and  O_30
REMARK   10  A    between atoms: C_26  and  O_28
REMARK   11  A    between atoms: O_28  and  C_29
REMARK   12  A    between atoms: O_30  and  C_31
REMARK   13  A    between atoms: O_32  and  C_33
REMARK                            x       y       z     vdW  Elec       q    Type
REMARK                         _______ _______ _______ _____ _____    ______ ____
ROOT
ATOM      1  C   UNL     1      -1.126   7.561   1.859  0.00  0.00    +0.136 C 
ATOM      2  C   UNL     1      -2.269   8.059   1.006  0.00  0.00    +0.036 C 
ATOM      3  C   UNL     1      -2.157   8.803  -0.105  0.00  0.00    +0.017 C 
ATOM      4  C   UNL     1      -3.395   9.202  -0.892  0.00  0.00    +0.059 C 
ATOM      5  C   UNL     1      -4.573   9.402   0.060  0.00  0.00    +0.032 C 
ATOM      6  C   UNL     1      -4.814   8.075   0.790  0.00  0.00    +0.088 C 
ATOM      7  C   UNL     1      -3.545   7.671   1.479  0.00  0.00    +0.163 C 
ATOM      8  O   UNL     1      -3.615   6.986   2.481  0.00  0.00    -0.292 OA
ATOM      9  N   UNL     1      -0.986   9.246  -0.630  0.00  0.00    -0.316 N 
ATOM     10  C   UNL     1       0.146   8.460  -0.816  0.00  0.00    +0.052 A 
ATOM     11  C   UNL     1       0.685   8.228  -2.070  0.00  0.00    +0.025 A 
ATOM     12  C   UNL     1       1.875   7.527  -2.177  0.00  0.00    +0.002 A 
ATOM     13  C   UNL     1       2.517   7.064  -1.044  0.00  0.00    +0.002 A 
ATOM     14  C   UNL     1       1.968   7.277   0.209  0.00  0.00    +0.025 A 
ATOM     15  C   UNL     1       0.769   7.963   0.319  0.00  0.00    +0.049 A 
ATOM     16  N   UNL     1       0.155   8.163   1.554  0.00  0.00    -0.331 N 
ATOM     17  H   UNL     1      -0.885  10.296  -0.942  0.00  0.00    +0.152 HD
ATOM     18  H   UNL     1       0.660   8.790   2.303  0.00  0.00    +0.147 HD
ENDROOT
BRANCH   1  22
ATOM     19  C   UNL     1      -0.793   3.332   1.349  0.00  0.00    +0.121 A 
ATOM     20  C   UNL     1      -0.533   4.183   0.284  0.00  0.00    +0.046 A 
ATOM     21  C   UNL     1      -0.647   5.549   0.450  0.00  0.00    +0.009 A 
ATOM     22  C   UNL     1      -1.009   6.070   1.679  0.00  0.00    -0.023 A 
ATOM     23  C   UNL     1      -1.263   5.224   2.743  0.00  0.00    +0.009 A 
ATOM     24  C   UNL     1      -1.156   3.856   2.580  0.00  0.00    +0.046 A 
BRANCH  19  25
ATOM     25  O   UNL     1      -0.688   1.987   1.186  0.00  0.00    -0.492 OA
BRANCH  25  26
ATOM     26  C   UNL     1      -0.310   1.517  -0.110  0.00  0.00    +0.232 C 
BRANCH  26  28
ATOM     27  C   UNL     1       0.039  -0.519  -1.514  0.00  0.00    +0.010 C 
ATOM     28  C   UNL     1      -0.243  -0.011  -0.099  0.00  0.00    +0.020 C 
ATOM     29  C   UNL     1       0.877  -0.466   0.839  0.00  0.00    +0.010 C 
ENDBRANCH  26  28
ENDBRANCH  25  26
ENDBRANCH  19  25
ENDBRANCH   1  22
BRANCH   5  30
ATOM     30  C   UNL     1      -5.803   9.784  -0.722  0.00  0.00    -0.036 A 
ATOM     31  C   UNL     1      -6.296   8.931  -1.691  0.00  0.00    +0.053 A 
ATOM     32  C   UNL     1      -7.431   9.277  -2.409  0.00  0.00    +0.165 A 
ATOM     33  C   UNL     1      -8.065  10.489  -2.162  0.00  0.00    +0.204 A 
ATOM     34  C   UNL     1      -7.562  11.347  -1.190  0.00  0.00    +0.165 A 
ATOM     35  C   UNL     1      -6.431  10.990  -0.472  0.00  0.00    +0.053 A 
BRANCH  34  36
ATOM     36  O   UNL     1      -8.180  12.533  -0.944  0.00  0.00    -0.491 OA
ATOM     37  C   UNL     1      -7.608  13.364   0.069  0.00  0.00    +0.277 C 
ENDBRANCH  34  36
BRANCH  33  38
ATOM     38  O   UNL     1      -9.176  10.835  -2.868  0.00  0.00    -0.488 OA
ATOM     39  C   UNL     1      -8.973  11.562  -4.081  0.00  0.00    +0.277 C 
ENDBRANCH  33  38
BRANCH  32  40
ATOM     40  O   UNL     1      -7.919   8.435  -3.359  0.00  0.00    -0.491 OA
ATOM     41  C   UNL     1      -7.216   7.207  -3.560  0.00  0.00    +0.277 C 
ENDBRANCH  32  40
ENDBRANCH   5  30
TORSDOF 8
