REMARK  Name = ZINC13987638
REMARK  6 active torsions:
REMARK  status: ('A' for Active; 'I' for Inactive)
REMARK    1  A    between atoms: C_1  and  C_2
REMARK    2  A    between atoms: C_2  and  C_3
REMARK    3  A    between atoms: C_2  and  C_4
REMARK    4  A    between atoms: C_2  and  N_5
REMARK    5  A    between atoms: N_5  and  N_6
REMARK    6  A    between atoms: N_6  and  C_7
REMARK                            x       y       z     vdW  Elec       q    Type
REMARK                         _______ _______ _______ _____ _____    ______ ____
ROOT
ATOM      1  C   UNL     1      -3.564  -2.462   0.005  0.00  0.00    +0.098 C 
ATOM      2  C   UNL     1      -3.699  -1.109  -0.215  0.00  0.00    +0.060 C 
ATOM      3  C   UNL     1      -5.019  -0.514  -0.513  0.00  0.00    +0.000 A 
ATOM      4  C   UNL     1      -6.171  -1.289  -0.584  0.00  0.00    +0.009 A 
ATOM      5  C   UNL     1      -7.380  -0.686  -0.865  0.00  0.00    +0.001 A 
ATOM      6  C   UNL     1      -7.454   0.683  -1.077  0.00  0.00    +0.001 A 
ATOM      7  C   UNL     1      -6.322   1.467  -1.011  0.00  0.00    +0.014 A 
ATOM      8  C   UNL     1      -5.089   0.878  -0.728  0.00  0.00    +0.046 A 
ATOM      9  C   UNL     1      -3.861   1.677  -0.644  0.00  0.00    +0.259 C 
ATOM     10  O   UNL     1      -3.916   2.879  -0.824  0.00  0.00    -0.269 OA
ATOM     11  N   UNL     1      -2.676   1.104  -0.376  0.00  0.00    -0.186 N 
ATOM     12  C   UNL     1      -2.537  -0.214  -0.160  0.00  0.00    +0.260 C 
ATOM     13  O   UNL     1      -1.436  -0.672   0.083  0.00  0.00    -0.269 OA
ATOM     14  C   UNL     1      -1.541   1.915  -0.312  0.00  0.00    +0.135 A 
ATOM     15  C   UNL     1      -0.796   2.146  -1.463  0.00  0.00    +0.046 A 
ATOM     16  C   UNL     1       0.324   2.956  -1.388  0.00  0.00    +0.025 A 
ATOM     17  C   UNL     1       0.664   3.504  -0.158  0.00  0.00    +0.059 A 
ATOM     18  C   UNL     1      -0.119   3.226   0.946  0.00  0.00    +0.133 A 
ATOM     19  N   UNL     1      -1.181   2.450   0.843  0.00  0.00    -0.238 NA
ATOM     20 CL   UNL     1       2.059   4.526  -0.008  0.00  0.00    -0.082 Cl
ENDROOT
BRANCH   1  21
ATOM     21  N   UNL     1      -4.606  -3.176   0.503  0.00  0.00    -0.286 N 
ATOM     22  H   UNL     1      -5.410  -2.720   0.798  0.00  0.00    +0.166 HD
BRANCH  21  23
ATOM     23  N   UNL     1      -4.522  -4.537   0.590  0.00  0.00    -0.238 NA
ATOM     24  H   UNL     1      -3.715  -4.816   1.128  0.00  0.00    +0.145 HD
BRANCH  23  26
ATOM     25  C   UNL     1      -6.939  -4.744   0.258  0.00  0.00    +0.029 C 
ATOM     26  C   UNL     1      -5.753  -5.106   1.154  0.00  0.00    +0.028 C 
ATOM     27  C   UNL     1      -5.621  -6.628   1.235  0.00  0.00    +0.029 C 
ATOM     28  C   UNL     1      -5.982  -4.538   2.556  0.00  0.00    +0.029 C 
ENDBRANCH  23  26
ENDBRANCH  21  23
ENDBRANCH   1  21
TORSDOF 3
