REMARK  Name = ZINC40047798
REMARK  13 active torsions:
REMARK  status: ('A' for Active; 'I' for Inactive)
REMARK    1  A    between atoms: C_1  and  C_2
REMARK    2  A    between atoms: C_2  and  C_3
REMARK    3  A    between atoms: C_2  and  C_4
REMARK    4  A    between atoms: C_4  and  C_5
REMARK    5  A    between atoms: C_5  and  O_6
REMARK    6  A    between atoms: O_6  and  C_7
REMARK    7  A    between atoms: C_11  and  C_13
REMARK    8  A    between atoms: C_15  and  C_25
REMARK    9  A    between atoms: N_19  and  C_20
REMARK   10  A    between atoms: C_20  and  C_21
REMARK   11  A    between atoms: C_21  and  C_22
REMARK   12  A    between atoms: C_22  and  O_23
REMARK   13  A    between atoms: C_25  and  C_27
REMARK                            x       y       z     vdW  Elec       q    Type
REMARK                         _______ _______ _______ _____ _____    ______ ____
ROOT
ATOM      1  C   UNL     1      -7.234  -0.695  -3.500  0.00  0.00    +0.145 C 
ATOM      2  C   UNL     1      -8.466   0.103  -3.141  0.00  0.00    +0.076 C 
ATOM      3  C   UNL     1      -9.278   0.074  -4.224  0.00  0.00    +0.249 C 
ATOM      4  C   UNL     1      -8.633  -0.715  -5.294  0.00  0.00    +0.288 C 
ATOM      5  O   UNL     1      -9.111  -0.923  -6.391  0.00  0.00    -0.266 OA
ATOM      6  N   UNL     1      -7.436  -1.167  -4.874  0.00  0.00    -0.283 N 
ATOM      7  O   UNL     1     -10.488   0.672  -4.312  0.00  0.00    -0.282 OA
ENDROOT
BRANCH   1  12
ATOM      8  C   UNL     1      -3.998   0.852  -2.311  0.00  0.00    +0.121 A 
ATOM      9  C   UNL     1      -3.764   1.795  -3.301  0.00  0.00    +0.045 A 
ATOM     10  C   UNL     1      -4.653   1.928  -4.350  0.00  0.00    +0.004 A 
ATOM     11  C   UNL     1      -5.775   1.122  -4.413  0.00  0.00    +0.006 A 
ATOM     12  C   UNL     1      -6.010   0.181  -3.428  0.00  0.00    -0.019 A 
ATOM     13  C   UNL     1      -5.121   0.041  -2.380  0.00  0.00    +0.051 A 
BRANCH   8  14
ATOM     14  O   UNL     1      -3.124   0.719  -1.278  0.00  0.00    -0.492 OA
BRANCH  14  15
ATOM     15  C   UNL     1      -1.989   1.587  -1.272  0.00  0.00    +0.229 C 
BRANCH  15  16
ATOM     16  C   UNL     1      -1.128   1.292  -0.043  0.00  0.00    +0.044 C 
BRANCH  16  18
ATOM     17  C   UNL     1      -0.379   3.670   0.134  0.00  0.00    +0.007 C 
ATOM     18  C   UNL     1       0.087   2.222  -0.037  0.00  0.00    -0.014 C 
ATOM     19  C   UNL     1       1.012   1.845   1.122  0.00  0.00    +0.007 C 
ENDBRANCH  16  18
ENDBRANCH  15  16
ENDBRANCH  14  15
ENDBRANCH   8  14
ENDBRANCH   1  12
BRANCH   2  20
ATOM     20  C   UNL     1      -8.730   0.777  -1.867  0.00  0.00    +0.195 C 
ATOM     21  O   UNL     1      -8.835   1.989  -1.830  0.00  0.00    -0.287 OA
BRANCH  20  22
ATOM     22  C   UNL     1      -8.870  -0.015  -0.626  0.00  0.00    +0.022 A 
ATOM     23  C   UNL     1      -8.861  -1.410  -0.681  0.00  0.00    +0.013 A 
ATOM     24  C   UNL     1      -8.992  -2.143   0.480  0.00  0.00    +0.016 A 
ATOM     25  C   UNL     1      -9.131  -1.498   1.698  0.00  0.00    +0.018 A 
ATOM     26  C   UNL     1      -9.141  -0.114   1.758  0.00  0.00    +0.016 A 
ATOM     27  C   UNL     1      -9.005   0.630   0.605  0.00  0.00    +0.013 A 
ATOM     28 BR   UNL     1      -9.310  -2.511   3.284  0.00  0.00    -0.050 Br
ENDBRANCH  20  22
ENDBRANCH   2  20
BRANCH   6  29
ATOM     29  C   UNL     1      -6.501  -1.986  -5.651  0.00  0.00    +0.111 C 
BRANCH  29  30
ATOM     30  C   UNL     1      -6.804  -3.467  -5.418  0.00  0.00    +0.047 C 
BRANCH  30  31
ATOM     31  C   UNL     1      -5.828  -4.321  -6.229  0.00  0.00    +0.157 C 
BRANCH  31  32
ATOM     32  O   UNL     1      -6.112  -5.705  -6.011  0.00  0.00    -0.395 OA
ATOM     33  H   UNL     1      -5.530  -6.307  -6.495  0.00  0.00    +0.209 HD
ENDBRANCH  31  32
ENDBRANCH  30  31
ENDBRANCH  29  30
ENDBRANCH   6  29
TORSDOF 11
