REMARK  Name = ZINC28057983
REMARK  4 active torsions:
REMARK  status: ('A' for Active; 'I' for Inactive)
REMARK    1  A    between atoms: C_1  and  O_2
REMARK    2  A    between atoms: O_2  and  C_3
REMARK    3  A    between atoms: C_8  and  C_9
REMARK    4  A    between atoms: C_20  and  C_22
REMARK                            x       y       z     vdW  Elec       q    Type
REMARK                         _______ _______ _______ _____ _____    ______ ____
ROOT
ATOM      1  C   UNL     1       0.994   3.686   0.003  0.00  0.00    +0.177 C 
ATOM      2  C   UNL     1       0.359   4.115   1.303  0.00  0.00    +0.026 C 
ATOM      3  C   UNL     1      -0.871   4.629   1.362  0.00  0.00    +0.050 C 
ATOM      4  C   UNL     1      -1.417   5.003   2.688  0.00  0.00    +0.038 A 
ATOM      5  C   UNL     1      -2.526   5.831   2.809  0.00  0.00    +0.013 A 
ATOM      6  C   UNL     1      -3.002   6.153   4.066  0.00  0.00    +0.001 A 
ATOM      7  C   UNL     1      -2.380   5.654   5.197  0.00  0.00    +0.004 A 
ATOM      8  C   UNL     1      -1.275   4.829   5.086  0.00  0.00    +0.046 A 
ATOM      9  C   UNL     1      -0.788   4.499   3.834  0.00  0.00    +0.131 A 
ATOM     10  O   UNL     1       0.294   3.694   3.682  0.00  0.00    -0.479 OA
ATOM     11  C   UNL     1       1.157   3.966   2.579  0.00  0.00    +0.234 C 
ATOM     12  N   UNL     1      -1.653   4.830   0.218  0.00  0.00    -0.282 N 
ATOM     13  C   UNL     1      -1.020   4.729  -1.010  0.00  0.00    +0.240 A 
ATOM     14  N   UNL     1       0.225   4.199  -1.122  0.00  0.00    -0.201 N 
ATOM     15  N   UNL     1       0.537   4.268  -2.479  0.00  0.00    -0.042 NA
ATOM     16  N   UNL     1      -0.485   4.802  -3.066  0.00  0.00    -0.021 NA
ATOM     17  N   UNL     1      -1.406   5.074  -2.205  0.00  0.00    -0.092 NA
ATOM     18  H   UNL     1      -2.725   5.057   0.318  0.00  0.00    +0.155 HD
ENDROOT
BRANCH  11  19
ATOM     19  C   UNL     1       1.914   5.242   2.844  0.00  0.00    -0.003 A 
ATOM     20  C   UNL     1       3.274   5.301   2.604  0.00  0.00    +0.008 A 
ATOM     21  C   UNL     1       3.968   6.473   2.842  0.00  0.00    +0.015 A 
ATOM     22  C   UNL     1       3.303   7.583   3.330  0.00  0.00    +0.018 A 
ATOM     23  C   UNL     1       1.942   7.522   3.574  0.00  0.00    +0.015 A 
ATOM     24  C   UNL     1       1.249   6.352   3.331  0.00  0.00    +0.008 A 
ATOM     25 BR   UNL     1       4.252   9.184   3.662  0.00  0.00    -0.050 Br
ENDBRANCH  11  19
BRANCH   1  31
ATOM     26  C   UNL     1       2.247   1.522  -0.177  0.00  0.00    +0.126 A 
ATOM     27  C   UNL     1       2.279   0.136  -0.237  0.00  0.00    +0.046 A 
ATOM     28  C   UNL     1       1.101  -0.584  -0.182  0.00  0.00    +0.004 A 
ATOM     29  C   UNL     1      -0.109   0.076  -0.067  0.00  0.00    +0.001 A 
ATOM     30  C   UNL     1      -0.143   1.457  -0.007  0.00  0.00    +0.009 A 
ATOM     31  C   UNL     1       1.032   2.181  -0.061  0.00  0.00    +0.023 A 
BRANCH  26  33
ATOM     32  C   UNL     1       4.618   1.487  -0.349  0.00  0.00    +0.277 C 
ATOM     33  O   UNL     1       3.405   2.232  -0.230  0.00  0.00    -0.495 OA
ENDBRANCH  26  33
ENDBRANCH   1  31
TORSDOF 3
