REMARK  Name = ZINC20347786
REMARK  10 active torsions:
REMARK  status: ('A' for Active; 'I' for Inactive)
REMARK    1  A    between atoms: C_1  and  C_2
REMARK    2  A    between atoms: C_6  and  N_8
REMARK    3  A    between atoms: C_9  and  C_11
REMARK    4  A    between atoms: C_11  and  S_12
REMARK    5  A    between atoms: S_12  and  C_13
REMARK    6  A    between atoms: C_14  and  C_36
REMARK    7  A    between atoms: C_15  and  C_31
REMARK    8  A    between atoms: C_17  and  C_21
REMARK    9  A    between atoms: C_18  and  C_20
REMARK   10  A    between atoms: N_23  and  C_24
REMARK                            x       y       z     vdW  Elec       q    Type
REMARK                         _______ _______ _______ _____ _____    ______ ____
ROOT
ATOM      1  C   UNL     1      -1.847  -4.790   1.332  0.00  0.00    +0.080 C 
ATOM      2  C   UNL     1      -0.524  -4.509   1.471  0.00  0.00    +0.072 C 
ATOM      3  C   UNL     1       0.080  -3.278   0.856  0.00  0.00    +0.134 C 
ATOM      4  C   UNL     1      -0.988  -2.297   0.466  0.00  0.00    +0.047 C 
ATOM      5  C   UNL     1      -2.278  -2.657   0.371  0.00  0.00    +0.015 C 
ATOM      6  N   UNL     1      -2.671  -3.942   0.627  0.00  0.00    -0.312 N 
ATOM      7  C   UNL     1      -3.307  -1.631  -0.027  0.00  0.00    +0.061 C 
ATOM      8  H   UNL     1      -3.648  -4.298   0.267  0.00  0.00    +0.152 HD
ENDROOT
BRANCH   3   9
ATOM      9  C   UNL     1       0.864  -3.670  -0.370  0.00  0.00    +0.118 A 
ATOM     10  C   UNL     1       2.185  -3.489  -0.550  0.00  0.00    +0.045 A 
ATOM     11  C   UNL     1       2.498  -3.999  -1.831  0.00  0.00    +0.041 A 
ATOM     12  C   UNL     1       1.349  -4.462  -2.357  0.00  0.00    +0.195 A 
ATOM     13  O   UNL     1       0.364  -4.265  -1.465  0.00  0.00    -0.467 OA
ENDBRANCH   3   9
BRANCH   4  14
ATOM     14  C   UNL     1      -0.625  -0.955   0.197  0.00  0.00    +0.247 C 
ATOM     15  O   UNL     1      -1.487  -0.128  -0.041  0.00  0.00    -0.270 OA
ATOM     16  N   UNL     1       0.673  -0.593   0.205  0.00  0.00    -0.282 N 
ATOM     17  H   UNL     1       1.455  -1.354   0.345  0.00  0.00    +0.155 HD
BRANCH  16  18
ATOM     18  C   UNL     1       1.026   0.750   0.034  0.00  0.00    +0.034 A 
ATOM     19  C   UNL     1       0.289   1.559  -0.821  0.00  0.00    +0.025 A 
ATOM     20  C   UNL     1       0.636   2.886  -0.983  0.00  0.00    +0.022 A 
ATOM     21  C   UNL     1       1.723   3.406  -0.303  0.00  0.00    +0.041 A 
ATOM     22  C   UNL     1       2.462   2.601   0.546  0.00  0.00    +0.022 A 
ATOM     23  C   UNL     1       2.116   1.275   0.716  0.00  0.00    +0.025 A 
ATOM     24 CL   UNL     1       2.161   5.073  -0.514  0.00  0.00    -0.084 Cl
ENDBRANCH  16  18
ENDBRANCH   4  14
BRANCH   2  25
ATOM     25  C   UNL     1       0.310  -5.403   2.217  0.00  0.00    +0.098 C 
ATOM     26  N   UNL     1       0.971  -6.112   2.810  0.00  0.00    -0.191 NA
ENDBRANCH   2  25
BRANCH   1  27
ATOM     27  S   UNL     1      -2.512  -6.250   2.061  0.00  0.00    -0.100 S 
BRANCH  27  28
ATOM     28  C   UNL     1      -4.244  -6.091   1.560  0.00  0.00    +0.171 C 
BRANCH  28  30
ATOM     29  N   UNL     1      -6.350  -7.358   1.836  0.00  0.00    -0.285 N 
ATOM     30  C   UNL     1      -5.029  -7.264   2.088  0.00  0.00    +0.227 C 
ATOM     31  O   UNL     1      -4.473  -8.123   2.738  0.00  0.00    -0.275 OA
ATOM     32  H   UNL     1      -6.871  -6.540   1.319  0.00  0.00    +0.155 HD
BRANCH  29  38
ATOM     33  C   UNL     1     -10.512  -9.396   3.478  0.00  0.00    +0.044 C 
ATOM     34  C   UNL     1      -9.077  -9.514   3.034  0.00  0.00    -0.049 A 
ATOM     35  C   UNL     1      -8.458 -10.751   3.020  0.00  0.00    +0.003 A 
ATOM     36  C   UNL     1      -7.142 -10.864   2.613  0.00  0.00    +0.002 A 
ATOM     37  C   UNL     1      -6.442  -9.742   2.215  0.00  0.00    +0.023 A 
ATOM     38  C   UNL     1      -7.058  -8.498   2.234  0.00  0.00    +0.034 A 
ATOM     39  C   UNL     1      -8.381  -8.388   2.643  0.00  0.00    +0.026 A 
ENDBRANCH  29  38
ENDBRANCH  28  30
ENDBRANCH  27  28
ENDBRANCH   1  27
TORSDOF 8
