REMARK  Name = ZINC43371054
REMARK  6 active torsions:
REMARK  status: ('A' for Active; 'I' for Inactive)
REMARK    1  A    between atoms: C_1  and  C_2
REMARK    2  A    between atoms: C_2  and  C_4
REMARK    3  A    between atoms: C_2  and  C_14
REMARK    4  A    between atoms: C_4  and  C_5
REMARK    5  A    between atoms: C_5  and  C_7
REMARK    6  A    between atoms: C_5  and  O_13
REMARK                            x       y       z     vdW  Elec       q    Type
REMARK                         _______ _______ _______ _____ _____    ______ ____
ROOT
ATOM      1  C   UNL     1      -2.135  -0.131  -1.286  0.00  0.00    +0.121 C 
ENDROOT
BRANCH   1   2
ATOM      2  C   UNL     1      -3.605  -0.552  -1.222  0.00  0.00    +0.045 C 
ATOM      3  C   UNL     1      -4.349  -0.114  -2.507  0.00  0.00    +0.036 C 
ATOM      4  C   UNL     1      -5.708   0.375  -1.944  0.00  0.00    +0.160 C 
ATOM      5  O   UNL     1      -5.348   1.013  -0.701  0.00  0.00    -0.379 OA
ATOM      6  C   UNL     1      -4.332   0.196  -0.088  0.00  0.00    +0.166 C 
ENDBRANCH   1   2
BRANCH   1   7
ATOM      7  O   UNL     1      -1.502  -0.779  -2.390  0.00  0.00    -0.391 OA
ATOM      8  H   UNL     1      -1.520  -1.745  -2.343  0.00  0.00    +0.210 HD
ENDBRANCH   1   7
BRANCH   1   9
ATOM      9  C   UNL     1      -1.433  -0.534   0.013  0.00  0.00    +0.046 C 
BRANCH   9  11
ATOM     10  C   UNL     1      -0.019   1.526   0.010  0.00  0.00    +0.019 C 
ATOM     11  C   UNL     1       0.002  -0.004   0.002  0.00  0.00    +0.101 C 
BRANCH  11  12
ATOM     12  C   UNL     1       0.731  -0.503   1.223  0.00  0.00    +0.359 C 
ATOM     13  O   UNL     1       1.191   0.291   2.025  0.00  0.00    -0.246 OA
ATOM     14  O   UNL     1       0.860  -1.701   1.408  0.00  0.00    -0.246 OA
ENDBRANCH  11  12
ENDBRANCH   9  11
ENDBRANCH   1   9
TORSDOF 5
