REMARK  Name = ZINC35702084
REMARK  12 active torsions:
REMARK  status: ('A' for Active; 'I' for Inactive)
REMARK    1  A    between atoms: C_1  and  C_2
REMARK    2  A    between atoms: C_3  and  C_30
REMARK    3  A    between atoms: C_4  and  C_20
REMARK    4  A    between atoms: C_7  and  C_12
REMARK    5  A    between atoms: C_13  and  N_15
REMARK    6  A    between atoms: N_15  and  C_16
REMARK    7  A    between atoms: C_16  and  C_17
REMARK    8  A    between atoms: C_17  and  C_18
REMARK    9  A    between atoms: C_17  and  C_19
REMARK   10  A    between atoms: C_23  and  C_26
REMARK   11  A    between atoms: N_32  and  C_33
REMARK   12  A    between atoms: N_32  and  C_34
REMARK                            x       y       z     vdW  Elec       q    Type
REMARK                         _______ _______ _______ _____ _____    ______ ____
ROOT
ATOM      1  C   UNL     1       0.068   1.848   0.309  0.00  0.00    +0.066 C 
ATOM      2  C   UNL     1       0.066   0.341   0.337  0.00  0.00    +0.051 C 
ATOM      3  C   UNL     1      -1.114  -0.346   0.138  0.00  0.00    +0.060 C 
ATOM      4  C   UNL     1      -1.065  -1.857   0.176  0.00  0.00    +0.148 C 
ATOM      5  N   UNL     1       0.260  -2.485   0.426  0.00  0.00    -0.267 N 
ATOM      6  C   UNL     1       0.538  -3.836   0.502  0.00  0.00    +0.048 C 
ATOM      7  C   UNL     1       1.818  -4.199   0.739  0.00  0.00    +0.072 C 
ATOM      8  S   UNL     1       2.634  -2.620   0.856  0.00  0.00    -0.060 S 
ATOM      9  C   UNL     1       1.308  -1.625   0.598  0.00  0.00    +0.166 C 
ATOM     10  N   UNL     1       1.197  -0.314   0.548  0.00  0.00    -0.230 NA
ENDROOT
BRANCH   4  11
ATOM     11  C   UNL     1      -1.579  -2.371  -1.145  0.00  0.00    -0.022 A 
ATOM     12  C   UNL     1      -0.729  -2.457  -2.231  0.00  0.00    +0.006 A 
ATOM     13  C   UNL     1      -1.201  -2.928  -3.442  0.00  0.00    +0.013 A 
ATOM     14  C   UNL     1      -2.522  -3.314  -3.566  0.00  0.00    +0.055 A 
ATOM     15  C   UNL     1      -3.372  -3.229  -2.479  0.00  0.00    +0.013 A 
ATOM     16  C   UNL     1      -2.899  -2.762  -1.267  0.00  0.00    +0.006 A 
BRANCH  14  17
ATOM     17  C   UNL     1      -3.036  -3.827  -4.887  0.00  0.00    +0.417 C 
ATOM     18  F   UNL     1      -2.869  -5.215  -4.945  0.00  0.00    -0.166 F 
ATOM     19  F   UNL     1      -4.394  -3.515  -5.011  0.00  0.00    -0.166 F 
ATOM     20  F   UNL     1      -2.323  -3.227  -5.930  0.00  0.00    -0.166 F 
ENDBRANCH  14  17
ENDBRANCH   4  11
BRANCH   3  21
ATOM     21  C   UNL     1      -2.319   0.335  -0.092  0.00  0.00    +0.246 C 
ATOM     22  O   UNL     1      -2.730   0.480  -1.231  0.00  0.00    -0.270 OA
ATOM     23  N   UNL     1      -3.023   0.828   0.946  0.00  0.00    -0.304 N 
ATOM     24  C   UNL     1      -4.325   1.458   0.715  0.00  0.00    +0.132 C 
ATOM     25  C   UNL     1      -2.485   0.735   2.306  0.00  0.00    +0.132 C 
ENDBRANCH   3  21
BRANCH   6  26
ATOM     26  C   UNL     1      -0.520  -4.842   0.331  0.00  0.00    +0.091 C 
ATOM     27  C   UNL     1      -0.249  -6.145   0.536  0.00  0.00    +0.239 C 
ATOM     28  O   UNL     1       1.023  -6.542   0.788  0.00  0.00    -0.271 OA
BRANCH  27  29
ATOM     29  N   UNL     1      -1.269  -7.080   0.488  0.00  0.00    -0.312 N 
ATOM     30  H   UNL     1      -2.165  -6.808   0.236  0.00  0.00    +0.149 HD
BRANCH  29  31
ATOM     31  C   UNL     1      -0.995  -8.481   0.820  0.00  0.00    +0.107 C 
BRANCH  31  32
ATOM     32  C   UNL     1      -2.250  -9.319   0.569  0.00  0.00    -0.000 C 
ATOM     33  C   UNL     1      -2.577  -9.313  -0.925  0.00  0.00    +0.009 C 
ATOM     34  C   UNL     1      -2.004 -10.757   1.032  0.00  0.00    +0.009 C 
ENDBRANCH  31  32
ENDBRANCH  29  31
ENDBRANCH  27  29
ENDBRANCH   6  26
TORSDOF 7
