REMARK  Name = ZINC65739923
REMARK  11 active torsions:
REMARK  status: ('A' for Active; 'I' for Inactive)
REMARK    1  A    between atoms: C_1  and  C_2
REMARK    2  A    between atoms: C_2  and  C_3
REMARK    3  A    between atoms: C_2  and  C_32
REMARK    4  A    between atoms: C_2  and  O_36
REMARK    5  A    between atoms: C_9  and  O_31
REMARK    6  A    between atoms: N_15  and  C_27
REMARK    7  A    between atoms: C_22  and  O_25
REMARK    8  A    between atoms: C_27  and  C_28
REMARK    9  A    between atoms: C_32  and  C_33
REMARK   10  A    between atoms: C_32  and  C_34
REMARK   11  A    between atoms: C_32  and  C_35
REMARK                            x       y       z     vdW  Elec       q    Type
REMARK                         _______ _______ _______ _____ _____    ______ ____
ROOT
ATOM      1  C   UNL     1       1.018   0.061  -0.361  0.00  0.00    +0.057 C 
ATOM      2  C   UNL     1       1.200  -1.452  -0.074  0.00  0.00    +0.015 C 
ATOM      3  C   UNL     1       2.692  -1.753  -0.026  0.00  0.00    -0.027 C 
ATOM      4  C   UNL     1       3.348  -0.563   0.705  0.00  0.00    +0.009 C 
ATOM      5  C   UNL     1       3.387   0.618  -0.290  0.00  0.00    +0.039 C 
ATOM      6  C   UNL     1       2.211   0.511  -1.279  0.00  0.00    +0.109 C 
ATOM      7  C   UNL     1       2.353  -0.660  -2.198  0.00  0.00    +0.216 C 
ATOM      8  C   UNL     1       3.249  -1.660  -1.446  0.00  0.00    +0.042 C 
ATOM      9  C   UNL     1       4.749  -1.575  -1.445  0.00  0.00    -0.003 C 
ATOM     10  C   UNL     1       5.234  -2.903  -0.820  0.00  0.00    -0.077 C 
ATOM     11  N   UNL     1       4.603  -3.150   0.472  0.00  0.00    +0.382 N 
ATOM     12  C   UNL     1       3.130  -3.115   0.459  0.00  0.00    -0.057 C 
ATOM     13  C   UNL     1       2.579  -4.293  -0.352  0.00  0.00    +0.021 C 
ATOM     14  C   UNL     1       2.565  -4.084  -1.831  0.00  0.00    -0.041 A 
ATOM     15  C   UNL     1       2.848  -2.827  -2.292  0.00  0.00    +0.011 A 
ATOM     16  C   UNL     1       2.709  -2.296  -3.579  0.00  0.00    +0.166 A 
ATOM     17  C   UNL     1       2.413  -3.222  -4.570  0.00  0.00    +0.159 A 
ATOM     18  C   UNL     1       2.233  -4.546  -4.157  0.00  0.00    +0.049 A 
ATOM     19  C   UNL     1       2.286  -4.985  -2.839  0.00  0.00    +0.007 A 
ATOM     20  O   UNL     1       2.825  -0.911  -3.504  0.00  0.00    -0.481 OA
ATOM     21  H   UNL     1       4.931  -2.454   1.126  0.00  0.00    -0.081 HD
ENDROOT
BRANCH   1  23
ATOM     22  C   UNL     1      -0.373   1.747  -1.571  0.00  0.00    +0.042 C 
ATOM     23  C   UNL     1      -0.311   0.299  -1.080  0.00  0.00    +0.074 C 
BRANCH  23  24
ATOM     24  C   UNL     1      -1.468   0.038  -0.113  0.00  0.00    -0.009 C 
ATOM     25  C   UNL     1      -2.785   0.457  -0.769  0.00  0.00    +0.013 C 
ATOM     26  C   UNL     1      -1.520  -1.452   0.230  0.00  0.00    +0.013 C 
ATOM     27  C   UNL     1      -1.255   0.849   1.167  0.00  0.00    +0.013 C 
ENDBRANCH  23  24
BRANCH  23  28
ATOM     28  O   UNL     1      -0.414  -0.588  -2.196  0.00  0.00    -0.388 OA
ATOM     29  H   UNL     1      -0.458  -1.522  -1.953  0.00  0.00    +0.210 HD
ENDBRANCH  23  28
ENDBRANCH   1  23
BRANCH  17  30
ATOM     30  O   UNL     1       2.302  -2.860  -5.876  0.00  0.00    -0.503 OA
ATOM     31  H   UNL     1       3.133  -2.908  -6.369  0.00  0.00    +0.292 HD
ENDBRANCH  17  30
BRANCH   6  32
ATOM     32  O   UNL     1       1.956   1.739  -1.964  0.00  0.00    -0.385 OA
ATOM     33  H   UNL     1       2.681   2.029  -2.534  0.00  0.00    +0.210 HD
ENDBRANCH   6  32
BRANCH  11  34
ATOM     34  C   UNL     1       5.031  -4.470   0.954  0.00  0.00    -0.075 C 
BRANCH  34  35
ATOM     35  C   UNL     1       6.532  -4.440   1.254  0.00  0.00    -0.028 C 
ATOM     36  C   UNL     1       6.967  -4.665   2.703  0.00  0.00    +0.002 C 
ATOM     37  C   UNL     1       7.197  -5.758   1.657  0.00  0.00    +0.002 C 
ENDBRANCH  34  35
ENDBRANCH  11  34
TORSDOF 7
