REMARK  Name = ZINC22409680
REMARK  4 active torsions:
REMARK  status: ('A' for Active; 'I' for Inactive)
REMARK    1  A    between atoms: C_1  and  N_2
REMARK    2  A    between atoms: C_3  and  C_5
REMARK    3  A    between atoms: C_9  and  N_10
REMARK    4  A    between atoms: C_11  and  C_13
REMARK                            x       y       z     vdW  Elec       q    Type
REMARK                         _______ _______ _______ _____ _____    ______ ____
ROOT
ATOM      1  N   UNL     1      -5.086   1.039   0.058  0.00  0.00    -0.275 N 
ATOM      2  C   UNL     1      -4.971  -0.304   0.048  0.00  0.00    +0.256 C 
ATOM      3  O   UNL     1      -5.968  -1.000   0.053  0.00  0.00    -0.270 OA
ATOM      4  H   UNL     1      -4.184   1.668   0.053  0.00  0.00    +0.156 HD
ENDROOT
BRANCH   2   5
ATOM      5  C   UNL     1      -3.639  -0.928   0.031  0.00  0.00    +0.122 A 
ATOM      6  C   UNL     1      -2.489  -0.147   0.025  0.00  0.00    +0.032 A 
ATOM      7  C   UNL     1      -1.236  -0.788   0.009  0.00  0.00    +0.026 A 
ATOM      8  C   UNL     1       0.002  -0.004   0.002  0.00  0.00    -0.007 A 
ATOM      9  C   UNL     1      -0.017   1.393   0.010  0.00  0.00    +0.009 A 
ATOM     10  C   UNL     1       1.160   2.084   0.002  0.00  0.00    +0.001 A 
ATOM     11  C   UNL     1       2.380   1.415  -0.012  0.00  0.00    +0.001 A 
ATOM     12  C   UNL     1       2.432   0.053  -0.020  0.00  0.00    +0.008 A 
ATOM     13  C   UNL     1       1.240  -0.688  -0.013  0.00  0.00    -0.017 A 
ATOM     14  C   UNL     1       1.254  -2.097  -0.021  0.00  0.00    +0.012 A 
ATOM     15  C   UNL     1       0.101  -2.810  -0.015  0.00  0.00    +0.047 A 
ATOM     16  C   UNL     1      -1.153  -2.187   0.000  0.00  0.00    +0.140 A 
ATOM     17  O   UNL     1      -2.272  -2.942   0.006  0.00  0.00    -0.422 OA
ATOM     18  C   UNL     1      -3.495  -2.386   0.021  0.00  0.00    +0.350 A 
ATOM     19  O   UNL     1      -4.485  -3.095   0.025  0.00  0.00    -0.244 OA
ENDBRANCH   2   5
BRANCH   1  24
ATOM     20  C   UNL     1      -6.660   2.974   0.091  0.00  0.00    +0.069 A 
ATOM     21  C   UNL     1      -8.077   3.333   0.103  0.00  0.00    -0.023 A 
ATOM     22  C   UNL     1      -8.930   2.294   0.104  0.00  0.00    -0.004 A 
ATOM     23  S   UNL     1      -7.889   0.855   0.085  0.00  0.00    -0.077 S 
ATOM     24  C   UNL     1      -6.340   1.626   0.074  0.00  0.00    +0.085 A 
ATOM     25  C   UNL     1     -10.367   2.742   0.119  0.00  0.00    +0.043 C 
ATOM     26  C   UNL     1     -10.315   4.226  -0.310  0.00  0.00    +0.010 C 
ATOM     27  C   UNL     1      -8.891   4.628   0.122  0.00  0.00    +0.037 C 
BRANCH  20  30
ATOM     28  C   UNL     1      -4.080   5.489   1.263  0.00  0.00    +0.128 C 
ATOM     29  N   UNL     1      -5.124   4.462   1.261  0.00  0.00    -0.314 N 
ATOM     30  C   UNL     1      -5.615   4.002   0.093  0.00  0.00    +0.246 C 
ATOM     31  O   UNL     1      -5.190   4.441  -0.960  0.00  0.00    -0.270 OA
ATOM     32  H   UNL     1      -5.508   4.065   2.213  0.00  0.00    +0.149 HD
ENDBRANCH  20  30
ENDBRANCH   1  24
TORSDOF 3
