REMARK  Name = ZINC39696554
REMARK  14 active torsions:
REMARK  status: ('A' for Active; 'I' for Inactive)
REMARK    1  A    between atoms: C_1  and  C_2
REMARK    2  A    between atoms: C_2  and  C_3
REMARK    3  A    between atoms: C_2  and  C_4
REMARK    4  A    between atoms: C_4  and  C_6
REMARK    5  A    between atoms: C_4  and  O_29
REMARK    6  A    between atoms: C_10  and  C_19
REMARK    7  A    between atoms: N_21  and  C_22
REMARK    8  A    between atoms: C_22  and  C_23
REMARK    9  A    between atoms: C_23  and  S_24
REMARK   10  A    between atoms: S_24  and  C_25
REMARK   11  A    between atoms: C_25  and  C_26
REMARK   12  A    between atoms: C_25  and  C_27
REMARK   13  A    between atoms: C_25  and  C_28
REMARK   14  A    between atoms: O_29  and  C_30
REMARK                            x       y       z     vdW  Elec       q    Type
REMARK                         _______ _______ _______ _____ _____    ______ ____
ROOT
ATOM      1  C   UNL     1       0.863  -1.915  -1.333  0.00  0.00    +0.257 C 
ATOM      2  O   UNL     1       0.315  -2.534  -2.221  0.00  0.00    -0.272 OA
ATOM      3  N   UNL     1       1.543  -2.574  -0.374  0.00  0.00    -0.297 N 
ATOM      4  C   UNL     1       2.339  -1.996   0.735  0.00  0.00    +0.121 C 
ATOM      5  C   UNL     1       2.034  -2.903   1.948  0.00  0.00    +0.100 C 
ATOM      6  C   UNL     1       1.593  -4.243   1.336  0.00  0.00    -0.004 C 
ATOM      7  C   UNL     1       1.658  -4.040  -0.185  0.00  0.00    +0.115 C 
ATOM      8  C   UNL     1       0.164  -4.572   1.758  0.00  0.00    -0.010 C 
ATOM      9  C   UNL     1      -0.231  -5.935   1.183  0.00  0.00    -0.082 C 
ATOM     10  N   UNL     1       0.695  -6.963   1.675  0.00  0.00    +0.379 N 
ATOM     11  C   UNL     1       2.052  -6.689   1.188  0.00  0.00    -0.082 C 
ATOM     12  C   UNL     1       2.544  -5.357   1.762  0.00  0.00    -0.010 C 
ATOM     13  H   UNL     1       0.694  -6.959   2.684  0.00  0.00    -0.086 HD
ATOM     14  H   UNL     1       0.397  -7.868   1.345  0.00  0.00    -0.086 HD
ENDROOT
BRANCH   5  15
ATOM     15  C   UNL     1       3.272  -3.089   2.788  0.00  0.00    +0.218 C 
ATOM     16  O   UNL     1       4.369  -2.977   2.284  0.00  0.00    -0.275 OA
ATOM     17  N   UNL     1       3.159  -3.380   4.099  0.00  0.00    -0.314 N 
ATOM     18  H   UNL     1       2.281  -3.470   4.502  0.00  0.00    +0.149 HD
BRANCH  17  19
ATOM     19  C   UNL     1       4.362  -3.561   4.915  0.00  0.00    +0.115 C 
BRANCH  19  20
ATOM     20  C   UNL     1       3.957  -3.881   6.356  0.00  0.00    +0.088 C 
BRANCH  20  21
ATOM     21  S   UNL     1       5.447  -4.105   7.367  0.00  0.00    -0.153 S 
BRANCH  21  22
ATOM     22  C   UNL     1       4.802  -4.473   9.022  0.00  0.00    +0.008 C 
ATOM     23  C   UNL     1       3.947  -5.740   8.967  0.00  0.00    +0.022 C 
ATOM     24  C   UNL     1       5.970  -4.687   9.988  0.00  0.00    +0.022 C 
ATOM     25  C   UNL     1       3.947  -3.301   9.508  0.00  0.00    +0.022 C 
ENDBRANCH  21  22
ENDBRANCH  20  21
ENDBRANCH  19  20
ENDBRANCH  17  19
ENDBRANCH   5  15
BRANCH   1  26
ATOM     26  C   UNL     1       0.784  -0.411  -1.303  0.00  0.00    +0.261 C 
BRANCH  26  28
ATOM     27  C   UNL     1      -0.014   1.559   0.010  0.00  0.00    +0.011 C 
ATOM     28  C   UNL     1      -0.043   0.033  -0.095  0.00  0.00    +0.033 C 
ATOM     29  C   UNL     1      -1.489  -0.439  -0.266  0.00  0.00    +0.011 C 
ENDBRANCH  26  28
BRANCH  26  30
ATOM     30  O   UNL     1       0.165   0.058  -2.503  0.00  0.00    -0.479 OA
BRANCH  30  31
ATOM     31  C   UNL     1       0.601   1.246  -2.999  0.00  0.00    +0.122 A 
ATOM     32  C   UNL     1       1.666   1.901  -2.398  0.00  0.00    +0.045 A 
ATOM     33  C   UNL     1       2.107   3.108  -2.904  0.00  0.00    +0.004 A 
ATOM     34  C   UNL     1       1.487   3.664  -4.008  0.00  0.00    +0.000 A 
ATOM     35  C   UNL     1       0.425   3.014  -4.608  0.00  0.00    +0.004 A 
ATOM     36  C   UNL     1      -0.016   1.803  -4.109  0.00  0.00    +0.045 A 
ENDBRANCH  30  31
ENDBRANCH  26  30
ENDBRANCH   1  26
TORSDOF 9
