REMARK  Name = ZINC12997484
REMARK  4 active torsions:
REMARK  status: ('A' for Active; 'I' for Inactive)
REMARK    1  A    between atoms: C_10  and  C_12
REMARK    2  A    between atoms: C_12  and  N_43
REMARK    3  A    between atoms: C_13  and  P_19
REMARK    4  A    between atoms: C_13  and  N_43
REMARK                            x       y       z     vdW  Elec       q    Type
REMARK                         _______ _______ _______ _____ _____    ______ ____
ROOT
ATOM      1  N   UNL     1      -1.444   6.080  -0.327  0.00  0.00    +0.391 N 
ATOM      2  H   UNL     1      -0.572   5.552  -0.449  0.00  0.00    -0.084 HD
ATOM      3  H   UNL     1      -1.546   6.351   0.658  0.00  0.00    -0.084 HD
ENDROOT
BRANCH   1   4
ATOM      4  C   UNL     1      -1.399   7.293  -1.164  0.00  0.00    +0.040 C 
ATOM      5  C   UNL     1      -1.458   6.903  -2.642  0.00  0.00    -0.000 C 
ATOM      6  C   UNL     1      -0.268   6.002  -2.980  0.00  0.00    -0.001 C 
ATOM      7  C   UNL     1       1.035   6.754  -2.703  0.00  0.00    -0.000 C 
ATOM      8  C   UNL     1       1.094   7.145  -1.224  0.00  0.00    -0.001 C 
ATOM      9  C   UNL     1      -0.096   8.045  -0.887  0.00  0.00    -0.000 C 
BRANCH   4  10
ATOM     10  P   UNL     1      -2.817   8.366  -0.762  0.00  0.00    +0.377 P 
ATOM     11  O   UNL     1      -2.582   9.720  -1.311  0.00  0.00    -0.255 OA
ATOM     12  O   UNL     1      -4.157   7.750  -1.408  0.00  0.00    -0.140 OA
ATOM     13  O   UNL     1      -2.984   8.458   0.837  0.00  0.00    -0.140 OA
ENDBRANCH   4  10
ENDBRANCH   1   4
BRANCH   1  14
ATOM     14  C   UNL     1      -2.585   5.230  -0.718  0.00  0.00    -0.073 C 
BRANCH  14  24
ATOM     15  C   UNL     1      -5.682   1.375  -1.232  0.00  0.00    +0.000 A 
ATOM     16  C   UNL     1      -4.803   1.995  -2.100  0.00  0.00    +0.000 A 
ATOM     17  C   UNL     1      -3.842   2.852  -1.607  0.00  0.00    +0.004 A 
ATOM     18  C   UNL     1      -3.748   3.097  -0.242  0.00  0.00    -0.043 A 
ATOM     19  C   UNL     1      -4.630   2.488   0.622  0.00  0.00    -0.044 A 
ATOM     20  C   UNL     1      -5.593   1.619   0.123  0.00  0.00    +0.004 A 
ATOM     21  C   UNL     1      -4.602   2.724   2.109  0.00  0.00    +0.035 C 
ATOM     22  C   UNL     1      -3.263   3.325   2.531  0.00  0.00    +0.005 C 
ATOM     23  C   UNL     1      -2.974   4.539   1.641  0.00  0.00    +0.006 C 
ATOM     24  C   UNL     1      -2.666   4.032   0.230  0.00  0.00    +0.002 C 
ENDBRANCH  14  24
ENDBRANCH   1  14
TORSDOF 4
