REMARK  Name = ZINC11815437
REMARK  10 active torsions:
REMARK  status: ('A' for Active; 'I' for Inactive)
REMARK    1  A    between atoms: C_1  and  C_2
REMARK    2  A    between atoms: C_6  and  C_7
REMARK    3  A    between atoms: C_7  and  N_64
REMARK    4  A    between atoms: C_10  and  C_13
REMARK    5  A    between atoms: C_13  and  C_24
REMARK    6  A    between atoms: N_16  and  C_20
REMARK    7  A    between atoms: C_20  and  C_21
REMARK    8  A    between atoms: C_21  and  C_22
REMARK    9  A    between atoms: C_21  and  C_23
REMARK   10  A    between atoms: C_24  and  C_25
REMARK                            x       y       z     vdW  Elec       q    Type
REMARK                         _______ _______ _______ _____ _____    ______ ____
ROOT
ATOM      1  C   UNL     1      -4.239   0.507   1.151  0.00  0.00    +0.119 C 
ATOM      2  C   UNL     1      -3.095   1.452   0.844  0.00  0.00    +0.247 C 
ATOM      3  O   UNL     1      -3.155   2.504   0.244  0.00  0.00    -0.273 OA
ATOM      4  N   UNL     1      -1.997   0.879   1.375  0.00  0.00    -0.224 N 
ATOM      5  C   UNL     1      -2.287  -0.281   1.974  0.00  0.00    +0.309 C 
ATOM      6  O   UNL     1      -1.461  -0.980   2.529  0.00  0.00    -0.252 OA
ATOM      7  N   UNL     1      -3.594  -0.588   1.895  0.00  0.00    -0.284 N 
ATOM      8  H   UNL     1      -4.027  -1.377   2.257  0.00  0.00    +0.151 HD
ENDROOT
BRANCH   1  11
ATOM      9  C   UNL     1      -4.445  -1.244  -2.272  0.00  0.00    -0.078 C 
ATOM     10  C   UNL     1      -3.795  -0.666  -1.012  0.00  0.00    -0.013 C 
ATOM     11  C   UNL     1      -4.874  -0.019  -0.139  0.00  0.00    +0.018 C 
ATOM     12  C   UNL     1      -5.939  -1.064   0.204  0.00  0.00    -0.013 C 
ATOM     13  C   UNL     1      -6.525  -1.632  -1.091  0.00  0.00    -0.078 C 
ATOM     14  N   UNL     1      -5.441  -2.261  -1.874  0.00  0.00    +0.383 N 
ATOM     15  H   UNL     1      -4.979  -2.970  -1.293  0.00  0.00    -0.081 HD
BRANCH  14  16
ATOM     16  C   UNL     1      -6.001  -2.915  -3.075  0.00  0.00    -0.035 C 
BRANCH  16  22
ATOM     17  C   UNL     1      -5.658  -5.794  -2.058  0.00  0.00    +0.044 C 
ATOM     18  C   UNL     1      -7.004  -5.131  -2.200  0.00  0.00    -0.042 A 
ATOM     19  C   UNL     1      -8.160  -5.811  -1.865  0.00  0.00    +0.011 A 
ATOM     20  C   UNL     1      -9.355  -5.189  -2.011  0.00  0.00    +0.045 A 
ATOM     21  S   UNL     1      -8.864  -3.588  -2.631  0.00  0.00    -0.103 S 
ATOM     22  C   UNL     1      -7.099  -3.857  -2.654  0.00  0.00    -0.024 A 
ENDBRANCH  16  22
ENDBRANCH  14  16
ENDBRANCH   1  11
BRANCH   4  23
ATOM     23  C   UNL     1      -0.653   1.458   1.308  0.00  0.00    +0.121 C 
BRANCH  23  24
ATOM     24  C   UNL     1       0.056   0.960   0.047  0.00  0.00    +0.001 C 
ATOM     25  C   UNL     1       1.500   1.464   0.041  0.00  0.00    +0.009 C 
ATOM     26  C   UNL     1      -0.674   1.488  -1.190  0.00  0.00    +0.009 C 
ENDBRANCH  23  24
ENDBRANCH   4  23
BRANCH   1  27
ATOM     27  C   UNL     1      -5.289   1.203   2.020  0.00  0.00    +0.070 C 
BRANCH  27  28
ATOM     28  C   UNL     1      -4.630   1.756   3.257  0.00  0.00    -0.042 A 
ATOM     29  C   UNL     1      -4.118   3.041   3.251  0.00  0.00    +0.004 A 
ATOM     30  C   UNL     1      -3.513   3.550   4.385  0.00  0.00    +0.003 A 
ATOM     31  C   UNL     1      -3.419   2.775   5.526  0.00  0.00    +0.038 A 
ATOM     32  C   UNL     1      -3.931   1.489   5.532  0.00  0.00    +0.124 A 
ATOM     33  C   UNL     1      -4.542   0.982   4.398  0.00  0.00    +0.042 A 
ATOM     34  F   UNL     1      -3.840   0.731   6.647  0.00  0.00    -0.205 F 
ENDBRANCH  27  28
ENDBRANCH   1  27
TORSDOF 7
