REMARK  Name = ZINC33044148
REMARK  6 active torsions:
REMARK  status: ('A' for Active; 'I' for Inactive)
REMARK    1  A    between atoms: C_4  and  C_7
REMARK    2  A    between atoms: N_10  and  C_12
REMARK    3  A    between atoms: C_12  and  C_13
REMARK    4  A    between atoms: C_16  and  C_19
REMARK    5  A    between atoms: N_21  and  N_22
REMARK    6  A    between atoms: C_25  and  C_34
REMARK                            x       y       z     vdW  Elec       q    Type
REMARK                         _______ _______ _______ _____ _____    ______ ____
ROOT
ATOM      1  C   UNL     1       3.721   7.217  -0.467  0.00  0.00    +0.263 C 
ATOM      2  O   UNL     1       2.691   7.829  -0.670  0.00  0.00    -0.268 OA
ATOM      3  N   UNL     1       3.682   5.889  -0.236  0.00  0.00    -0.203 N 
ATOM      4  H   UNL     1       4.615   5.336  -0.052  0.00  0.00    +0.178 HD
ENDROOT
BRANCH   3   5
ATOM      5  N   UNL     1       2.454   5.215  -0.231  0.00  0.00    -0.184 NA
ATOM      6  C   UNL     1       2.417   3.937  -0.009  0.00  0.00    +0.074 C 
ATOM      7  C   UNL     1       3.679   3.133   0.250  0.00  0.00    +0.107 C 
ATOM      8  C   UNL     1       3.523   1.796  -0.489  0.00  0.00    +0.209 C 
ATOM      9  O   UNL     1       2.361   1.121  -0.008  0.00  0.00    -0.483 OA
ATOM     10  C   UNL     1       1.179   1.784   0.000  0.00  0.00    +0.130 A 
ATOM     11  C   UNL     1       1.142   3.186   0.006  0.00  0.00    +0.040 A 
ATOM     12  C   UNL     1      -0.078   3.857   0.024  0.00  0.00    +0.013 A 
ATOM     13  C   UNL     1      -1.254   3.133   0.031  0.00  0.00    +0.001 A 
ATOM     14  C   UNL     1      -1.219   1.750   0.017  0.00  0.00    +0.004 A 
ATOM     15  C   UNL     1      -0.013   1.076   0.008  0.00  0.00    +0.046 A 
BRANCH   8  16
ATOM     16  C   UNL     1       4.739   0.940  -0.243  0.00  0.00    -0.007 A 
ATOM     17  C   UNL     1       4.815   0.159   0.895  0.00  0.00    +0.007 A 
ATOM     18  C   UNL     1       5.928  -0.630   1.119  0.00  0.00    +0.000 A 
ATOM     19  C   UNL     1       6.970  -0.628   0.211  0.00  0.00    +0.000 A 
ATOM     20  C   UNL     1       6.897   0.157  -0.924  0.00  0.00    +0.000 A 
ATOM     21  C   UNL     1       5.781   0.941  -1.151  0.00  0.00    +0.007 A 
ENDBRANCH   8  16
ENDBRANCH   3   5
BRANCH   1  25
ATOM     22  C   UNL     1       7.444   9.261  -0.482  0.00  0.00    -0.024 A 
ATOM     23  C   UNL     1       6.273   9.961  -0.715  0.00  0.00    +0.006 A 
ATOM     24  C   UNL     1       5.061   9.303  -0.711  0.00  0.00    +0.013 A 
ATOM     25  C   UNL     1       5.017   7.928  -0.473  0.00  0.00    +0.038 A 
ATOM     26  C   UNL     1       6.201   7.229  -0.234  0.00  0.00    +0.013 A 
ATOM     27  C   UNL     1       7.408   7.899  -0.244  0.00  0.00    +0.006 A 
BRANCH  22  28
ATOM     28  C   UNL     1       8.765   9.987  -0.487  0.00  0.00    +0.203 C 
BRANCH  28  32
ATOM     29  C   UNL     1       9.788  10.547   2.844  0.00  0.00    +0.205 A 
ATOM     30  N   UNL     1       9.150  11.692   2.562  0.00  0.00    -0.108 NA
ATOM     31  N   UNL     1       8.728  11.606   1.346  0.00  0.00    -0.045 NA
ATOM     32  N   UNL     1       9.066  10.461   0.866  0.00  0.00    -0.158 N 
ATOM     33  N   UNL     1       9.717   9.799   1.760  0.00  0.00    -0.130 NA
BRANCH  29  37
ATOM     34  C   UNL     1      11.673   9.526   6.516  0.00  0.00    +0.000 A 
ATOM     35  C   UNL     1      11.052  10.754   6.379  0.00  0.00    +0.001 A 
ATOM     36  C   UNL     1      10.439  11.090   5.189  0.00  0.00    +0.012 A 
ATOM     37  C   UNL     1      10.446  10.190   4.126  0.00  0.00    +0.023 A 
ATOM     38  C   UNL     1      11.067   8.952   4.272  0.00  0.00    +0.012 A 
ATOM     39  C   UNL     1      11.683   8.628   5.464  0.00  0.00    +0.001 A 
ENDBRANCH  29  37
ENDBRANCH  28  32
ENDBRANCH  22  28
ENDBRANCH   1  25
TORSDOF 6
