REMARK  Name = ZINC39665780
REMARK  14 active torsions:
REMARK  status: ('A' for Active; 'I' for Inactive)
REMARK    1  A    between atoms: C_1  and  C_2
REMARK    2  A    between atoms: C_4  and  C_11
REMARK    3  A    between atoms: N_5  and  C_7
REMARK    4  A    between atoms: C_7  and  C_8
REMARK    5  A    between atoms: C_7  and  C_9
REMARK    6  A    between atoms: C_7  and  C_10
REMARK    7  A    between atoms: C_15  and  C_24
REMARK    8  A    between atoms: N_26  and  C_27
REMARK    9  A    between atoms: C_27  and  C_28
REMARK   10  A    between atoms: C_28  and  C_30
REMARK   11  A    between atoms: C_28  and  O_31
REMARK   12  A    between atoms: O_31  and  C_32
REMARK   13  A    between atoms: C_35  and  O_38
REMARK   14  A    between atoms: O_38  and  C_39
REMARK                            x       y       z     vdW  Elec       q    Type
REMARK                         _______ _______ _______ _____ _____    ______ ____
ROOT
ATOM      1  C   UNL     1      -0.606  -3.709  -1.405  0.00  0.00    +0.265 C 
ATOM      2  O   UNL     1      -0.869  -3.625  -2.589  0.00  0.00    -0.268 OA
ATOM      3  N   UNL     1      -0.700  -4.897  -0.776  0.00  0.00    -0.295 N 
ATOM      4  C   UNL     1      -0.552  -5.172   0.673  0.00  0.00    +0.121 C 
ATOM      5  C   UNL     1      -1.634  -6.231   0.981  0.00  0.00    +0.100 C 
ATOM      6  C   UNL     1      -1.906  -6.919  -0.367  0.00  0.00    -0.004 C 
ATOM      7  C   UNL     1      -0.981  -6.223  -1.376  0.00  0.00    +0.115 C 
ATOM      8  C   UNL     1      -1.571  -8.405  -0.279  0.00  0.00    -0.010 C 
ATOM      9  C   UNL     1      -1.903  -9.079  -1.613  0.00  0.00    -0.082 C 
ATOM     10  N   UNL     1      -3.328  -8.895  -1.915  0.00  0.00    +0.379 N 
ATOM     11  C   UNL     1      -3.623  -7.468  -2.089  0.00  0.00    -0.082 C 
ATOM     12  C   UNL     1      -3.363  -6.726  -0.775  0.00  0.00    -0.010 C 
ATOM     13  H   UNL     1      -3.558  -9.391  -2.763  0.00  0.00    -0.086 HD
ATOM     14  H   UNL     1      -3.881  -9.261  -1.154  0.00  0.00    -0.086 HD
ENDROOT
BRANCH   1  18
ATOM     15  C   UNL     1       1.094  -0.547   2.178  0.00  0.00    +0.067 C 
ATOM     16  C   UNL     1       0.555  -1.121   0.893  0.00  0.00    +0.061 A 
ATOM     17  C   UNL     1       0.294  -2.469   0.640  0.00  0.00    +0.057 A 
ATOM     18  C   UNL     1      -0.184  -2.513  -0.658  0.00  0.00    +0.124 A 
ATOM     19  N   UNL     1      -0.186  -1.223  -1.108  0.00  0.00    -0.254 N 
ATOM     20  N   UNL     1       0.244  -0.443  -0.182  0.00  0.00    -0.175 NA
BRANCH  19  21
ATOM     21  C   UNL     1      -0.617  -0.794  -2.441  0.00  0.00    +0.056 C 
ATOM     22  C   UNL     1      -2.042  -1.288  -2.699  0.00  0.00    +0.036 C 
ATOM     23  C   UNL     1      -0.585   0.734  -2.520  0.00  0.00    +0.036 C 
ATOM     24  C   UNL     1       0.325  -1.380  -3.494  0.00  0.00    +0.036 C 
ENDBRANCH  19  21
ENDBRANCH   1  18
BRANCH   5  25
ATOM     25  C   UNL     1      -1.121  -7.228   1.988  0.00  0.00    +0.218 C 
ATOM     26  O   UNL     1       0.070  -7.435   2.083  0.00  0.00    -0.275 OA
ATOM     27  N   UNL     1      -1.986  -7.890   2.782  0.00  0.00    -0.312 N 
ATOM     28  H   UNL     1      -2.941  -7.779   2.658  0.00  0.00    +0.149 HD
BRANCH  27  29
ATOM     29  C   UNL     1      -1.482  -8.777   3.834  0.00  0.00    +0.148 C 
BRANCH  29  30
ATOM     30  C   UNL     1      -2.662  -9.400   4.584  0.00  0.00    +0.187 C 
ATOM     31  C   UNL     1      -2.136 -10.326   5.682  0.00  0.00    +0.053 C 
BRANCH  30  32
ATOM     32  O   UNL     1      -3.452  -8.365   5.172  0.00  0.00    -0.488 OA
BRANCH  32  33
ATOM     33  C   UNL     1      -4.760  -8.648   5.413  0.00  0.00    +0.121 A 
ATOM     34  C   UNL     1      -5.612  -7.654   5.872  0.00  0.00    +0.049 A 
ATOM     35  C   UNL     1      -6.940  -7.942   6.117  0.00  0.00    +0.049 A 
ATOM     36  C   UNL     1      -7.423  -9.225   5.903  0.00  0.00    +0.120 A 
ATOM     37  C   UNL     1      -6.571 -10.219   5.443  0.00  0.00    +0.049 A 
ATOM     38  C   UNL     1      -5.244  -9.930   5.194  0.00  0.00    +0.049 A 
BRANCH  36  39
ATOM     39  O   UNL     1      -8.730  -9.509   6.145  0.00  0.00    -0.495 OA
ATOM     40  C   UNL     1      -9.159 -10.851   5.903  0.00  0.00    +0.277 C 
ENDBRANCH  36  39
ENDBRANCH  32  33
ENDBRANCH  30  32
ENDBRANCH  29  30
ENDBRANCH  27  29
ENDBRANCH   5  25
TORSDOF 8
