REMARK  Name = ZINC12950277
REMARK  11 active torsions:
REMARK  status: ('A' for Active; 'I' for Inactive)
REMARK    1  A    between atoms: C_1  and  C_2
REMARK    2  A    between atoms: C_2  and  C_3
REMARK    3  A    between atoms: C_2  and  C_4
REMARK    4  A    between atoms: C_2  and  C_5
REMARK    5  A    between atoms: C_7  and  C_16
REMARK    6  A    between atoms: C_8  and  O_15
REMARK    7  A    between atoms: C_9  and  C_11
REMARK    8  A    between atoms: C_11  and  C_12
REMARK    9  A    between atoms: C_11  and  C_13
REMARK   10  A    between atoms: C_11  and  C_14
REMARK   11  A    between atoms: C_21  and  C_24
REMARK                            x       y       z     vdW  Elec       q    Type
REMARK                         _______ _______ _______ _____ _____    ______ ____
ROOT
ATOM      1  C   UNL     1       1.188   2.107  -0.196  0.00  0.00    -0.041 A 
ATOM      2  C   UNL     1       2.391   1.435  -0.219  0.00  0.00    +0.021 A 
ATOM      3  C   UNL     1       2.421   0.054  -0.013  0.00  0.00    +0.079 A 
ATOM      4  C   UNL     1       1.224  -0.638   0.218  0.00  0.00    +0.133 A 
ATOM      5  C   UNL     1       0.023   0.054   0.238  0.00  0.00    +0.000 A 
ATOM      6  C   UNL     1       0.007   1.419   0.032  0.00  0.00    +0.012 A 
ENDROOT
BRANCH   3   7
ATOM      7  C   UNL     1       3.705  -0.672  -0.036  0.00  0.00    +0.250 C 
ATOM      8  O   UNL     1       4.025  -1.372   0.905  0.00  0.00    -0.270 OA
ATOM      9  N   UNL     1       4.524  -0.559  -1.101  0.00  0.00    -0.297 N 
ATOM     10  C   UNL     1       4.191   0.348  -2.208  0.00  0.00    +0.109 C 
ATOM     11  C   UNL     1       4.225  -0.433  -3.520  0.00  0.00    +0.032 C 
ATOM     12  C   UNL     1       5.581  -1.128  -3.662  0.00  0.00    +0.078 C 
ATOM     13  C   UNL     1       5.776  -2.112  -2.506  0.00  0.00    +0.032 C 
ATOM     14  C   UNL     1       5.763  -1.345  -1.180  0.00  0.00    +0.109 C 
BRANCH  12  15
ATOM     15  C   UNL     1       5.628  -1.875  -4.970  0.00  0.00    +0.214 C 
ATOM     16  O   UNL     1       5.800  -3.076  -4.977  0.00  0.00    -0.276 OA
ATOM     17  N   UNL     1       5.478  -1.209  -6.132  0.00  0.00    -0.329 N 
ATOM     18  H   UNL     1       5.341  -0.249  -6.126  0.00  0.00    +0.145 HD
ATOM     19  H   UNL     1       5.508  -1.690  -6.974  0.00  0.00    +0.145 HD
ENDBRANCH  12  15
ENDBRANCH   3   7
BRANCH   1  21
ATOM     20  C   UNL     1       0.557   4.285   0.809  0.00  0.00    +0.015 C 
ATOM     21  C   UNL     1       1.157   3.597  -0.419  0.00  0.00    -0.013 C 
ATOM     22  C   UNL     1       2.581   4.109  -0.645  0.00  0.00    +0.015 C 
ATOM     23  C   UNL     1       0.301   3.911  -1.648  0.00  0.00    +0.015 C 
ENDBRANCH   1  21
BRANCH   5  24
ATOM     24  C   UNL     1      -1.267  -0.685   0.485  0.00  0.00    -0.009 C 
ATOM     25  C   UNL     1      -2.434   0.304   0.456  0.00  0.00    +0.015 C 
ATOM     26  C   UNL     1      -1.467  -1.740  -0.605  0.00  0.00    +0.015 C 
ATOM     27  C   UNL     1      -1.211  -1.367   1.853  0.00  0.00    +0.015 C 
ENDBRANCH   5  24
BRANCH   4  28
ATOM     28  O   UNL     1       1.241  -1.980   0.420  0.00  0.00    -0.506 OA
ATOM     29  H   UNL     1       1.155  -2.501  -0.390  0.00  0.00    +0.292 HD
ENDBRANCH   4  28
TORSDOF 5
