REMARK  Name = ZINC02238229
REMARK  7 active torsions:
REMARK  status: ('A' for Active; 'I' for Inactive)
REMARK    1  A    between atoms: C_1  and  C_2
REMARK    2  A    between atoms: C_5  and  C_8
REMARK    3  A    between atoms: C_8  and  N_9
REMARK    4  A    between atoms: C_10  and  C_31
REMARK    5  A    between atoms: C_16  and  C_24
REMARK    6  A    between atoms: C_18  and  C_22
REMARK    7  A    between atoms: C_19  and  N_21
REMARK                            x       y       z     vdW  Elec       q    Type
REMARK                         _______ _______ _______ _____ _____    ______ ____
ROOT
ATOM      1  N   UNL     1      -3.501   1.624  -3.480  0.00  0.00    -0.308 N 
ATOM      2  C   UNL     1      -4.483   2.499  -3.136  0.00  0.00    +0.023 A 
ATOM      3  C   UNL     1      -4.680   2.849  -1.847  0.00  0.00    +0.068 A 
ATOM      4  C   UNL     1      -3.858   2.303  -0.840  0.00  0.00    +0.141 A 
ATOM      5  C   UNL     1      -2.863   1.417  -1.197  0.00  0.00    +0.072 A 
ATOM      6  C   UNL     1      -2.697   1.083  -2.547  0.00  0.00    +0.259 A 
ATOM      7  O   UNL     1      -1.820   0.299  -2.877  0.00  0.00    -0.267 OA
ATOM      8  C   UNL     1      -1.963   0.811  -0.155  0.00  0.00    +0.105 C 
ATOM      9  C   UNL     1      -2.563   0.986   1.212  0.00  0.00    +0.098 C 
ATOM     10  C   UNL     1      -3.557   1.879   1.434  0.00  0.00    +0.199 C 
ATOM     11  O   UNL     1      -4.053   2.649   0.450  0.00  0.00    -0.441 OA
ATOM     12  C   UNL     1      -5.364   3.086  -4.208  0.00  0.00    +0.064 C 
ENDROOT
BRANCH   8  13
ATOM     13  C   UNL     1      -0.618   1.490  -0.201  0.00  0.00    -0.016 A 
ATOM     14  C   UNL     1      -0.520   2.847   0.043  0.00  0.00    +0.006 A 
ATOM     15  C   UNL     1       0.712   3.470  -0.004  0.00  0.00    +0.000 A 
ATOM     16  C   UNL     1       1.849   2.736  -0.289  0.00  0.00    +0.001 A 
ATOM     17  C   UNL     1       1.753   1.379  -0.528  0.00  0.00    +0.020 A 
ATOM     18  C   UNL     1       0.519   0.754  -0.481  0.00  0.00    +0.045 A 
ATOM     19 CL   UNL     1       0.397  -0.952  -0.780  0.00  0.00    -0.083 Cl
ENDBRANCH   8  13
BRANCH  10  20
ATOM     20  N   UNL     1      -4.072   2.001   2.701  0.00  0.00    -0.328 N 
ATOM     21  H   UNL     1      -3.724   1.452   3.421  0.00  0.00    +0.145 HD
ATOM     22  H   UNL     1      -4.784   2.637   2.875  0.00  0.00    +0.145 HD
ENDBRANCH  10  20
BRANCH   9  23
ATOM     23  C   UNL     1      -2.076   0.193   2.300  0.00  0.00    +0.101 C 
ATOM     24  N   UNL     1      -1.689  -0.437   3.163  0.00  0.00    -0.191 NA
ENDBRANCH   9  23
BRANCH   1  25
ATOM     25  C   UNL     1      -3.315   1.266  -4.888  0.00  0.00    +0.160 C 
BRANCH  25  30
ATOM     26  C   UNL     1       0.744   4.654  -7.220  0.00  0.00    +0.044 C 
ATOM     27  C   UNL     1      -0.315   3.771  -6.612  0.00  0.00    -0.050 A 
ATOM     28  C   UNL     1       0.050   2.636  -5.912  0.00  0.00    +0.004 A 
ATOM     29  C   UNL     1      -0.921   1.825  -5.355  0.00  0.00    +0.005 A 
ATOM     30  C   UNL     1      -2.257   2.150  -5.496  0.00  0.00    -0.028 A 
ATOM     31  C   UNL     1      -2.622   3.282  -6.199  0.00  0.00    +0.005 A 
ATOM     32  C   UNL     1      -1.651   4.095  -6.753  0.00  0.00    +0.004 A 
ENDBRANCH  25  30
ENDBRANCH   1  25
TORSDOF 5
