REMARK  Name = ZINC63993682
REMARK  10 active torsions:
REMARK  status: ('A' for Active; 'I' for Inactive)
REMARK    1  A    between atoms: C_1  and  O_2
REMARK    2  A    between atoms: O_2  and  C_3
REMARK    3  A    between atoms: C_3  and  C_5
REMARK    4  A    between atoms: C_7  and  N_34
REMARK    5  A    between atoms: C_11  and  N_27
REMARK    6  A    between atoms: N_15  and  C_16
REMARK    7  A    between atoms: C_16  and  C_17
REMARK    8  A    between atoms: C_17  and  C_18
REMARK    9  A    between atoms: N_27  and  C_28
REMARK   10  A    between atoms: C_35  and  C_37
REMARK                            x       y       z     vdW  Elec       q    Type
REMARK                         _______ _______ _______ _____ _____    ______ ____
ROOT
ATOM      1  C   UNL     1      -1.244  -2.135   0.003  0.00  0.00    +0.208 C 
ATOM      2  C   UNL     1      -1.035  -2.685   1.423  0.00  0.00    +0.138 C 
ATOM      3  C   UNL     1      -2.312  -3.432   1.730  0.00  0.00    +0.015 A 
ATOM      4  C   UNL     1      -2.710  -4.134   2.852  0.00  0.00    +0.033 A 
ATOM      5  C   UNL     1      -3.969  -4.731   2.849  0.00  0.00    +0.044 A 
ATOM      6  C   UNL     1      -4.769  -4.598   1.724  0.00  0.00    +0.107 A 
ATOM      7  N   UNL     1      -4.354  -3.921   0.674  0.00  0.00    -0.348 N 
ATOM      8  C   UNL     1      -3.158  -3.334   0.635  0.00  0.00    +0.105 A 
ATOM      9  N   UNL     1      -2.579  -2.590  -0.394  0.00  0.00    -0.301 N 
ATOM     10  H   UNL     1      -4.938  -3.847  -0.097  0.00  0.00    +0.167 HD
ENDROOT
BRANCH   2  11
ATOM     11  N   UNL     1       0.114  -3.594   1.457  0.00  0.00    -0.306 N 
ATOM     12  C   UNL     1       0.784  -3.791   2.609  0.00  0.00    +0.219 C 
ATOM     13  O   UNL     1       0.437  -3.215   3.619  0.00  0.00    -0.275 OA
ATOM     14  H   UNL     1       0.391  -4.054   0.649  0.00  0.00    +0.149 HD
BRANCH  12  15
ATOM     15  C   UNL     1       1.965  -4.726   2.643  0.00  0.00    +0.103 C 
ATOM     16  C   UNL     1       2.595  -4.752   4.058  0.00  0.00    +0.043 C 
ATOM     17  C   UNL     1       4.111  -4.773   3.737  0.00  0.00    +0.160 C 
ATOM     18  O   UNL     1       4.223  -3.916   2.581  0.00  0.00    -0.379 OA
ATOM     19  C   UNL     1       3.094  -4.203   1.734  0.00  0.00    +0.172 C 
ENDBRANCH  12  15
ENDBRANCH   2  11
BRANCH   1  20
ATOM     20  C   UNL     1      -1.185  -0.630   0.010  0.00  0.00    +0.330 C 
ATOM     21  O   UNL     1      -2.208   0.015   0.023  0.00  0.00    -0.249 OA
BRANCH  20  23
ATOM     22  C   UNL     1      -0.017   1.425   0.010  0.00  0.00    +0.280 C 
ATOM     23  O   UNL     1       0.002  -0.004   0.002  0.00  0.00    -0.467 OA
ENDBRANCH  20  23
ENDBRANCH   1  20
BRANCH   5  24
ATOM     24  N   UNL     1      -4.418  -5.454   3.962  0.00  0.00    -0.340 N 
ATOM     25  H   UNL     1      -3.852  -5.542   4.744  0.00  0.00    +0.146 HD
BRANCH  24  26
ATOM     26  C   UNL     1      -5.744  -6.076   3.944  0.00  0.00    +0.075 C 
ATOM     27  C   UNL     1      -6.797  -5.053   4.381  0.00  0.00    +0.050 C 
ATOM     28  C   UNL     1      -8.167  -5.733   4.436  0.00  0.00    +0.161 C 
ATOM     29  O   UNL     1      -8.111  -6.845   5.332  0.00  0.00    -0.380 OA
ATOM     30  C   UNL     1      -7.177  -7.857   4.948  0.00  0.00    +0.161 C 
ATOM     31  C   UNL     1      -5.767  -7.262   4.914  0.00  0.00    +0.050 C 
ENDBRANCH  24  26
ENDBRANCH   5  24
BRANCH   9  32
ATOM     32  C   UNL     1      -3.213  -2.304  -1.684  0.00  0.00    +0.112 C 
BRANCH  32  33
ATOM     33  C   UNL     1      -2.860  -3.409  -2.682  0.00  0.00    +0.052 C 
BRANCH  33  34
ATOM     34  C   UNL     1      -3.513  -3.114  -4.008  0.00  0.00    -0.040 C 
ATOM     35  C   UNL     1      -2.954  -2.485  -5.067  0.00  0.00    -0.001 A 
ATOM     36  C   UNL     1      -1.624  -1.907  -5.292  0.00  0.00    +0.010 A 
ATOM     37  C   UNL     1      -1.353  -1.328  -6.484  0.00  0.00    +0.001 A 
ATOM     38  C   UNL     1      -2.309  -1.266  -7.507  0.00  0.00    +0.002 A 
ATOM     39  C   UNL     1      -3.552  -1.775  -7.375  0.00  0.00    +0.026 A 
ATOM     40  C   UNL     1      -3.945  -2.407  -6.164  0.00  0.00    +0.043 A 
ATOM     41  N   UNL     1      -5.073  -2.967  -5.797  0.00  0.00    -0.380 N 
ATOM     42  C   UNL     1      -4.922  -3.469  -4.427  0.00  0.00    +0.144 C 
ATOM     43  H   UNL     1      -5.872  -3.041  -6.342  0.00  0.00    +0.160 HD
ENDBRANCH  33  34
ENDBRANCH  32  33
ENDBRANCH   9  32
TORSDOF 9
