REMARK  Name = ZINC08962104
REMARK  5 active torsions:
REMARK  status: ('A' for Active; 'I' for Inactive)
REMARK    1  A    between atoms: C_1  and  C_2
REMARK    2  A    between atoms: C_2  and  C_3
REMARK    3  A    between atoms: C_10  and  N_16
REMARK    4  A    between atoms: N_16  and  S_17
REMARK    5  A    between atoms: S_17  and  C_20
REMARK                            x       y       z     vdW  Elec       q    Type
REMARK                         _______ _______ _______ _____ _____    ______ ____
ROOT
ATOM      1  C   UNL     1       3.753   3.151  -6.973  0.00  0.00    +0.110 C 
ATOM      2  C   UNL     1       3.660   4.482  -6.239  0.00  0.00    +0.251 C 
ATOM      3  O   UNL     1       4.335   4.438  -4.988  0.00  0.00    -0.489 OA
ATOM      4  C   UNL     1       4.133   3.342  -4.212  0.00  0.00    +0.133 A 
ATOM      5  C   UNL     1       3.340   3.409  -3.079  0.00  0.00    +0.048 A 
ATOM      6  C   UNL     1       3.135   2.279  -2.312  0.00  0.00    +0.028 A 
ATOM      7  C   UNL     1       3.732   1.072  -2.661  0.00  0.00    +0.049 A 
ATOM      8  C   UNL     1       4.530   0.991  -3.791  0.00  0.00    +0.041 A 
ATOM      9  C   UNL     1       4.736   2.127  -4.571  0.00  0.00    +0.080 A 
ATOM     10  C   UNL     1       5.585   2.079  -5.777  0.00  0.00    +0.248 C 
ATOM     11  O   UNL     1       6.683   1.558  -5.740  0.00  0.00    -0.270 OA
ATOM     12  N   UNL     1       5.119   2.626  -6.925  0.00  0.00    -0.305 N 
ATOM     13  H   UNL     1       5.686   2.670  -7.711  0.00  0.00    +0.149 HD
ENDROOT
BRANCH   1  15
ATOM     14  C   UNL     1       2.945   0.787  -7.006  0.00  0.00    +0.006 C 
ATOM     15  C   UNL     1       2.805   2.146  -6.316  0.00  0.00    +0.022 C 
ENDBRANCH   1  15
BRANCH   7  16
ATOM     16  N   UNL     1       3.521  -0.065  -1.873  0.00  0.00    -0.216 N 
ATOM     17  H   UNL     1       2.672  -0.532  -1.913  0.00  0.00    +0.174 HD
BRANCH  16  18
ATOM     18  S   UNL     1       4.720  -0.612  -0.871  0.00  0.00    +0.072 S 
ATOM     19  O   UNL     1       5.896  -0.713  -1.662  0.00  0.00    -0.150 OA
ATOM     20  O   UNL     1       4.183  -1.719  -0.161  0.00  0.00    -0.150 OA
BRANCH  18  21
ATOM     21  C   UNL     1       5.021   0.651   0.320  0.00  0.00    +0.110 A 
ATOM     22  C   UNL     1       4.242   0.726   1.460  0.00  0.00    +0.032 A 
ATOM     23  C   UNL     1       4.473   1.720   2.392  0.00  0.00    +0.042 A 
ATOM     24  C   UNL     1       5.492   2.634   2.191  0.00  0.00    +0.142 A 
ATOM     25  C   UNL     1       6.273   2.559   1.048  0.00  0.00    +0.078 A 
ATOM     26  C   UNL     1       6.035   1.567   0.114  0.00  0.00    +0.051 A 
ATOM     27 CL   UNL     1       7.547   3.709   0.790  0.00  0.00    -0.081 Cl
ATOM     28  F   UNL     1       5.723   3.602   3.104  0.00  0.00    -0.204 F 
ENDBRANCH  18  21
ENDBRANCH  16  18
ENDBRANCH   7  16
TORSDOF 4
