REMARK  Name = ZINC08141492
REMARK  8 active torsions:
REMARK  status: ('A' for Active; 'I' for Inactive)
REMARK    1  A    between atoms: C_1  and  C_2
REMARK    2  A    between atoms: C_2  and  C_4
REMARK    3  A    between atoms: C_2  and  N_19
REMARK    4  A    between atoms: N_6  and  C_7
REMARK    5  A    between atoms: C_8  and  C_17
REMARK    6  A    between atoms: N_19  and  C_20
REMARK    7  A    between atoms: C_25  and  O_26
REMARK    8  A    between atoms: O_26  and  C_27
REMARK                            x       y       z     vdW  Elec       q    Type
REMARK                         _______ _______ _______ _____ _____    ______ ____
ROOT
ATOM      1  C   UNL     1       1.085  -2.085  -0.620  0.00  0.00    +0.238 C 
ATOM      2  O   UNL     1      -0.015  -2.427  -1.001  0.00  0.00    -0.273 OA
ATOM      3  N   UNL     1       2.131  -2.926  -0.739  0.00  0.00    -0.277 N 
ATOM      4  H   UNL     1       3.010  -2.652  -0.434  0.00  0.00    +0.155 HD
ENDROOT
BRANCH   3   5
ATOM      5  C   UNL     1       1.950  -4.184  -1.297  0.00  0.00    +0.090 A 
ATOM      6  C   UNL     1       2.893  -5.178  -1.501  0.00  0.00    +0.084 A 
ATOM      7  C   UNL     1       2.444  -6.423  -2.110  0.00  0.00    -0.018 A 
ATOM      8  C   UNL     1       1.131  -6.463  -2.421  0.00  0.00    -0.004 A 
ATOM      9  S   UNL     1       0.491  -4.895  -1.900  0.00  0.00    -0.077 S 
ATOM     10  C   UNL     1       0.375  -7.584  -3.064  0.00  0.00    +0.043 C 
ATOM     11  C   UNL     1       0.700  -8.895  -2.336  0.00  0.00    +0.005 C 
ATOM     12  C   UNL     1       1.919  -9.529  -3.000  0.00  0.00    +0.001 C 
ATOM     13  C   UNL     1       2.860  -8.442  -3.516  0.00  0.00    +0.005 C 
ATOM     14  C   UNL     1       3.383  -7.596  -2.361  0.00  0.00    +0.037 C 
BRANCH   6  15
ATOM     15  C   UNL     1       4.262  -4.989  -1.127  0.00  0.00    +0.102 C 
ATOM     16  N   UNL     1       5.348  -4.839  -0.829  0.00  0.00    -0.191 NA
ENDBRANCH   6  15
ENDBRANCH   3   5
BRANCH   1  18
ATOM     17  C   UNL     1       1.801  -0.866   1.417  0.00  0.00    +0.038 C 
ATOM     18  C   UNL     1       1.281  -0.719  -0.014  0.00  0.00    +0.154 C 
BRANCH  18  19
ATOM     19  N   UNL     1       0.002  -0.004   0.002  0.00  0.00    -0.330 N 
ATOM     20  H   UNL     1      -0.831  -0.500   0.007  0.00  0.00    +0.147 HD
BRANCH  19  21
ATOM     21  C   UNL     1      -0.017   1.395   0.010  0.00  0.00    +0.070 A 
ATOM     22  C   UNL     1       1.174   2.107   0.002  0.00  0.00    +0.026 A 
ATOM     23  C   UNL     1       1.152   3.489   0.009  0.00  0.00    +0.002 A 
ATOM     24  C   UNL     1      -0.053   4.165   0.024  0.00  0.00    +0.004 A 
ATOM     25  C   UNL     1      -1.244   3.462   0.031  0.00  0.00    +0.047 A 
ATOM     26  C   UNL     1      -1.232   2.077   0.019  0.00  0.00    +0.141 A 
BRANCH  26  27
ATOM     27  O   UNL     1      -2.402   1.385   0.021  0.00  0.00    -0.493 OA
ATOM     28  C   UNL     1      -3.609   2.150   0.031  0.00  0.00    +0.277 C 
ENDBRANCH  26  27
ENDBRANCH  19  21
ENDBRANCH  18  19
ENDBRANCH   1  18
TORSDOF 6
