REMARK  Name = ZINC12164204
REMARK  9 active torsions:
REMARK  status: ('A' for Active; 'I' for Inactive)
REMARK    1  A    between atoms: C_1  and  C_2
REMARK    2  A    between atoms: C_2  and  C_4
REMARK    3  A    between atoms: C_2  and  C_14
REMARK    4  A    between atoms: C_4  and  C_5
REMARK    5  A    between atoms: C_14  and  N_67
REMARK    6  A    between atoms: C_17  and  C_20
REMARK    7  A    between atoms: C_20  and  C_27
REMARK    8  A    between atoms: C_27  and  C_28
REMARK    9  A    between atoms: C_28  and  C_29
REMARK                            x       y       z     vdW  Elec       q    Type
REMARK                         _______ _______ _______ _____ _____    ______ ____
ROOT
ATOM      1  C   UNL     1      -0.353   0.769   0.026  0.00  0.00    -0.078 C 
ATOM      2  C   UNL     1      -1.240   1.155  -1.159  0.00  0.00    -0.013 C 
ATOM      3  C   UNL     1      -1.211   2.676  -1.339  0.00  0.00    +0.018 C 
ATOM      4  C   UNL     1      -1.678   3.344  -0.043  0.00  0.00    -0.013 C 
ATOM      5  C   UNL     1      -0.778   2.895   1.111  0.00  0.00    -0.078 C 
ATOM      6  N   UNL     1      -0.870   1.425   1.246  0.00  0.00    +0.380 N 
ATOM      7  H   UNL     1      -1.855   1.164   1.373  0.00  0.00    -0.082 HD
ENDROOT
BRANCH   3   8
ATOM      8  C   UNL     1      -2.144   3.074  -2.484  0.00  0.00    +0.115 C 
ATOM      9  C   UNL     1      -1.784   2.321  -3.750  0.00  0.00    +0.244 C 
ATOM     10  O   UNL     1      -0.736   2.367  -4.357  0.00  0.00    -0.273 OA
ATOM     11  N   UNL     1      -2.874   1.592  -4.062  0.00  0.00    -0.238 N 
ATOM     12  C   UNL     1      -3.861   1.776  -3.178  0.00  0.00    +0.307 C 
ATOM     13  O   UNL     1      -4.942   1.226  -3.248  0.00  0.00    -0.252 OA
ATOM     14  N   UNL     1      -3.523   2.640  -2.203  0.00  0.00    -0.285 N 
ATOM     15  H   UNL     1      -2.934   1.005  -4.832  0.00  0.00    +0.159 HD
ATOM     16  H   UNL     1      -4.080   2.922  -1.461  0.00  0.00    +0.151 HD
BRANCH   8  17
ATOM     17  C   UNL     1      -2.092   4.585  -2.719  0.00  0.00    +0.040 C 
BRANCH  17  18
ATOM     18  C   UNL     1      -3.123   4.971  -3.781  0.00  0.00    +0.038 C 
BRANCH  18  19
ATOM     19  C   UNL     1      -3.071   6.460  -4.012  0.00  0.00    -0.047 A 
ATOM     20  C   UNL     1      -3.874   7.303  -3.266  0.00  0.00    +0.003 A 
ATOM     21  C   UNL     1      -3.824   8.668  -3.475  0.00  0.00    +0.000 A 
ATOM     22  C   UNL     1      -2.978   9.190  -4.436  0.00  0.00    +0.000 A 
ATOM     23  C   UNL     1      -2.179   8.347  -5.186  0.00  0.00    +0.000 A 
ATOM     24  C   UNL     1      -2.226   6.981  -4.974  0.00  0.00    +0.003 A 
ENDBRANCH  18  19
ENDBRANCH  17  18
ENDBRANCH   8  17
ENDBRANCH   3   8
BRANCH   6  25
ATOM     25  C   UNL     1      -0.099   0.979   2.425  0.00  0.00    -0.075 C 
BRANCH  25  27
ATOM     26  C   UNL     1      -2.055   1.476   3.897  0.00  0.00    +0.006 C 
ATOM     27  C   UNL     1      -0.571   1.758   3.654  0.00  0.00    -0.026 C 
BRANCH  27  28
ATOM     28  C   UNL     1       0.238   1.321   4.877  0.00  0.00    +0.036 C 
BRANCH  28  29
ATOM     29  C   UNL     1      -0.141   2.174   6.060  0.00  0.00    -0.043 A 
ATOM     30  C   UNL     1       0.549   3.344   6.316  0.00  0.00    +0.007 A 
ATOM     31  C   UNL     1       0.202   4.132   7.398  0.00  0.00    +0.050 A 
ATOM     32  C   UNL     1      -0.832   3.744   8.235  0.00  0.00    +0.166 A 
ATOM     33  C   UNL     1      -1.523   2.562   7.980  0.00  0.00    +0.166 A 
ATOM     34  C   UNL     1      -1.173   1.780   6.891  0.00  0.00    +0.053 A 
ATOM     35  O   UNL     1      -2.484   2.404   8.937  0.00  0.00    -0.453 OA
ATOM     36  C   UNL     1      -2.107   3.287  10.010  0.00  0.00    +0.466 C 
ATOM     37  O   UNL     1      -1.359   4.326   9.351  0.00  0.00    -0.453 OA
ENDBRANCH  28  29
ENDBRANCH  27  28
ENDBRANCH  25  27
ENDBRANCH   6  25
TORSDOF 8
