REMARK  Name = ZINC40835367
REMARK  7 active torsions:
REMARK  status: ('A' for Active; 'I' for Inactive)
REMARK    1  A    between atoms: C_4  and  C_7
REMARK    2  A    between atoms: C_7  and  S_8
REMARK    3  A    between atoms: S_8  and  C_9
REMARK    4  A    between atoms: C_10  and  C_27
REMARK    5  A    between atoms: C_11  and  C_18
REMARK    6  A    between atoms: C_12  and  C_16
REMARK    7  A    between atoms: C_13  and  N_15
REMARK                            x       y       z     vdW  Elec       q    Type
REMARK                         _______ _______ _______ _____ _____    ______ ____
ROOT
ATOM      1  C   UNL     1       5.786  -1.866   1.477  0.00  0.00    +0.117 A 
ATOM      2  C   UNL     1       6.500  -2.271   2.621  0.00  0.00    +0.093 A 
ATOM      3  C   UNL     1       7.721  -2.955   2.456  0.00  0.00    +0.023 A 
ATOM      4  C   UNL     1       8.171  -3.201   1.142  0.00  0.00    +0.100 A 
ATOM      5  C   UNL     1       7.388  -2.758   0.060  0.00  0.00    +0.136 A 
ATOM      6  N   UNL     1       6.245  -2.124   0.262  0.00  0.00    -0.224 NA
ENDROOT
BRANCH   3   7
ATOM      7  C   UNL     1       8.508  -3.401   3.625  0.00  0.00    -0.012 A 
ATOM      8  C   UNL     1       9.058  -2.460   4.498  0.00  0.00    +0.012 A 
ATOM      9  C   UNL     1       9.791  -2.877   5.588  0.00  0.00    +0.050 A 
ATOM     10  C   UNL     1       9.986  -4.231   5.822  0.00  0.00    +0.166 A 
ATOM     11  C   UNL     1       9.439  -5.176   4.954  0.00  0.00    +0.167 A 
ATOM     12  C   UNL     1       8.698  -4.763   3.863  0.00  0.00    +0.058 A 
ATOM     13  O   UNL     1       9.771  -6.422   5.401  0.00  0.00    -0.453 OA
ATOM     14  C   UNL     1      10.865  -6.223   6.316  0.00  0.00    +0.466 C 
ATOM     15  O   UNL     1      10.658  -4.887   6.812  0.00  0.00    -0.453 OA
ENDBRANCH   3   7
BRANCH   5  16
ATOM     16  N   UNL     1       7.818  -2.993  -1.231  0.00  0.00    -0.342 N 
ATOM     17  H   UNL     1       8.653  -3.460  -1.387  0.00  0.00    +0.144 HD
ATOM     18  H   UNL     1       7.284  -2.690  -1.982  0.00  0.00    +0.144 HD
ENDBRANCH   5  16
BRANCH   4  19
ATOM     19  C   UNL     1       9.404  -3.891   0.913  0.00  0.00    +0.103 C 
ATOM     20  N   UNL     1      10.383  -4.439   0.732  0.00  0.00    -0.191 NA
ENDBRANCH   4  19
BRANCH   2  21
ATOM     21  C   UNL     1       5.994  -1.993   3.931  0.00  0.00    +0.102 C 
ATOM     22  N   UNL     1       5.592  -1.772   4.971  0.00  0.00    -0.191 NA
ENDBRANCH   2  21
BRANCH   1  23
ATOM     23  S   UNL     1       4.257  -1.011   1.666  0.00  0.00    -0.100 S 
BRANCH  23  24
ATOM     24  C   UNL     1       3.711  -0.707  -0.038  0.00  0.00    +0.111 C 
BRANCH  24  28
ATOM     25  C   UNL     1      -0.017   1.378   0.010  0.00  0.00    +0.000 A 
ATOM     26  C   UNL     1       1.171   2.086   0.002  0.00  0.00    +0.000 A 
ATOM     27  C   UNL     1       2.377   1.411  -0.013  0.00  0.00    +0.004 A 
ATOM     28  C   UNL     1       2.396   0.029  -0.020  0.00  0.00    -0.037 A 
ATOM     29  C   UNL     1       1.208  -0.679  -0.012  0.00  0.00    +0.004 A 
ATOM     30  C   UNL     1       0.002  -0.004   0.002  0.00  0.00    +0.000 A 
ENDBRANCH  24  28
ENDBRANCH  23  24
ENDBRANCH   1  23
TORSDOF 7
