REMARK  Name = ZINC06144047
REMARK  8 active torsions:
REMARK  status: ('A' for Active; 'I' for Inactive)
REMARK    1  A    between atoms: C_1  and  C_2
REMARK    2  A    between atoms: C_5  and  O_8
REMARK    3  A    between atoms: O_8  and  C_9
REMARK    4  A    between atoms: C_14  and  C_15
REMARK    5  A    between atoms: C_18  and  O_22
REMARK    6  A    between atoms: C_20  and  O_21
REMARK    7  A    between atoms: O_22  and  C_23
REMARK    8  A    between atoms: C_23  and  C_24
REMARK                            x       y       z     vdW  Elec       q    Type
REMARK                         _______ _______ _______ _____ _____    ______ ____
ROOT
ATOM      1  C   UNL     1       0.353  -7.186   0.281  0.00  0.00    +0.047 A 
ATOM      2  C   UNL     1       0.256  -6.799  -1.053  0.00  0.00    +0.017 A 
ATOM      3  C   UNL     1       0.292  -7.750  -2.051  0.00  0.00    +0.046 A 
ATOM      4  C   UNL     1       0.426  -9.094  -1.730  0.00  0.00    +0.124 A 
ATOM      5  C   UNL     1       0.523  -9.488  -0.404  0.00  0.00    +0.091 A 
ATOM      6  C   UNL     1       0.493  -8.539   0.604  0.00  0.00    +0.130 A 
ENDROOT
BRANCH   1  12
ATOM      7  C   UNL     1       0.178  -4.773   1.173  0.00  0.00    +0.173 A 
ATOM      8  C   UNL     1       0.182  -4.191   2.396  0.00  0.00    +0.151 A 
ATOM      9  N   UNL     1       0.321  -5.175   3.324  0.00  0.00    -0.280 N 
ATOM     10  H   UNL     1       0.355  -5.051   4.285  0.00  0.00    +0.188 HD
ATOM     11  N   UNL     1       0.406  -6.400   2.649  0.00  0.00    -0.170 NA
ATOM     12  C   UNL     1       0.315  -6.165   1.357  0.00  0.00    +0.138 A 
BRANCH   7  13
ATOM     13  O   UNL     1       0.059  -4.129  -0.021  0.00  0.00    -0.452 OA
BRANCH  13  18
ATOM     14  C   UNL     1       0.048   1.503   0.001  0.00  0.00    +0.044 C 
ATOM     15  C   UNL     1       0.051  -0.004  -0.005  0.00  0.00    -0.050 A 
ATOM     16  C   UNL     1       1.211  -0.693   0.298  0.00  0.00    +0.007 A 
ATOM     17  C   UNL     1       1.216  -2.074   0.293  0.00  0.00    +0.046 A 
ATOM     18  C   UNL     1       0.056  -2.770  -0.015  0.00  0.00    +0.129 A 
ATOM     19  C   UNL     1      -1.107  -2.076  -0.319  0.00  0.00    +0.046 A 
ATOM     20  C   UNL     1      -1.108  -0.695  -0.308  0.00  0.00    +0.007 A 
ENDBRANCH  13  18
ENDBRANCH   7  13
ENDBRANCH   1  12
BRANCH   6  21
ATOM     21  O   UNL     1       0.594  -8.923   1.904  0.00  0.00    -0.506 OA
ATOM     22  H   UNL     1      -0.256  -9.114   2.324  0.00  0.00    +0.292 HD
ENDBRANCH   6  21
BRANCH   4  23
ATOM     23  O   UNL     1       0.461 -10.027  -2.718  0.00  0.00    -0.487 OA
BRANCH  23  24
ATOM     24  C   UNL     1       0.355  -9.553  -4.062  0.00  0.00    +0.266 C 
BRANCH  24  25
ATOM     25  C   UNL     1       0.412 -10.720  -5.013  0.00  0.00    +0.008 A 
ATOM     26  C   UNL     1       0.543 -12.006  -4.521  0.00  0.00    +0.010 A 
ATOM     27  C   UNL     1       0.595 -13.077  -5.393  0.00  0.00    +0.020 A 
ATOM     28  C   UNL     1       0.516 -12.864  -6.758  0.00  0.00    +0.042 A 
ATOM     29  C   UNL     1       0.385 -11.578  -7.250  0.00  0.00    +0.040 A 
ATOM     30  C   UNL     1       0.328 -10.506  -6.377  0.00  0.00    +0.049 A 
ATOM     31 CL   UNL     1       0.157  -8.893  -6.993  0.00  0.00    -0.083 Cl
ATOM     32 CL   UNL     1       0.583 -14.210  -7.852  0.00  0.00    -0.083 Cl
ENDBRANCH  24  25
ENDBRANCH  23  24
ENDBRANCH   4  23
TORSDOF 7
