REMARK  Name = ZINC32535557
REMARK  9 active torsions:
REMARK  status: ('A' for Active; 'I' for Inactive)
REMARK    1  A    between atoms: C_1  and  C_2
REMARK    2  A    between atoms: C_2  and  C_4
REMARK    3  A    between atoms: C_2  and  N_21
REMARK    4  A    between atoms: C_9  and  C_12
REMARK    5  A    between atoms: C_16  and  N_18
REMARK    6  A    between atoms: C_25  and  S_26
REMARK    7  A    between atoms: S_26  and  C_27
REMARK    8  A    between atoms: C_27  and  C_28
REMARK    9  A    between atoms: C_28  and  C_29
REMARK                            x       y       z     vdW  Elec       q    Type
REMARK                         _______ _______ _______ _____ _____    ______ ____
ROOT
ATOM      1  C   UNL     1       3.945  10.255  -1.224  0.00  0.00    +0.041 C 
ATOM      2  C   UNL     1       3.106  10.487   0.034  0.00  0.00    +0.175 C 
ENDROOT
BRANCH   2   3
ATOM      3  C   UNL     1       1.935   9.537   0.039  0.00  0.00    +0.241 C 
ATOM      4  O   UNL     1       0.803   9.971   0.051  0.00  0.00    -0.273 OA
ATOM      5  N   UNL     1       2.147   8.207   0.029  0.00  0.00    -0.263 N 
ATOM      6  C   UNL     1       1.069   7.331   0.034  0.00  0.00    +0.165 A 
ATOM      7  N   UNL     1       1.064   6.011   0.031  0.00  0.00    -0.225 NA
ATOM      8  C   UNL     1      -0.070   5.327   0.031  0.00  0.00    +0.080 A 
ATOM      9  C   UNL     1      -1.260   6.001   0.046  0.00  0.00    +0.076 A 
ATOM     10  S   UNL     1      -0.682   7.693   0.051  0.00  0.00    -0.060 S 
ATOM     11  H   UNL     1       3.175   7.813   0.018  0.00  0.00    +0.157 HD
BRANCH   8  12
ATOM     12  C   UNL     1      -0.050   3.844   0.023  0.00  0.00    +0.003 A 
ATOM     13  C   UNL     1      -1.246   3.128   0.030  0.00  0.00    +0.010 A 
ATOM     14  C   UNL     1      -1.222   1.749   0.017  0.00  0.00    +0.003 A 
ATOM     15  C   UNL     1      -0.013   1.076   0.008  0.00  0.00    +0.033 A 
ATOM     16  C   UNL     1       1.177   1.781   0.000  0.00  0.00    +0.127 A 
ATOM     17  C   UNL     1       1.165   3.161   0.008  0.00  0.00    +0.042 A 
BRANCH  16  18
ATOM     18  N   UNL     1       2.467   1.054  -0.015  0.00  0.00    +0.056 N 
ATOM     19  O   UNL     1       2.479  -0.164  -0.022  0.00  0.00    -0.126 OA
ATOM     20  O   UNL     1       3.515   1.674  -0.022  0.00  0.00    -0.126 OA
ENDBRANCH  16  18
ENDBRANCH   8  12
ENDBRANCH   2   3
BRANCH   2  21
ATOM     21  N   UNL     1       2.614  11.867   0.046  0.00  0.00    -0.279 N 
ATOM     22  C   UNL     1       1.816  12.444  -0.901  0.00  0.00    +0.216 A 
ATOM     23  N   UNL     1       1.591  13.684  -0.541  0.00  0.00    -0.113 NA
ATOM     24  N   UNL     1       2.261  13.912   0.668  0.00  0.00    -0.121 NA
ATOM     25  C   UNL     1       2.870  12.802   1.010  0.00  0.00    +0.194 A 
ATOM     26  N   UNL     1       1.329  11.825  -2.045  0.00  0.00    -0.328 N 
ATOM     27  H   UNL     1       0.691  12.385  -2.744  0.00  0.00    +0.145 HD
ATOM     28  H   UNL     1       1.581  10.774  -2.251  0.00  0.00    +0.145 HD
BRANCH  25  29
ATOM     29  S   UNL     1       3.847  12.560   2.455  0.00  0.00    -0.086 S 
BRANCH  29  30
ATOM     30  C   UNL     1       3.787  14.164   3.300  0.00  0.00    +0.082 C 
BRANCH  30  31
ATOM     31  C   UNL     1       4.607  14.093   4.590  0.00  0.00    +0.046 C 
BRANCH  31  32
ATOM     32  C   UNL     1       4.558  15.426   5.291  0.00  0.00    -0.047 A 
ATOM     33  C   UNL     1       5.512  16.387   5.017  0.00  0.00    +0.003 A 
ATOM     34  C   UNL     1       5.464  17.611   5.657  0.00  0.00    +0.000 A 
ATOM     35  C   UNL     1       4.466  17.871   6.578  0.00  0.00    +0.000 A 
ATOM     36  C   UNL     1       3.515  16.907   6.856  0.00  0.00    +0.000 A 
ATOM     37  C   UNL     1       3.560  15.685   6.213  0.00  0.00    +0.003 A 
ENDBRANCH  31  32
ENDBRANCH  30  31
ENDBRANCH  29  30
ENDBRANCH  25  29
ENDBRANCH   2  21
TORSDOF 8
