REMARK  Name = ZINC11856029
REMARK  5 active torsions:
REMARK  status: ('A' for Active; 'I' for Inactive)
REMARK    1  A    between atoms: C_1  and  C_2
REMARK    2  A    between atoms: C_11  and  C_13
REMARK    3  A    between atoms: C_13  and  C_14
REMARK    4  A    between atoms: N_16  and  C_17
REMARK    5  A    between atoms: C_19  and  C_34
REMARK                            x       y       z     vdW  Elec       q    Type
REMARK                         _______ _______ _______ _____ _____    ______ ____
ROOT
ATOM      1  C   UNL     1      -4.468  -0.390  -1.828  0.00  0.00    +0.132 A 
ATOM      2  C   UNL     1      -5.040   0.287  -0.800  0.00  0.00    +0.074 A 
ATOM      3  C   UNL     1      -6.432   0.323  -1.029  0.00  0.00    +0.102 A 
ATOM      4  N   UNL     1      -6.681  -0.313  -2.156  0.00  0.00    -0.162 NA
ATOM      5  N   UNL     1      -5.465  -0.766  -2.683  0.00  0.00    -0.185 N 
ATOM      6  C   UNL     1      -5.302  -1.471  -3.859  0.00  0.00    +0.234 A 
ATOM      7  N   UNL     1      -6.393  -1.781  -4.609  0.00  0.00    -0.291 N 
ATOM      8  H   UNL     1      -7.278  -1.506  -4.322  0.00  0.00    +0.172 HD
ATOM      9  C   UNL     1      -6.234  -2.469  -5.758  0.00  0.00    +0.256 A 
ATOM     10  O   UNL     1      -7.200  -2.751  -6.448  0.00  0.00    -0.267 OA
ATOM     11  C   UNL     1      -4.935  -2.863  -6.149  0.00  0.00    +0.038 A 
ATOM     12  C   UNL     1      -3.884  -2.523  -5.362  0.00  0.00    +0.053 A 
ATOM     13  N   UNL     1      -4.098  -1.836  -4.232  0.00  0.00    -0.217 NA
ATOM     14  C   UNL     1      -2.462  -2.879  -5.708  0.00  0.00    +0.056 C 
ATOM     15  C   UNL     1      -2.425  -4.001  -6.743  0.00  0.00    +0.006 C 
ATOM     16  C   UNL     1      -3.340  -3.613  -7.911  0.00  0.00    +0.005 C 
ATOM     17  C   UNL     1      -4.786  -3.651  -7.421  0.00  0.00    +0.042 C 
ENDROOT
BRANCH   3  18
ATOM     18  C   UNL     1      -7.438   0.962  -0.154  0.00  0.00    +0.039 A 
ATOM     19  C   UNL     1      -8.796   1.040  -0.314  0.00  0.00    +0.018 A 
ATOM     20  C   UNL     1      -9.539   1.691   0.646  0.00  0.00    +0.008 A 
ATOM     21  C   UNL     1      -8.905   2.244   1.712  0.00  0.00    +0.046 A 
ATOM     22  S   UNL     1      -7.198   1.840   1.382  0.00  0.00    -0.095 S 
ENDBRANCH   3  18
BRANCH   1  25
ATOM     23  C   UNL     1      -2.228  -0.213  -1.063  0.00  0.00    +0.220 C 
ATOM     24  O   UNL     1      -2.619   0.406  -0.096  0.00  0.00    -0.275 OA
ATOM     25  N   UNL     1      -3.108  -0.649  -1.985  0.00  0.00    -0.270 N 
ATOM     26  H   UNL     1      -2.795  -1.144  -2.759  0.00  0.00    +0.156 HD
BRANCH  23  27
ATOM     27  C   UNL     1      -0.757  -0.493  -1.233  0.00  0.00    +0.122 C 
BRANCH  27  38
ATOM     28  C   UNL     1       5.626  -0.828  -0.644  0.00  0.00    +0.066 C 
ATOM     29  C   UNL     1       4.144  -0.586  -0.512  0.00  0.00    +0.046 A 
ATOM     30  C   UNL     1       3.494   0.228  -1.394  0.00  0.00    +0.093 A 
ATOM     31  C   UNL     1       2.120   0.441  -1.248  0.00  0.00    +0.255 A 
ATOM     32  O   UNL     1       1.530   1.170  -2.029  0.00  0.00    -0.268 OA
ATOM     33  N   UNL     1       1.432  -0.173  -0.233  0.00  0.00    -0.283 N 
ATOM     34  C   UNL     1       2.156  -0.968   0.603  0.00  0.00    +0.172 A 
ATOM     35  N   UNL     1       3.451  -1.162   0.466  0.00  0.00    -0.228 NA
ATOM     36  S   UNL     1       1.019  -1.614   1.810  0.00  0.00    -0.086 S 
ATOM     37  C   UNL     1      -0.521  -0.818   1.222  0.00  0.00    +0.103 C 
ATOM     38  C   UNL     1      -0.001  -0.027   0.013  0.00  0.00    +0.112 C 
ENDBRANCH  27  38
ENDBRANCH  23  27
ENDBRANCH   1  25
TORSDOF 4
