REMARK  Name = ZINC13069057
REMARK  11 active torsions:
REMARK  status: ('A' for Active; 'I' for Inactive)
REMARK    1  A    between atoms: C_1  and  C_2
REMARK    2  A    between atoms: C_8  and  C_36
REMARK    3  A    between atoms: C_12  and  C_13
REMARK    4  A    between atoms: C_13  and  O_15
REMARK    5  A    between atoms: O_15  and  C_16
REMARK    6  A    between atoms: C_16  and  C_17
REMARK    7  A    between atoms: C_17  and  C_19
REMARK    8  A    between atoms: C_20  and  N_35
REMARK    9  A    between atoms: N_21  and  C_28
REMARK   10  A    between atoms: N_24  and  C_27
REMARK   11  A    between atoms: C_28  and  C_29
REMARK                            x       y       z     vdW  Elec       q    Type
REMARK                         _______ _______ _______ _____ _____    ______ ____
ROOT
ATOM      1  C   UNL     1       1.144  -2.080  -0.010  0.00  0.00    +0.209 C 
ATOM      2  O   UNL     1       0.089  -2.677  -0.094  0.00  0.00    -0.288 OA
ENDROOT
BRANCH   1   3
ATOM      3  C   UNL     1       1.158  -0.669  -0.007  0.00  0.00    +0.123 A 
ATOM      4  C   UNL     1      -0.039   0.068   0.021  0.00  0.00    +0.116 A 
ATOM      5  N   UNL     1       0.026   1.433   0.022  0.00  0.00    -0.277 N 
ATOM      6  C   UNL     1       1.204   2.075  -0.004  0.00  0.00    +0.333 A 
ATOM      7  O   UNL     1       1.207   3.291  -0.002  0.00  0.00    -0.246 OA
ATOM      8  N   UNL     1       2.378   1.425  -0.032  0.00  0.00    -0.263 N 
ATOM      9  C   UNL     1       2.423   0.077  -0.035  0.00  0.00    +0.269 A 
ATOM     10  O   UNL     1       3.489  -0.509  -0.060  0.00  0.00    -0.267 OA
ATOM     11  C   UNL     1       3.627   2.190  -0.059  0.00  0.00    +0.157 C 
BRANCH   4  12
ATOM     12  N   UNL     1      -1.242  -0.567   0.048  0.00  0.00    -0.344 N 
ATOM     13  H   UNL     1      -2.059  -0.054   0.145  0.00  0.00    +0.144 HD
ATOM     14  H   UNL     1      -1.282  -1.533  -0.030  0.00  0.00    +0.144 HD
ENDBRANCH   4  12
BRANCH   5  15
ATOM     15  C   UNL     1      -1.216   2.210   0.045  0.00  0.00    +0.163 C 
BRANCH  15  16
ATOM     16  C   UNL     1      -1.616   2.474   1.474  0.00  0.00    -0.028 A 
ATOM     17  C   UNL     1      -2.439   1.584   2.137  0.00  0.00    +0.005 A 
ATOM     18  C   UNL     1      -2.803   1.824   3.449  0.00  0.00    +0.000 A 
ATOM     19  C   UNL     1      -2.351   2.960   4.094  0.00  0.00    +0.000 A 
ATOM     20  C   UNL     1      -1.532   3.853   3.429  0.00  0.00    +0.000 A 
ATOM     21  C   UNL     1      -1.165   3.610   2.119  0.00  0.00    +0.005 A 
ENDBRANCH  15  16
ENDBRANCH   5  15
ENDBRANCH   1   3
BRANCH   1  22
ATOM     22  C   UNL     1       2.438  -2.846   0.091  0.00  0.00    +0.312 C 
BRANCH  22  23
ATOM     23  O   UNL     1       2.159  -4.271   0.068  0.00  0.00    -0.453 OA
BRANCH  23  24
ATOM     24  C   UNL     1       3.218  -5.104   0.151  0.00  0.00    +0.347 C 
ATOM     25  O   UNL     1       4.343  -4.650   0.240  0.00  0.00    -0.244 OA
BRANCH  24  37
ATOM     26  C   UNL     1       5.409  -7.203   0.309  0.00  0.00    +0.046 C 
ATOM     27  C   UNL     1       3.946  -7.547   0.200  0.00  0.00    -0.015 A 
ATOM     28  C   UNL     1       3.542  -8.883   0.172  0.00  0.00    +0.076 A 
ATOM     29  C   UNL     1       4.366 -10.112   0.234  0.00  0.00    +0.260 A 
ATOM     30  O   UNL     1       5.578 -10.047   0.330  0.00  0.00    -0.267 OA
ATOM     31  N   UNL     1       3.740 -11.304   0.182  0.00  0.00    -0.311 N 
ATOM     32  H   UNL     1       4.265 -12.118   0.222  0.00  0.00    +0.170 HD
ATOM     33  C   UNL     1       2.391 -11.388   0.076  0.00  0.00    +0.108 A 
ATOM     34  N   UNL     1       1.635 -10.325   0.018  0.00  0.00    -0.227 NA
ATOM     35  C   UNL     1       2.149  -9.103   0.061  0.00  0.00    +0.116 A 
ATOM     36  S   UNL     1       1.480  -7.460   0.011  0.00  0.00    -0.062 S 
ATOM     37  C   UNL     1       3.012  -6.553   0.133  0.00  0.00    +0.102 A 
ATOM     38  C   UNL     1       1.745 -12.749   0.023  0.00  0.00    +0.086 C 
ENDBRANCH  24  37
ENDBRANCH  23  24
ENDBRANCH  22  23
ENDBRANCH   1  22
TORSDOF 8
