REMARK  Name = ZINC20329924
REMARK  3 active torsions:
REMARK  status: ('A' for Active; 'I' for Inactive)
REMARK    1  A    between atoms: C_6  and  C_7
REMARK    2  A    between atoms: C_10  and  C_12
REMARK    3  A    between atoms: C_24  and  C_25
REMARK                            x       y       z     vdW  Elec       q    Type
REMARK                         _______ _______ _______ _____ _____    ______ ____
ROOT
ATOM      1  C   UNL     1      -4.808  -1.053   0.038  0.00  0.00    +0.063 C 
ATOM      2  C   UNL     1      -5.353   0.218   0.149  0.00  0.00    +0.088 A 
ATOM      3  C   UNL     1      -4.503   1.440   0.142  0.00  0.00    +0.160 A 
ATOM      4  N   UNL     1      -3.396   1.541  -0.546  0.00  0.00    -0.281 NA
ATOM      5  N   UNL     1      -5.011   2.477   0.950  0.00  0.00    -0.212 N 
ATOM      6  C   UNL     1      -6.370   2.487   1.198  0.00  0.00    +0.199 A 
ATOM      7  N   UNL     1      -7.239   1.570   0.873  0.00  0.00    -0.182 NA
ATOM      8  C   UNL     1      -6.812   0.433   0.274  0.00  0.00    +0.283 A 
ATOM      9  O   UNL     1      -7.606  -0.393  -0.148  0.00  0.00    -0.265 OA
ATOM     10  S   UNL     1      -6.613   4.021   2.054  0.00  0.00    -0.031 S 
ATOM     11  C   UNL     1      -4.901   4.524   2.154  0.00  0.00    +0.101 A 
ATOM     12  N   UNL     1      -4.259   3.490   1.508  0.00  0.00    -0.283 N 
ATOM     13  C   UNL     1      -4.368   5.643   2.723  0.00  0.00    +0.102 C 
ATOM     14  H   UNL     1      -2.879   2.361  -0.515  0.00  0.00    +0.188 HD
ATOM     15  H   UNL     1      -3.291   3.475   1.447  0.00  0.00    +0.188 HD
ENDROOT
BRANCH  13  16
ATOM     16  C   UNL     1      -2.980   5.853   2.693  0.00  0.00    +0.242 C 
ATOM     17  O   UNL     1      -2.251   5.035   2.158  0.00  0.00    -0.271 OA
ATOM     18  N   UNL     1      -2.453   6.959   3.255  0.00  0.00    -0.298 N 
ATOM     19  C   UNL     1      -3.211   8.019   3.935  0.00  0.00    +0.108 C 
ATOM     20  C   UNL     1      -2.196   9.088   4.392  0.00  0.00    +0.020 C 
ATOM     21  C   UNL     1      -0.989   8.846   3.447  0.00  0.00    +0.020 C 
ATOM     22  C   UNL     1      -1.020   7.303   3.295  0.00  0.00    +0.108 C 
ENDBRANCH  13  16
BRANCH   1  26
ATOM     23  C   UNL     1      -1.276  -0.800   0.365  0.00  0.00    +0.136 A 
ATOM     24  C   UNL     1      -1.378  -2.138   0.043  0.00  0.00    +0.050 A 
ATOM     25  C   UNL     1      -2.734  -2.414  -0.125  0.00  0.00    +0.050 A 
ATOM     26  C   UNL     1      -3.417  -1.228   0.103  0.00  0.00    +0.129 A 
ATOM     27  O   UNL     1      -2.511  -0.272   0.401  0.00  0.00    -0.455 OA
BRANCH  23  33
ATOM     28  C   UNL     1      -0.051   1.286   0.956  0.00  0.00    +0.012 A 
ATOM     29  C   UNL     1       1.126   1.959   1.204  0.00  0.00    +0.016 A 
ATOM     30  C   UNL     1       2.337   1.292   1.134  0.00  0.00    +0.018 A 
ATOM     31  C   UNL     1       2.376  -0.055   0.814  0.00  0.00    +0.016 A 
ATOM     32  C   UNL     1       1.206  -0.741   0.562  0.00  0.00    +0.012 A 
ATOM     33  C   UNL     1      -0.020  -0.073   0.632  0.00  0.00    +0.017 A 
ATOM     34 BR   UNL     1       3.947   2.224   1.476  0.00  0.00    -0.050 Br
ENDBRANCH  23  33
ENDBRANCH   1  26
TORSDOF 3
