REMARK  Name = ZINC13057100
REMARK  10 active torsions:
REMARK  status: ('A' for Active; 'I' for Inactive)
REMARK    1  A    between atoms: C_1  and  C_2
REMARK    2  A    between atoms: C_2  and  O_3
REMARK    3  A    between atoms: O_3  and  C_4
REMARK    4  A    between atoms: C_4  and  C_6
REMARK    5  A    between atoms: C_7  and  C_24
REMARK    6  A    between atoms: C_10  and  N_11
REMARK    7  A    between atoms: C_12  and  C_14
REMARK    8  A    between atoms: C_14  and  N_56
REMARK    9  A    between atoms: C_16  and  C_23
REMARK   10  A    between atoms: C_19  and  C_22
REMARK                            x       y       z     vdW  Elec       q    Type
REMARK                         _______ _______ _______ _____ _____    ______ ____
ROOT
ATOM      1  C   UNL     1      -0.018   1.459   0.010  0.00  0.00    +0.095 A 
ATOM      2  C   UNL     1       1.207   2.236   0.003  0.00  0.00    +0.005 A 
ATOM      3  C   UNL     1       1.072   3.587   0.011  0.00  0.00    +0.056 A 
ATOM      4  S   UNL     1      -0.693   3.823   0.029  0.00  0.00    -0.080 S 
ATOM      5  C   UNL     1      -1.210   2.171   0.019  0.00  0.00    +0.086 A 
ENDROOT
BRANCH   2   6
ATOM      6  C   UNL     1       2.540   1.588  -0.013  0.00  0.00    -0.016 A 
ATOM      7  C   UNL     1       2.840   0.584   0.906  0.00  0.00    +0.010 A 
ATOM      8  C   UNL     1       4.080  -0.021   0.884  0.00  0.00    +0.020 A 
ATOM      9  C   UNL     1       5.030   0.376  -0.043  0.00  0.00    +0.041 A 
ATOM     10  C   UNL     1       4.738   1.377  -0.955  0.00  0.00    +0.020 A 
ATOM     11  C   UNL     1       3.499   1.984  -0.944  0.00  0.00    +0.010 A 
ATOM     12 CL   UNL     1       6.591  -0.383  -0.061  0.00  0.00    -0.084 Cl
ENDBRANCH   2   6
BRANCH   5  13
ATOM     13  N   UNL     1      -2.505   1.677   0.023  0.00  0.00    -0.281 N 
ATOM     14  C   UNL     1      -3.550   2.527   0.032  0.00  0.00    +0.201 C 
ATOM     15  O   UNL     1      -3.358   3.725   0.038  0.00  0.00    -0.278 OA
ATOM     16  H   UNL     1      -2.658   0.719   0.018  0.00  0.00    +0.155 HD
BRANCH  14  17
ATOM     17  C   UNL     1      -4.958   1.990   0.036  0.00  0.00    +0.019 C 
BRANCH  17  25
ATOM     18  C   UNL     1      -5.816   3.868   1.300  0.00  0.00    -0.075 C 
ATOM     19  C   UNL     1      -6.712   5.106   1.217  0.00  0.00    -0.031 C 
ATOM     20  C   UNL     1      -8.158   4.668   0.971  0.00  0.00    +0.003 C 
ATOM     21  C   UNL     1      -8.220   3.840  -0.316  0.00  0.00    -0.031 C 
ATOM     22  C   UNL     1      -7.280   2.638  -0.188  0.00  0.00    -0.075 C 
ATOM     23  C   UNL     1      -7.786   4.704  -1.501  0.00  0.00    +0.005 C 
ATOM     24  C   UNL     1      -6.631   5.884   2.532  0.00  0.00    +0.005 C 
ATOM     25  N   UNL     1      -5.901   3.128   0.023  0.00  0.00    +0.386 N 
ATOM     26  H   UNL     1      -5.651   3.760  -0.746  0.00  0.00    -0.081 HD
ENDBRANCH  17  25
ENDBRANCH  14  17
ENDBRANCH   5  13
BRANCH   1  27
ATOM     27  C   UNL     1       0.002  -0.004   0.002  0.00  0.00    +0.342 C 
ATOM     28  O   UNL     1       0.020  -0.618   1.052  0.00  0.00    -0.245 OA
BRANCH  27  29
ATOM     29  O   UNL     1       0.000  -0.672  -1.170  0.00  0.00    -0.461 OA
BRANCH  29  31
ATOM     30  C   UNL     1       0.015  -2.700  -2.519  0.00  0.00    +0.048 C 
ATOM     31  C   UNL     1       0.021  -2.123  -1.102  0.00  0.00    +0.229 C 
ENDBRANCH  29  31
ENDBRANCH  27  29
ENDBRANCH   1  27
TORSDOF 7
