REMARK  Name = ZINC39668526
REMARK  8 active torsions:
REMARK  status: ('A' for Active; 'I' for Inactive)
REMARK    1  A    between atoms: C_1  and  C_2
REMARK    2  A    between atoms: C_2  and  C_4
REMARK    3  A    between atoms: C_2  and  O_32
REMARK    4  A    between atoms: C_4  and  N_5
REMARK    5  A    between atoms: C_6  and  C_8
REMARK    6  A    between atoms: C_19  and  C_21
REMARK    7  A    between atoms: C_24  and  C_28
REMARK    8  A    between atoms: O_32  and  C_33
REMARK                            x       y       z     vdW  Elec       q    Type
REMARK                         _______ _______ _______ _____ _____    ______ ____
ROOT
ATOM      1  C   UNL     1       1.746  -4.191   2.052  0.00  0.00    +0.100 C 
ATOM      2  C   UNL     1       2.740  -4.600   0.942  0.00  0.00    +0.121 C 
ATOM      3  N   UNL     1       4.035  -4.767   1.642  0.00  0.00    -0.296 N 
ATOM      4  C   UNL     1       3.679  -5.412   2.928  0.00  0.00    +0.115 C 
ATOM      5  C   UNL     1       2.364  -4.728   3.353  0.00  0.00    -0.004 C 
ATOM      6  C   UNL     1       1.428  -5.742   4.003  0.00  0.00    -0.010 C 
ATOM      7  C   UNL     1       2.037  -6.219   5.325  0.00  0.00    -0.082 C 
ATOM      8  N   UNL     1       2.240  -5.070   6.215  0.00  0.00    +0.379 N 
ATOM      9  C   UNL     1       3.214  -4.144   5.623  0.00  0.00    -0.082 C 
ATOM     10  C   UNL     1       2.654  -3.580   4.314  0.00  0.00    -0.010 C 
ATOM     11  C   UNL     1       5.261  -4.412   1.207  0.00  0.00    +0.247 C 
ATOM     12  O   UNL     1       5.382  -3.791   0.170  0.00  0.00    -0.270 OA
ATOM     13  H   UNL     1       1.362  -4.591   6.350  0.00  0.00    -0.086 HD
ATOM     14  H   UNL     1       2.584  -5.393   7.107  0.00  0.00    -0.086 HD
ENDROOT
BRANCH  11  15
ATOM     15  C   UNL     1       6.459  -4.779   1.993  0.00  0.00    +0.040 A 
ATOM     16  C   UNL     1       6.423  -5.878   2.853  0.00  0.00    +0.014 A 
ATOM     17  C   UNL     1       7.543  -6.217   3.583  0.00  0.00    +0.016 A 
ATOM     18  C   UNL     1       8.702  -5.470   3.465  0.00  0.00    +0.090 A 
ATOM     19  C   UNL     1       8.745  -4.377   2.615  0.00  0.00    +0.136 A 
ATOM     20  C   UNL     1       7.631  -4.032   1.873  0.00  0.00    +0.052 A 
ATOM     21  F   UNL     1       9.879  -3.651   2.505  0.00  0.00    -0.205 F 
BRANCH  18  22
ATOM     22  C   UNL     1       9.922  -5.846   4.266  0.00  0.00    +0.420 C 
ATOM     23  F   UNL     1       9.639  -6.972   5.046  0.00  0.00    -0.166 F 
ATOM     24  F   UNL     1      10.980  -6.134   3.398  0.00  0.00    -0.166 F 
ATOM     25  F   UNL     1      10.279  -4.780   5.099  0.00  0.00    -0.166 F 
ENDBRANCH  18  22
ENDBRANCH  11  15
BRANCH   1  27
ATOM     26  N   UNL     1       0.536  -2.130   2.690  0.00  0.00    -0.312 N 
ATOM     27  C   UNL     1       1.617  -2.690   2.113  0.00  0.00    +0.218 C 
ATOM     28  O   UNL     1       2.486  -1.987   1.643  0.00  0.00    -0.275 OA
ATOM     29  H   UNL     1      -0.159  -2.692   3.066  0.00  0.00    +0.149 HD
BRANCH  26  30
ATOM     30  C   UNL     1       0.411  -0.671   2.750  0.00  0.00    +0.148 C 
BRANCH  30  32
ATOM     31  C   UNL     1      -1.090   1.217   3.402  0.00  0.00    +0.053 C 
ATOM     32  C   UNL     1      -0.898  -0.300   3.450  0.00  0.00    +0.187 C 
BRANCH  32  33
ATOM     33  O   UNL     1      -0.848  -0.731   4.812  0.00  0.00    -0.486 OA
BRANCH  33  34
ATOM     34  C   UNL     1      -2.037  -0.964   5.429  0.00  0.00    +0.139 A 
ATOM     35  C   UNL     1      -3.229  -0.888   4.716  0.00  0.00    +0.049 A 
ATOM     36  C   UNL     1      -4.415  -1.133   5.388  0.00  0.00    +0.023 A 
ATOM     37  C   UNL     1      -4.376  -1.444   6.735  0.00  0.00    +0.111 A 
ATOM     38  N   UNL     1      -3.228  -1.508   7.381  0.00  0.00    -0.260 NA
ATOM     39  C   UNL     1      -2.078  -1.287   6.777  0.00  0.00    +0.156 A 
ENDBRANCH  33  34
ENDBRANCH  32  33
ENDBRANCH  30  32
ENDBRANCH  26  30
ENDBRANCH   1  27
TORSDOF 7
