REMARK  Name = ZINC21256586
REMARK  7 active torsions:
REMARK  status: ('A' for Active; 'I' for Inactive)
REMARK    1  A    between atoms: C_1  and  C_2
REMARK    2  A    between atoms: C_2  and  C_3
REMARK    3  A    between atoms: C_6  and  C_9
REMARK    4  A    between atoms: C_14  and  C_24
REMARK    5  A    between atoms: C_29  and  O_30
REMARK    6  A    between atoms: O_30  and  C_31
REMARK    7  A    between atoms: C_31  and  C_32
REMARK                            x       y       z     vdW  Elec       q    Type
REMARK                         _______ _______ _______ _____ _____    ______ ____
ROOT
ATOM      1  C   UNL     1       1.214   3.587   0.192  0.00  0.00    +0.032 C 
ATOM      2  C   UNL     1       1.912   4.176   1.417  0.00  0.00    +0.059 C 
ATOM      3  C   UNL     1       1.879   5.694   1.351  0.00  0.00    +0.017 C 
ATOM      4  C   UNL     1       1.934   6.323   0.166  0.00  0.00    +0.037 C 
ATOM      5  C   UNL     1       1.933   7.819  -0.045  0.00  0.00    +0.139 C 
ATOM      6  N   UNL     1       1.599   8.589   1.135  0.00  0.00    -0.331 N 
ATOM      7  C   UNL     1       2.423   8.579   2.258  0.00  0.00    +0.049 A 
ATOM      8  C   UNL     1       3.086   9.720   2.681  0.00  0.00    +0.025 A 
ATOM      9  C   UNL     1       3.931   9.650   3.775  0.00  0.00    +0.002 A 
ATOM     10  C   UNL     1       4.116   8.453   4.442  0.00  0.00    +0.002 A 
ATOM     11  C   UNL     1       3.442   7.315   4.033  0.00  0.00    +0.025 A 
ATOM     12  C   UNL     1       2.581   7.388   2.951  0.00  0.00    +0.052 A 
ATOM     13  N   UNL     1       1.794   6.312   2.556  0.00  0.00    -0.316 N 
ATOM     14  C   UNL     1       1.989   5.577  -1.035  0.00  0.00    +0.163 C 
ATOM     15  O   UNL     1       2.060   6.174  -2.092  0.00  0.00    -0.292 OA
ATOM     16  C   UNL     1       1.963   4.079  -1.052  0.00  0.00    +0.088 C 
ATOM     17  H   UNL     1       0.681   9.196   1.154  0.00  0.00    +0.147 HD
ATOM     18  H   UNL     1       1.062   5.967   3.301  0.00  0.00    +0.152 HD
ENDROOT
BRANCH   1  22
ATOM     19  C   UNL     1       1.338  -0.679   0.364  0.00  0.00    -0.048 A 
ATOM     20  C   UNL     1       0.121  -0.024   0.333  0.00  0.00    +0.004 A 
ATOM     21  C   UNL     1       0.081   1.357   0.277  0.00  0.00    +0.004 A 
ATOM     22  C   UNL     1       1.258   2.082   0.253  0.00  0.00    -0.043 A 
ATOM     23  C   UNL     1       2.474   1.427   0.285  0.00  0.00    +0.004 A 
ATOM     24  C   UNL     1       2.514   0.046   0.340  0.00  0.00    +0.004 A 
BRANCH  19  26
ATOM     25  C   UNL     1       1.402  -2.752  -0.996  0.00  0.00    +0.009 C 
ATOM     26  C   UNL     1       1.381  -2.184   0.425  0.00  0.00    +0.032 C 
ENDBRANCH  19  26
ENDBRANCH   1  22
BRANCH   5  27
ATOM     27  C   UNL     1       3.303   8.237  -0.513  0.00  0.00    +0.019 A 
ATOM     28  C   UNL     1       4.380   7.389  -0.344  0.00  0.00    +0.009 A 
ATOM     29  C   UNL     1       5.636   7.770  -0.777  0.00  0.00    +0.001 A 
ATOM     30  C   UNL     1       5.820   9.005  -1.371  0.00  0.00    +0.004 A 
ATOM     31  C   UNL     1       4.747   9.859  -1.538  0.00  0.00    +0.046 A 
ATOM     32  C   UNL     1       3.484   9.476  -1.109  0.00  0.00    +0.126 A 
BRANCH  32  33
ATOM     33  O   UNL     1       2.427  10.315  -1.271  0.00  0.00    -0.492 OA
BRANCH  33  34
ATOM     34  C   UNL     1       2.688  11.575  -1.892  0.00  0.00    +0.225 C 
ATOM     35  C   UNL     1       1.388  12.376  -1.988  0.00  0.00    +0.048 C 
ENDBRANCH  33  34
ENDBRANCH  32  33
ENDBRANCH   5  27
TORSDOF 5
