REMARK  Name = ZINC04967595
REMARK  7 active torsions:
REMARK  status: ('A' for Active; 'I' for Inactive)
REMARK    1  A    between atoms: C_4  and  N_7
REMARK    2  A    between atoms: N_10  and  C_11
REMARK    3  A    between atoms: C_11  and  C_13
REMARK    4  A    between atoms: C_11  and  C_24
REMARK    5  A    between atoms: C_13  and  C_14
REMARK    6  A    between atoms: N_26  and  C_27
REMARK    7  A    between atoms: C_27  and  C_28
REMARK                            x       y       z     vdW  Elec       q    Type
REMARK                         _______ _______ _______ _____ _____    ______ ____
ROOT
ATOM      1  C   UNL     1       0.002  -0.011   0.004  0.00  0.00    +0.165 C 
ENDROOT
BRANCH   1   5
ATOM      2  N   UNL     1       2.450  -1.023  -2.546  0.00  0.00    -0.269 N 
ATOM      3  C   UNL     1       1.917  -0.587  -1.387  0.00  0.00    +0.304 C 
ATOM      4  O   UNL     1       2.644  -0.284  -0.460  0.00  0.00    -0.252 OA
ATOM      5  N   UNL     1       0.580  -0.486  -1.255  0.00  0.00    -0.288 N 
ATOM      6  H   UNL     1       1.870  -1.327  -3.261  0.00  0.00    +0.156 HD
ATOM      7  H   UNL     1       0.000  -0.727  -1.994  0.00  0.00    +0.151 HD
BRANCH   2  11
ATOM      8  C   UNL     1       6.585  -1.068  -3.053  0.00  0.00    +0.000 A 
ATOM      9  C   UNL     1       6.039  -1.340  -1.812  0.00  0.00    +0.002 A 
ATOM     10  C   UNL     1       4.668  -1.326  -1.640  0.00  0.00    +0.023 A 
ATOM     11  C   UNL     1       3.838  -1.038  -2.716  0.00  0.00    +0.035 A 
ATOM     12  C   UNL     1       4.389  -0.772  -3.962  0.00  0.00    +0.023 A 
ATOM     13  C   UNL     1       5.761  -0.781  -4.126  0.00  0.00    +0.002 A 
ENDBRANCH   2  11
ENDBRANCH   1   5
BRANCH   1  14
ATOM     14  C   UNL     1      -1.402  -0.543   0.145  0.00  0.00    +0.234 C 
ATOM     15  O   UNL     1      -1.872  -1.248  -0.722  0.00  0.00    -0.274 OA
ATOM     16  N   UNL     1      -2.134  -0.234   1.233  0.00  0.00    -0.309 N 
ATOM     17  H   UNL     1      -1.757   0.330   1.927  0.00  0.00    +0.149 HD
BRANCH  16  18
ATOM     18  C   UNL     1      -3.498  -0.751   1.369  0.00  0.00    +0.146 C 
BRANCH  18  19
ATOM     19  C   UNL     1      -4.093  -0.263   2.665  0.00  0.00    +0.007 A 
ATOM     20  C   UNL     1      -4.797   0.869   2.908  0.00  0.00    +0.013 A 
ATOM     21  C   UNL     1      -5.254   1.113   4.190  0.00  0.00    +0.008 A 
ATOM     22  C   UNL     1      -4.974   0.217   5.168  0.00  0.00    +0.045 A 
ATOM     23  S   UNL     1      -4.046  -1.022   4.280  0.00  0.00    -0.100 S 
ENDBRANCH  18  19
ENDBRANCH  16  18
ENDBRANCH   1  14
BRANCH   1  24
ATOM     24  C   UNL     1      -0.030   1.518   0.007  0.00  0.00    +0.069 C 
BRANCH  24  25
ATOM     25  C   UNL     1       1.380   2.050  -0.009  0.00  0.00    -0.020 A 
ATOM     26  C   UNL     1       2.105   2.423   1.057  0.00  0.00    +0.087 A 
ATOM     27  N   UNL     1       3.341   2.850   0.655  0.00  0.00    -0.360 N 
ATOM     28  H   UNL     1       4.042   3.167   1.246  0.00  0.00    +0.165 HD
ATOM     29  C   UNL     1       3.442   2.768  -0.716  0.00  0.00    +0.047 A 
ATOM     30  C   UNL     1       2.218   2.263  -1.192  0.00  0.00    +0.003 A 
ATOM     31  C   UNL     1       2.029   2.070  -2.562  0.00  0.00    +0.010 A 
ATOM     32  C   UNL     1       3.036   2.374  -3.434  0.00  0.00    +0.001 A 
ATOM     33  C   UNL     1       4.245   2.873  -2.970  0.00  0.00    +0.002 A 
ATOM     34  C   UNL     1       4.452   3.070  -1.622  0.00  0.00    +0.026 A 
ENDBRANCH  24  25
ENDBRANCH   1  24
TORSDOF 7
