REMARK  Name = ZINC02264516
REMARK  12 active torsions:
REMARK  status: ('A' for Active; 'I' for Inactive)
REMARK    1  A    between atoms: C_1  and  C_2
REMARK    2  A    between atoms: C_2  and  C_3
REMARK    3  A    between atoms: C_3  and  C_5
REMARK    4  A    between atoms: C_3  and  C_6
REMARK    5  A    between atoms: C_9  and  N_12
REMARK    6  A    between atoms: C_13  and  N_33
REMARK    7  A    between atoms: C_14  and  C_25
REMARK    8  A    between atoms: N_27  and  C_28
REMARK    9  A    between atoms: C_28  and  C_29
REMARK   10  A    between atoms: C_29  and  C_30
REMARK   11  A    between atoms: C_30  and  C_31
REMARK   12  A    between atoms: C_30  and  C_32
REMARK                            x       y       z     vdW  Elec       q    Type
REMARK                         _______ _______ _______ _____ _____    ______ ____
ROOT
ATOM      1  N   UNL     1      -4.959   3.251   5.699  0.00  0.00    -0.280 N 
ATOM      2  C   UNL     1      -6.230   2.913   6.059  0.00  0.00    +0.117 A 
ATOM      3  C   UNL     1      -6.622   3.630   7.184  0.00  0.00    +0.104 A 
ATOM      4  C   UNL     1      -5.485   4.491   7.549  0.00  0.00    +0.123 A 
ATOM      5  C   UNL     1      -4.443   4.198   6.562  0.00  0.00    +0.166 A 
ATOM      6  N   UNL     1      -3.292   4.833   6.629  0.00  0.00    -0.225 NA
ATOM      7  C   UNL     1      -3.079   5.728   7.602  0.00  0.00    +0.092 A 
ATOM      8  C   UNL     1      -1.849   6.405   7.685  0.00  0.00    +0.030 A 
ATOM      9  C   UNL     1      -1.641   7.314   8.677  0.00  0.00    +0.002 A 
ATOM     10  C   UNL     1      -2.633   7.586   9.618  0.00  0.00    +0.002 A 
ATOM     11  C   UNL     1      -3.835   6.951   9.571  0.00  0.00    +0.030 A 
ATOM     12  C   UNL     1      -4.087   6.005   8.559  0.00  0.00    +0.090 A 
ATOM     13  N   UNL     1      -5.266   5.374   8.503  0.00  0.00    -0.241 NA
ENDROOT
BRANCH   1  17
ATOM     14  C   UNL     1      -2.906   1.634   2.452  0.00  0.00    -0.044 A 
ATOM     15  C   UNL     1      -2.458   1.398   3.738  0.00  0.00    +0.006 A 
ATOM     16  C   UNL     1      -3.133   1.937   4.816  0.00  0.00    +0.026 A 
ATOM     17  C   UNL     1      -4.269   2.707   4.608  0.00  0.00    +0.050 A 
ATOM     18  C   UNL     1      -4.720   2.937   3.315  0.00  0.00    +0.026 A 
ATOM     19  C   UNL     1      -4.038   2.400   2.241  0.00  0.00    +0.006 A 
BRANCH  14  20
ATOM     20  C   UNL     1      -2.164   1.050   1.278  0.00  0.00    +0.016 C 
ATOM     21  C   UNL     1      -2.144  -0.476   1.395  0.00  0.00    +0.012 C 
BRANCH  20  23
ATOM     22  C   UNL     1      -0.013   1.086   0.008  0.00  0.00    +0.004 C 
ATOM     23  C   UNL     1      -0.729   1.579   1.267  0.00  0.00    +0.004 C 
ENDBRANCH  20  23
ENDBRANCH  14  20
ENDBRANCH   1  17
BRANCH   3  24
ATOM     24  C   UNL     1      -7.911   3.547   7.868  0.00  0.00    +0.250 C 
ATOM     25  O   UNL     1      -8.069   2.748   8.773  0.00  0.00    -0.270 OA
ATOM     26  N   UNL     1      -8.924   4.354   7.497  0.00  0.00    -0.311 N 
ATOM     27  H   UNL     1      -8.798   4.991   6.775  0.00  0.00    +0.149 HD
BRANCH  26  28
ATOM     28  C   UNL     1     -10.216   4.271   8.182  0.00  0.00    +0.105 C 
BRANCH  28  29
ATOM     29  C   UNL     1     -11.184   5.287   7.572  0.00  0.00    +0.022 C 
BRANCH  29  30
ATOM     30  C   UNL     1     -12.533   5.200   8.288  0.00  0.00    -0.016 C 
ATOM     31  C   UNL     1     -12.364   5.627   9.748  0.00  0.00    +0.007 C 
ATOM     32  C   UNL     1     -13.537   6.126   7.599  0.00  0.00    +0.007 C 
ENDBRANCH  29  30
ENDBRANCH  28  29
ENDBRANCH  26  28
ENDBRANCH   3  24
BRANCH   2  33
ATOM     33  N   UNL     1      -7.010   1.995   5.406  0.00  0.00    -0.343 N 
ATOM     34  H   UNL     1      -6.665   1.532   4.626  0.00  0.00    +0.144 HD
ATOM     35  H   UNL     1      -7.907   1.808   5.723  0.00  0.00    +0.144 HD
ENDBRANCH   2  33
TORSDOF 8
