REMARK  Name = ZINC29554301
REMARK  7 active torsions:
REMARK  status: ('A' for Active; 'I' for Inactive)
REMARK    1  A    between atoms: C_1  and  C_2
REMARK    2  A    between atoms: C_10  and  C_12
REMARK    3  A    between atoms: C_12  and  S_13
REMARK    4  A    between atoms: S_13  and  C_14
REMARK    5  A    between atoms: N_15  and  C_16
REMARK    6  A    between atoms: C_16  and  C_17
REMARK    7  A    between atoms: C_16  and  C_18
REMARK                            x       y       z     vdW  Elec       q    Type
REMARK                         _______ _______ _______ _____ _____    ______ ____
ROOT
ATOM      1  C   UNL     1      -3.101   4.163  -5.016  0.00  0.00    +0.064 C 
ATOM      2  C   UNL     1      -3.452   3.028  -4.089  0.00  0.00    +0.033 A 
ATOM      3  C   UNL     1      -4.619   2.401  -4.232  0.00  0.00    +0.070 A 
ATOM      4  S   UNL     1      -4.542   1.181  -2.931  0.00  0.00    -0.057 S 
ATOM      5  C   UNL     1      -2.937   1.618  -2.298  0.00  0.00    +0.180 A 
ATOM      6  N   UNL     1      -2.562   2.656  -3.109  0.00  0.00    -0.259 N 
ATOM      7  C   UNL     1      -1.341   3.215  -2.859  0.00  0.00    +0.259 A 
ATOM      8  O   UNL     1      -0.942   4.144  -3.543  0.00  0.00    -0.267 OA
ATOM      9  C   UNL     1      -0.550   2.722  -1.821  0.00  0.00    +0.095 A 
ATOM     10  C   UNL     1      -1.005   1.672  -1.052  0.00  0.00    +0.059 A 
ATOM     11  N   UNL     1      -2.197   1.147  -1.325  0.00  0.00    -0.227 NA
ENDROOT
BRANCH  10  12
ATOM     12  C   UNL     1      -0.166   1.125   0.074  0.00  0.00    +0.132 C 
BRANCH  12  13
ATOM     13  S   UNL     1      -0.846   1.677   1.657  0.00  0.00    -0.087 S 
BRANCH  13  14
ATOM     14  C   UNL     1       0.295   0.915   2.763  0.00  0.00    +0.126 C 
ATOM     15  N   UNL     1       1.278   0.197   2.293  0.00  0.00    -0.366 N 
ATOM     16  N   UNL     1       0.150   1.077   4.121  0.00  0.00    -0.339 N 
ATOM     17  H   UNL     1       0.862   0.602   4.811  0.00  0.00    +0.144 HD
ATOM     18  H   UNL     1      -0.679   1.683   4.517  0.00  0.00    +0.144 HD
ATOM     19  H   UNL     1       1.456   0.151   1.209  0.00  0.00    +0.162 HD
BRANCH  15  20
ATOM     20  C   UNL     1       2.143  -0.548   3.210  0.00  0.00    +0.075 C 
ATOM     21  C   UNL     1       2.193  -2.017   2.784  0.00  0.00    +0.030 C 
ATOM     22  C   UNL     1       3.555   0.042   3.172  0.00  0.00    +0.030 C 
ENDBRANCH  15  20
ENDBRANCH  13  14
ENDBRANCH  12  13
ENDBRANCH  10  12
TORSDOF 4
