REMARK  Name = ZINC06035376
REMARK  4 active torsions:
REMARK  status: ('A' for Active; 'I' for Inactive)
REMARK    1  A    between atoms: C_11  and  C_13
REMARK    2  A    between atoms: C_13  and  S_14
REMARK    3  A    between atoms: S_14  and  C_15
REMARK    4  A    between atoms: C_18  and  C_21
REMARK                            x       y       z     vdW  Elec       q    Type
REMARK                         _______ _______ _______ _____ _____    ______ ____
ROOT
ATOM      1  C   UNL     1       4.999  -2.586  -0.063  0.00  0.00    +0.151 C 
ENDROOT
BRANCH   1  12
ATOM      2  C   UNL     1      -0.017   1.373   0.010  0.00  0.00    +0.001 A 
ATOM      3  C   UNL     1       1.169   2.096   0.002  0.00  0.00    +0.002 A 
ATOM      4  C   UNL     1       2.387   1.453  -0.013  0.00  0.00    +0.028 A 
ATOM      5  C   UNL     1       2.432   0.058  -0.021  0.00  0.00    +0.078 A 
ATOM      6  C   UNL     1       1.224  -0.674  -0.013  0.00  0.00    +0.065 A 
ATOM      7  C   UNL     1       0.002  -0.004   0.002  0.00  0.00    +0.015 A 
ATOM      8  C   UNL     1       1.306  -2.142  -0.022  0.00  0.00    +0.259 A 
ATOM      9  O   UNL     1       0.302  -2.832  -0.017  0.00  0.00    -0.267 OA
ATOM     10  N   UNL     1       2.540  -2.697  -0.038  0.00  0.00    -0.310 N 
ATOM     11  H   UNL     1       2.633  -3.663  -0.045  0.00  0.00    +0.170 HD
ATOM     12  C   UNL     1       3.650  -1.914  -0.045  0.00  0.00    +0.121 A 
ATOM     13  N   UNL     1       3.609  -0.616  -0.037  0.00  0.00    -0.233 NA
ENDBRANCH   1  12
BRANCH   1  14
ATOM     14  S   UNL     1       6.303  -1.325  -0.070  0.00  0.00    -0.079 S 
BRANCH  14  15
ATOM     15  C   UNL     1       7.798  -2.258  -0.091  0.00  0.00    +0.185 A 
ATOM     16  N   UNL     1       7.889  -3.570  -0.100  0.00  0.00    -0.200 NA
ATOM     17  H   UNL     1       9.295  -0.811  -0.108  0.00  0.00    +0.191 HD
ATOM     18  C   UNL     1       9.182  -3.932  -0.115  0.00  0.00    +0.189 A 
ATOM     19  N   UNL     1       9.926  -2.847  -0.116  0.00  0.00    -0.151 NA
ATOM     20  N   UNL     1       9.050  -1.750  -0.107  0.00  0.00    -0.253 N 
BRANCH  18  21
ATOM     21  C   UNL     1       9.686  -5.321  -0.128  0.00  0.00    +0.058 A 
ATOM     22  C   UNL     1      10.980  -5.770  -0.139  0.00  0.00    +0.019 A 
ATOM     23  C   UNL     1      11.210  -7.128  -0.150  0.00  0.00    +0.008 A 
ATOM     24  C   UNL     1      10.151  -7.978  -0.151  0.00  0.00    +0.046 A 
ATOM     25  S   UNL     1       8.767  -6.852  -0.127  0.00  0.00    -0.093 S 
ENDBRANCH  18  21
ENDBRANCH  14  15
ENDBRANCH   1  14
TORSDOF 4
