REMARK  Name = ZINC12590480
REMARK  16 active torsions:
REMARK  status: ('A' for Active; 'I' for Inactive)
REMARK    1  A    between atoms: C_1  and  C_2
REMARK    2  A    between atoms: C_2  and  O_3
REMARK    3  A    between atoms: O_3  and  C_4
REMARK    4  A    between atoms: C_4  and  C_6
REMARK    5  A    between atoms: C_7  and  C_34
REMARK    6  A    between atoms: C_10  and  C_33
REMARK    7  A    between atoms: C_11  and  C_12
REMARK    8  A    between atoms: C_12  and  C_14
REMARK    9  A    between atoms: C_14  and  S_15
REMARK   10  A    between atoms: S_15  and  C_16
REMARK   11  A    between atoms: C_19  and  C_28
REMARK   12  A    between atoms: N_20  and  C_21
REMARK   13  A    between atoms: C_28  and  C_30
REMARK   14  A    between atoms: C_28  and  N_61
REMARK   15  A    between atoms: C_31  and  N_61
REMARK   16  A    between atoms: C_32  and  N_61
REMARK                            x       y       z     vdW  Elec       q    Type
REMARK                         _______ _______ _______ _____ _____    ______ ____
ROOT
ATOM      1  C   UNL     1       0.017  -0.018  -0.001  0.00  0.00    +0.196 A 
ATOM      2  N   UNL     1       1.085  -0.781  -0.025  0.00  0.00    -0.122 NA
ATOM      3  N   UNL     1       0.740  -2.019  -0.031  0.00  0.00    -0.135 NA
ATOM      4  C   UNL     1      -0.559  -2.122  -0.011  0.00  0.00    +0.125 A 
ATOM      5  N   UNL     1      -1.068  -0.851   0.014  0.00  0.00    -0.275 N 
ENDROOT
BRANCH   5   6
ATOM      6  C   UNL     1      -2.421  -0.479   0.046  0.00  0.00    +0.050 A 
ATOM      7  C   UNL     1      -3.204  -0.799   1.146  0.00  0.00    +0.028 A 
ATOM      8  C   UNL     1      -4.534  -0.429   1.177  0.00  0.00    +0.022 A 
ATOM      9  C   UNL     1      -5.089   0.252   0.108  0.00  0.00    +0.041 A 
ATOM     10  C   UNL     1      -4.311   0.568  -0.993  0.00  0.00    +0.022 A 
ATOM     11  C   UNL     1      -2.979   0.204  -1.026  0.00  0.00    +0.028 A 
ATOM     12 CL   UNL     1      -6.763   0.711   0.147  0.00  0.00    -0.084 Cl
ENDBRANCH   5   6
BRANCH   4  13
ATOM     13  C   UNL     1      -1.354  -3.402  -0.009  0.00  0.00    -0.003 C 
ATOM     14  C   UNL     1      -1.329  -4.020  -1.409  0.00  0.00    -0.005 C 
BRANCH  13  17
ATOM     15  C   UNL     1      -1.581  -5.559   1.068  0.00  0.00    -0.096 C 
ATOM     16  C   UNL     1       0.620  -4.673   0.585  0.00  0.00    -0.096 C 
ATOM     17  N   UNL     1      -0.763  -4.331   0.978  0.00  0.00    +0.382 N 
ATOM     18  H   UNL     1      -0.746  -3.873   1.897  0.00  0.00    -0.082 HD
ENDBRANCH  13  17
ENDBRANCH   4  13
BRANCH   1  19
ATOM     19  S   UNL     1      -0.013   1.743   0.017  0.00  0.00    -0.078 S 
BRANCH  19  20
ATOM     20  C   UNL     1       1.764   2.088  -0.009  0.00  0.00    +0.157 C 
BRANCH  20  21
ATOM     21  C   UNL     1       1.987   3.578   0.002  0.00  0.00    +0.176 C 
ATOM     22  O   UNL     1       1.040   4.334  -0.073  0.00  0.00    -0.291 OA
BRANCH  21  28
ATOM     23  C   UNL     1       4.228   4.521  -1.012  0.00  0.00    +0.090 A 
ATOM     24  C   UNL     1       5.383   4.955  -0.432  0.00  0.00    +0.028 A 
ATOM     25  N   UNL     1       5.267   4.836   0.912  0.00  0.00    -0.361 N 
ATOM     26  H   UNL     1       5.959   5.077   1.548  0.00  0.00    +0.165 HD
ATOM     27  C   UNL     1       4.061   4.338   1.246  0.00  0.00    +0.024 A 
ATOM     28  C   UNL     1       3.345   4.115   0.102  0.00  0.00    +0.053 A 
ATOM     29  C   UNL     1       3.580   4.070   2.649  0.00  0.00    +0.064 C 
ATOM     30  C   UNL     1       6.592   5.476  -1.166  0.00  0.00    +0.064 C 
BRANCH  23  31
ATOM     31  C   UNL     1       3.922   4.470  -2.449  0.00  0.00    +0.342 C 
ATOM     32  O   UNL     1       3.407   5.426  -2.995  0.00  0.00    -0.245 OA
BRANCH  31  33
ATOM     33  O   UNL     1       4.213   3.363  -3.161  0.00  0.00    -0.461 OA
BRANCH  33  35
ATOM     34  C   UNL     1       4.283   2.050  -5.211  0.00  0.00    +0.048 C 
ATOM     35  C   UNL     1       3.883   3.383  -4.575  0.00  0.00    +0.229 C 
ENDBRANCH  33  35
ENDBRANCH  31  33
ENDBRANCH  23  31
ENDBRANCH  21  28
ENDBRANCH  20  21
ENDBRANCH  19  20
ENDBRANCH   1  19
TORSDOF 10
