REMARK  Name = ZINC09086396
REMARK  4 active torsions:
REMARK  status: ('A' for Active; 'I' for Inactive)
REMARK    1  A    between atoms: C_1  and  C_2
REMARK    2  A    between atoms: C_16  and  O_17
REMARK    3  A    between atoms: C_24  and  O_25
REMARK    4  A    between atoms: N_26  and  C_27
REMARK                            x       y       z     vdW  Elec       q    Type
REMARK                         _______ _______ _______ _____ _____    ______ ____
ROOT
ATOM      1  C   UNL     1       1.776   3.059   1.516  0.00  0.00    +0.046 C 
ATOM      2  C   UNL     1       1.550   1.629   1.097  0.00  0.00    -0.021 A 
ATOM      3  C   UNL     1       1.630   1.279  -0.232  0.00  0.00    +0.005 A 
ATOM      4  C   UNL     1       1.423  -0.035  -0.625  0.00  0.00    +0.004 A 
ATOM      5  C   UNL     1       1.136  -1.009   0.312  0.00  0.00    +0.048 A 
ATOM      6  C   UNL     1       1.051  -0.677   1.656  0.00  0.00    +0.154 A 
ATOM      7  C   UNL     1       1.265   0.652   2.061  0.00  0.00    +0.110 A 
ATOM      8  N   UNL     1       1.192   0.997   3.365  0.00  0.00    -0.240 NA
ATOM      9  C   UNL     1       0.925   0.090   4.281  0.00  0.00    +0.118 A 
ATOM     10  C   UNL     1       0.705  -1.309   3.884  0.00  0.00    +0.156 A 
ATOM     11  O   UNL     1       0.768  -1.637   2.571  0.00  0.00    -0.452 OA
ATOM     12  C   UNL     1       0.430  -2.256   4.815  0.00  0.00    +0.074 A 
ATOM     13  C   UNL     1       0.344  -1.942   6.187  0.00  0.00    +0.055 A 
ATOM     14  C   UNL     1       0.554  -0.560   6.653  0.00  0.00    +0.053 A 
ATOM     15  C   UNL     1       0.844   0.456   5.705  0.00  0.00    +0.059 A 
ATOM     16  C   UNL     1       1.047   1.765   6.115  0.00  0.00    +0.135 A 
ATOM     17  C   UNL     1       0.964   2.088   7.486  0.00  0.00    +0.028 A 
ATOM     18  C   UNL     1       1.164   3.407   7.927  0.00  0.00    +0.012 A 
ATOM     19  C   UNL     1       1.078   3.695   9.256  0.00  0.00    +0.001 A 
ATOM     20  C   UNL     1       0.794   2.699  10.188  0.00  0.00    +0.001 A 
ATOM     21  C   UNL     1       0.594   1.410   9.796  0.00  0.00    +0.012 A 
ATOM     22  C   UNL     1       0.674   1.076   8.434  0.00  0.00    +0.028 A 
ATOM     23  C   UNL     1       0.469  -0.252   8.004  0.00  0.00    +0.134 A 
ATOM     24  N   UNL     1       0.073  -2.897   7.065  0.00  0.00    -0.354 N 
ATOM     25  H   UNL     1       0.550  -3.741   7.027  0.00  0.00    +0.166 HD
ENDROOT
BRANCH  24  26
ATOM     26  C   UNL     1      -0.876  -2.695   8.020  0.00  0.00    +0.040 A 
ATOM     27  C   UNL     1      -1.940  -1.817   7.780  0.00  0.00    +0.025 A 
ATOM     28  C   UNL     1      -2.897  -1.618   8.753  0.00  0.00    +0.002 A 
ATOM     29  C   UNL     1      -2.808  -2.283   9.964  0.00  0.00    +0.000 A 
ATOM     30  C   UNL     1      -1.758  -3.152  10.209  0.00  0.00    +0.002 A 
ATOM     31  C   UNL     1      -0.797  -3.367   9.245  0.00  0.00    +0.025 A 
ENDBRANCH  24  26
BRANCH  16  32
ATOM     32  O   UNL     1       1.324   2.730   5.203  0.00  0.00    -0.505 OA
ATOM     33  H   UNL     1       0.540   3.172   4.848  0.00  0.00    +0.292 HD
ENDBRANCH  16  32
BRANCH  23  34
ATOM     34  O   UNL     1       0.192  -1.225   8.907  0.00  0.00    -0.505 OA
ATOM     35  H   UNL     1       0.975  -1.608   9.326  0.00  0.00    +0.292 HD
ENDBRANCH  23  34
TORSDOF 3
