REMARK  Name = ZINC00971154
REMARK  9 active torsions:
REMARK  status: ('A' for Active; 'I' for Inactive)
REMARK    1  A    between atoms: C_1  and  C_2
REMARK    2  A    between atoms: C_2  and  C_3
REMARK    3  A    between atoms: C_2  and  C_4
REMARK    4  A    between atoms: N_6  and  C_7
REMARK    5  A    between atoms: C_7  and  C_9
REMARK    6  A    between atoms: C_7  and  N_13
REMARK    7  A    between atoms: N_13  and  C_14
REMARK    8  A    between atoms: C_17  and  S_20
REMARK    9  A    between atoms: S_20  and  N_23
REMARK                            x       y       z     vdW  Elec       q    Type
REMARK                         _______ _______ _______ _____ _____    ______ ____
ROOT
ATOM      1  N   UNL     1      -3.759  -1.793  -1.959  0.00  0.00    -0.323 N 
ATOM      2  H   UNL     1      -3.716  -1.581  -2.905  0.00  0.00    +0.148 HD
ENDROOT
BRANCH   1   3
ATOM      3  C   UNL     1      -3.724  -3.125  -1.540  0.00  0.00    +0.029 A 
ATOM      4  C   UNL     1      -3.676  -3.428  -0.186  0.00  0.00    +0.025 A 
ATOM      5  C   UNL     1      -3.642  -4.746   0.225  0.00  0.00    +0.030 A 
ATOM      6  C   UNL     1      -3.654  -5.764  -0.711  0.00  0.00    +0.105 A 
ATOM      7  C   UNL     1      -3.702  -5.466  -2.060  0.00  0.00    +0.030 A 
ATOM      8  C   UNL     1      -3.742  -4.150  -2.478  0.00  0.00    +0.025 A 
BRANCH   6   9
ATOM      9  S   UNL     1      -3.609  -7.444  -0.182  0.00  0.00    +0.056 S 
ATOM     10  O   UNL     1      -3.080  -8.196  -1.266  0.00  0.00    -0.153 OA
ATOM     11  O   UNL     1      -3.017  -7.448   1.109  0.00  0.00    -0.153 OA
BRANCH   9  12
ATOM     12  N   UNL     1      -5.178  -7.938   0.014  0.00  0.00    -0.204 NA
ATOM     13  H   UNL     1      -5.906  -7.322  -0.161  0.00  0.00    +0.144 HD
ATOM     14  H   UNL     1      -5.368  -8.844   0.305  0.00  0.00    +0.144 HD
ENDBRANCH   9  12
ENDBRANCH   6   9
ENDBRANCH   1   3
BRANCH   1  15
ATOM     15  C   UNL     1      -3.862  -0.717  -0.971  0.00  0.00    +0.210 C 
BRANCH  15  18
ATOM     16  C   UNL     1      -1.808  -0.307   0.275  0.00  0.00    +0.217 C 
ATOM     17  O   UNL     1      -2.213  -1.062   1.134  0.00  0.00    -0.275 OA
ATOM     18  N   UNL     1      -2.558  -0.067  -0.819  0.00  0.00    -0.293 N 
ATOM     19  H   UNL     1      -2.233   0.536  -1.506  0.00  0.00    +0.151 HD
BRANCH  16  21
ATOM     20  C   UNL     1      -0.651   1.880   0.435  0.00  0.00    +0.017 C 
ATOM     21  C   UNL     1      -0.467   0.361   0.431  0.00  0.00    +0.069 C 
ATOM     22  C   UNL     1       0.172  -0.079   1.750  0.00  0.00    +0.017 C 
ENDBRANCH  16  21
ENDBRANCH  15  18
BRANCH  15  23
ATOM     23  C   UNL     1      -4.892   0.311  -1.441  0.00  0.00    +0.225 C 
ATOM     24 CL   UNL     1      -4.375   0.999  -3.026  0.00  0.00    -0.080 Cl
ATOM     25 CL   UNL     1      -6.497  -0.488  -1.628  0.00  0.00    -0.080 Cl
ATOM     26 CL   UNL     1      -5.018   1.636  -0.224  0.00  0.00    -0.080 Cl
ENDBRANCH  15  23
ENDBRANCH   1  15
TORSDOF 7
