REMARK  Name = ZINC06501151
REMARK  15 active torsions:
REMARK  status: ('A' for Active; 'I' for Inactive)
REMARK    1  A    between atoms: C_1  and  C_2
REMARK    2  A    between atoms: C_2  and  C_3
REMARK    3  A    between atoms: C_3  and  C_4
REMARK    4  A    between atoms: C_4  and  C_6
REMARK    5  A    between atoms: C_4  and  N_14
REMARK    6  A    between atoms: N_8  and  C_9
REMARK    7  A    between atoms: C_9  and  C_10
REMARK    8  A    between atoms: C_10  and  C_11
REMARK    9  A    between atoms: C_11  and  C_12
REMARK   10  A    between atoms: C_11  and  C_13
REMARK   11  A    between atoms: N_14  and  C_15
REMARK   12  A    between atoms: C_15  and  C_16
REMARK   13  A    between atoms: C_23  and  C_25
REMARK   14  A    between atoms: C_26  and  N_33
REMARK   15  A    between atoms: C_27  and  C_30
REMARK                            x       y       z     vdW  Elec       q    Type
REMARK                         _______ _______ _______ _____ _____    ______ ____
ROOT
ATOM      1  N   UNL     1       1.661  -2.208   0.501  0.00  0.00    -0.281 N 
ATOM      2  C   UNL     1       1.608  -3.371   1.180  0.00  0.00    +0.257 C 
ATOM      3  O   UNL     1       0.637  -4.098   1.068  0.00  0.00    -0.269 OA
ENDROOT
BRANCH   2   4
ATOM      4  C   UNL     1       2.717  -3.761   2.052  0.00  0.00    +0.115 A 
ATOM      5  C   UNL     1       2.731  -4.667   3.114  0.00  0.00    +0.076 A 
ATOM      6  C   UNL     1       3.978  -4.788   3.724  0.00  0.00    +0.155 A 
ATOM      7  N   UNL     1       4.991  -4.077   3.274  0.00  0.00    -0.203 NA
ATOM      8  S   UNL     1       4.412  -3.213   2.036  0.00  0.00    +0.019 S 
BRANCH   6   9
ATOM      9  C   UNL     1       4.162  -5.705   4.864  0.00  0.00    +0.262 C 
ATOM     10  O   UNL     1       3.250  -6.428   5.215  0.00  0.00    -0.269 OA
ATOM     11  N   UNL     1       5.341  -5.742   5.516  0.00  0.00    -0.324 N 
ATOM     12  H   UNL     1       6.069  -5.165   5.235  0.00  0.00    +0.145 HD
ATOM     13  H   UNL     1       5.462  -6.345   6.266  0.00  0.00    +0.145 HD
ENDBRANCH   6   9
BRANCH   5  14
ATOM     14  N   UNL     1       1.611  -5.378   3.524  0.00  0.00    -0.355 N 
ATOM     15  H   UNL     1       0.794  -5.337   3.003  0.00  0.00    +0.142 HD
ATOM     16  H   UNL     1       1.646  -5.915   4.331  0.00  0.00    +0.142 HD
ENDBRANCH   5  14
ENDBRANCH   2   4
BRANCH   1  17
ATOM     17  C   UNL     1       0.591  -1.858  -0.436  0.00  0.00    +0.162 C 
BRANCH  17  18
ATOM     18  C   UNL     1       1.186  -1.561  -1.789  0.00  0.00    +0.234 C 
ATOM     19  O   UNL     1       2.385  -1.635  -1.953  0.00  0.00    -0.274 OA
ATOM     20  N   UNL     1       0.385  -1.213  -2.816  0.00  0.00    -0.314 N 
ATOM     21  H   UNL     1      -0.574  -1.155  -2.684  0.00  0.00    +0.149 HD
BRANCH  20  22
ATOM     22  C   UNL     1       0.964  -0.924  -4.130  0.00  0.00    +0.104 C 
BRANCH  22  23
ATOM     23  C   UNL     1      -0.153  -0.559  -5.110  0.00  0.00    +0.022 C 
BRANCH  23  24
ATOM     24  C   UNL     1       0.451  -0.257  -6.483  0.00  0.00    -0.016 C 
ATOM     25  C   UNL     1       1.087  -1.528  -7.050  0.00  0.00    +0.007 C 
ATOM     26  C   UNL     1      -0.649   0.229  -7.428  0.00  0.00    +0.007 C 
ENDBRANCH  23  24
ENDBRANCH  22  23
ENDBRANCH  20  22
ENDBRANCH  17  18
BRANCH  17  27
ATOM     27  C   UNL     1      -0.152  -0.623   0.076  0.00  0.00    +0.032 C 
BRANCH  27  29
ATOM     28  C   UNL     1      -1.631   0.264   1.885  0.00  0.00    +0.004 C 
ATOM     29  C   UNL     1      -0.887  -0.971   1.372  0.00  0.00    -0.001 C 
ENDBRANCH  27  29
ENDBRANCH  17  27
ENDBRANCH   1  17
BRANCH   1  30
ATOM     30  C   UNL     1       2.788  -1.294   0.702  0.00  0.00    +0.144 C 
BRANCH  30  31
ATOM     31  C   UNL     1       2.541  -0.453   1.927  0.00  0.00    -0.030 A 
ATOM     32  C   UNL     1       2.002   0.813   1.799  0.00  0.00    +0.008 A 
ATOM     33  C   UNL     1       1.776   1.585   2.923  0.00  0.00    +0.038 A 
ATOM     34  C   UNL     1       2.088   1.089   4.177  0.00  0.00    +0.123 A 
ATOM     35  C   UNL     1       2.628  -0.179   4.305  0.00  0.00    +0.038 A 
ATOM     36  C   UNL     1       2.849  -0.951   3.180  0.00  0.00    +0.008 A 
ATOM     37  F   UNL     1       1.867   1.843   5.277  0.00  0.00    -0.205 F 
ENDBRANCH  30  31
ENDBRANCH   1  30
TORSDOF 12
