REMARK  Name = ZINC09087314
REMARK  6 active torsions:
REMARK  status: ('A' for Active; 'I' for Inactive)
REMARK    1  A    between atoms: C_1  and  C_2
REMARK    2  A    between atoms: C_2  and  C_3
REMARK    3  A    between atoms: C_2  and  C_4
REMARK    4  A    between atoms: C_2  and  N_5
REMARK    5  A    between atoms: C_22  and  N_53
REMARK    6  A    between atoms: C_23  and  O_27
REMARK                            x       y       z     vdW  Elec       q    Type
REMARK                         _______ _______ _______ _____ _____    ______ ____
ROOT
ATOM      1  N   UNL     1      -3.122   4.951   1.038  0.00  0.00    -0.218 N 
ATOM      2  C   UNL     1      -2.449   4.284   0.087  0.00  0.00    +0.240 C 
ATOM      3  O   UNL     1      -2.863   4.298  -1.052  0.00  0.00    -0.274 OA
ATOM      4  C   UNL     1      -1.194   3.522   0.405  0.00  0.00    +0.141 C 
ATOM      5  C   UNL     1      -1.384   2.048   0.038  0.00  0.00    +0.064 C 
ATOM      6  C   UNL     1      -0.050   1.346   0.028  0.00  0.00    -0.025 A 
ATOM      7  C   UNL     1      -0.039  -0.040   0.041  0.00  0.00    +0.005 A 
ATOM      8  C   UNL     1       1.155  -0.732   0.016  0.00  0.00    +0.000 A 
ATOM      9  C   UNL     1       2.353  -0.040  -0.022  0.00  0.00    +0.002 A 
ATOM     10  C   UNL     1       2.350   1.338  -0.031  0.00  0.00    +0.023 A 
ATOM     11  C   UNL     1       1.146   2.044  -0.002  0.00  0.00    +0.033 A 
ATOM     12  N   UNL     1       1.207   3.434   0.007  0.00  0.00    -0.329 N 
ATOM     13  C   UNL     1      -0.035   4.071  -0.434  0.00  0.00    +0.081 C 
ATOM     14  C   UNL     1       0.071   5.585  -0.237  0.00  0.00    -0.055 C 
ATOM     15  C   UNL     1       2.469   5.450  -0.558  0.00  0.00    -0.060 C 
ATOM     16  C   UNL     1       2.359   3.935  -0.754  0.00  0.00    +0.087 C 
ATOM     17  C   UNL     1       1.319   7.554  -0.893  0.00  0.00    -0.096 C 
ATOM     18  C   UNL     1      -0.858   3.639   1.864  0.00  0.00    +0.198 C 
ATOM     19  N   UNL     1      -1.590   4.318   2.694  0.00  0.00    -0.131 NA
ATOM     20  C   UNL     1      -2.700   4.966   2.313  0.00  0.00    +0.335 C 
ATOM     21  O   UNL     1      -3.340   5.584   3.142  0.00  0.00    -0.250 OA
ATOM     22  N   UNL     1       1.218   6.086  -1.025  0.00  0.00    +0.380 N 
ATOM     23  H   UNL     1       1.073   5.849  -2.013  0.00  0.00    -0.082 HD
ENDROOT
BRANCH   1  25
ATOM     24  C   UNL     1      -4.531   5.638  -0.839  0.00  0.00    +0.032 C 
ATOM     25  C   UNL     1      -4.343   5.677   0.679  0.00  0.00    +0.038 C 
ATOM     26  C   UNL     1      -5.546   5.021   1.359  0.00  0.00    +0.032 C 
ATOM     27  C   UNL     1      -4.226   7.131   1.140  0.00  0.00    +0.032 C 
ENDBRANCH   1  25
BRANCH  18  28
ATOM     28  O   UNL     1       0.239   3.018   2.327  0.00  0.00    -0.496 OA
ATOM     29  H   UNL     1       0.430   3.110   3.270  0.00  0.00    +0.293 HD
ENDBRANCH  18  28
TORSDOF 2
