REMARK  Name = ZINC11859808
REMARK  7 active torsions:
REMARK  status: ('A' for Active; 'I' for Inactive)
REMARK    1  A    between atoms: C_1  and  C_2
REMARK    2  A    between atoms: C_2  and  N_3
REMARK    3  A    between atoms: C_7  and  C_8
REMARK    4  A    between atoms: C_11  and  O_15
REMARK    5  A    between atoms: C_13  and  O_14
REMARK    6  A    between atoms: N_18  and  S_19
REMARK    7  A    between atoms: S_19  and  C_22
REMARK                            x       y       z     vdW  Elec       q    Type
REMARK                         _______ _______ _______ _____ _____    ______ ____
ROOT
ATOM      1  N   UNL     1       0.807  -0.130   1.262  0.00  0.00    -0.245 N 
ATOM      2  C   UNL     1       2.086  -0.460   1.185  0.00  0.00    +0.259 C 
ATOM      3  O   UNL     1       2.724  -0.296   0.161  0.00  0.00    -0.269 OA
ATOM      4  C   UNL     1       2.703  -1.035   2.393  0.00  0.00    +0.078 C 
ATOM      5  C   UNL     1       3.979  -1.456   2.591  0.00  0.00    +0.032 C 
ATOM      6  S   UNL     1       1.323  -1.029   3.528  0.00  0.00    -0.047 S 
ATOM      7  C   UNL     1       0.104  -0.318   2.434  0.00  0.00    +0.189 C 
ATOM      8  N   UNL     1      -1.148  -0.046   2.682  0.00  0.00    -0.105 NA
ENDROOT
BRANCH   5   9
ATOM      9  C   UNL     1       4.428  -1.831   3.936  0.00  0.00    +0.018 A 
ATOM     10  C   UNL     1       3.702  -1.417   5.060  0.00  0.00    +0.015 A 
ATOM     11  C   UNL     1       4.126  -1.773   6.320  0.00  0.00    +0.046 A 
ATOM     12  C   UNL     1       5.275  -2.541   6.482  0.00  0.00    +0.120 A 
ATOM     13  C   UNL     1       6.002  -2.957   5.375  0.00  0.00    +0.091 A 
ATOM     14  C   UNL     1       5.584  -2.612   4.102  0.00  0.00    +0.127 A 
BRANCH  14  15
ATOM     15  O   UNL     1       6.291  -3.022   3.019  0.00  0.00    -0.506 OA
ATOM     16  H   UNL     1       6.986  -2.407   2.747  0.00  0.00    +0.292 HD
ENDBRANCH  14  15
BRANCH  12  17
ATOM     17  O   UNL     1       5.686  -2.887   7.729  0.00  0.00    -0.507 OA
ATOM     18  H   UNL     1       5.319  -3.723   8.047  0.00  0.00    +0.292 HD
ENDBRANCH  12  17
ENDBRANCH   5   9
BRANCH   8  19
ATOM     19  S   UNL     1      -1.784  -0.361   4.178  0.00  0.00    +0.101 S 
ATOM     20  O   UNL     1      -1.774  -1.774   4.335  0.00  0.00    -0.146 OA
ATOM     21  O   UNL     1      -1.128   0.510   5.090  0.00  0.00    -0.146 OA
BRANCH  19  22
ATOM     22  C   UNL     1      -3.475   0.130   4.140  0.00  0.00    +0.113 A 
ATOM     23  C   UNL     1      -3.828   1.422   4.482  0.00  0.00    +0.030 A 
ATOM     24  C   UNL     1      -5.154   1.808   4.452  0.00  0.00    +0.017 A 
ATOM     25  C   UNL     1      -6.130   0.901   4.079  0.00  0.00    +0.018 A 
ATOM     26  C   UNL     1      -5.777  -0.392   3.736  0.00  0.00    +0.017 A 
ATOM     27  C   UNL     1      -4.449  -0.775   3.762  0.00  0.00    +0.030 A 
ATOM     28 BR   UNL     1      -7.945   1.429   4.038  0.00  0.00    -0.050 Br
ENDBRANCH  19  22
ENDBRANCH   8  19
BRANCH   1  30
ATOM     29  C   UNL     1       0.274   1.970   0.127  0.00  0.00    +0.025 C 
ATOM     30  C   UNL     1       0.135   0.446   0.095  0.00  0.00    +0.112 C 
ENDBRANCH   1  30
TORSDOF 6
