REMARK  Name = ZINC39710286
REMARK  9 active torsions:
REMARK  status: ('A' for Active; 'I' for Inactive)
REMARK    1  A    between atoms: C_1  and  C_2
REMARK    2  A    between atoms: C_9  and  C_14
REMARK    3  A    between atoms: C_14  and  C_16
REMARK    4  A    between atoms: C_14  and  N_27
REMARK    5  A    between atoms: N_21  and  C_22
REMARK    6  A    between atoms: N_27  and  C_28
REMARK    7  A    between atoms: N_27  and  C_36
REMARK    8  A    between atoms: C_28  and  C_29
REMARK    9  A    between atoms: C_36  and  C_37
REMARK                            x       y       z     vdW  Elec       q    Type
REMARK                         _______ _______ _______ _____ _____    ______ ____
ROOT
ATOM      1  C   UNL     1      -0.718  -5.233   3.169  0.00  0.00    -0.008 C 
ENDROOT
BRANCH   1  10
ATOM      2  C   UNL     1       1.607   1.310   1.498  0.00  0.00    +0.044 C 
ATOM      3  C   UNL     1       1.279  -0.126   1.176  0.00  0.00    -0.050 A 
ATOM      4  C   UNL     1       1.023  -0.487  -0.147  0.00  0.00    +0.005 A 
ATOM      5  C   UNL     1       0.722  -1.760  -0.514  0.00  0.00    +0.024 A 
ATOM      6  C   UNL     1       0.655  -2.784   0.449  0.00  0.00    +0.040 A 
ATOM      7  N   UNL     1       0.359  -4.029   0.078  0.00  0.00    -0.285 N 
ATOM      8  C   UNL     1       0.280  -5.037   0.930  0.00  0.00    +0.223 C 
ATOM      9  O   UNL     1       0.005  -6.154   0.531  0.00  0.00    -0.275 OA
ATOM     10  C   UNL     1       0.532  -4.798   2.401  0.00  0.00    +0.088 C 
ATOM     11  C   UNL     1       0.870  -3.383   2.829  0.00  0.00    -0.006 C 
ATOM     12  C   UNL     1       0.921  -2.431   1.854  0.00  0.00    -0.007 A 
ATOM     13  C   UNL     1       1.245  -1.041   2.179  0.00  0.00    +0.012 A 
ATOM     14  H   UNL     1       0.194  -4.204  -0.862  0.00  0.00    +0.155 HD
ENDBRANCH   1  10
BRANCH   1  15
ATOM     15  C   UNL     1      -1.942  -4.515   2.599  0.00  0.00    +0.205 C 
ATOM     16  N   UNL     1      -2.108  -4.834   1.175  0.00  0.00    -0.152 NA
ATOM     17  N   UNL     1      -2.024  -3.793   0.520  0.00  0.00    -0.070 NA
ATOM     18  N   UNL     1      -1.804  -2.669   1.315  0.00  0.00    -0.179 N 
ATOM     19  N   UNL     1      -1.743  -3.051   2.633  0.00  0.00    -0.185 NA
ATOM     20  H   UNL     1      -1.708  -1.760   0.990  0.00  0.00    +0.191 HD
BRANCH  19  21
ATOM     21  C   UNL     1      -2.794  -2.394   3.422  0.00  0.00    +0.080 C 
ATOM     22  C   UNL     1      -4.152  -2.517   2.700  0.00  0.00    +0.021 C 
ATOM     23  C   UNL     1      -4.854  -1.165   2.978  0.00  0.00    +0.002 C 
ATOM     24  C   UNL     1      -3.685  -0.151   2.897  0.00  0.00    +0.002 C 
ATOM     25  C   UNL     1      -2.498  -0.890   3.547  0.00  0.00    +0.021 C 
ENDBRANCH  19  21
ENDBRANCH   1  15
BRANCH   1  26
ATOM     26  N   UNL     1      -0.894  -6.685   3.032  0.00  0.00    +0.392 N 
ATOM     27  H   UNL     1      -0.895  -6.934   2.054  0.00  0.00    -0.080 HD
BRANCH  26  28
ATOM     28  C   UNL     1       0.207  -7.379   3.713  0.00  0.00    -0.040 C 
BRANCH  28  29
ATOM     29  C   UNL     1       0.066  -8.866   3.512  0.00  0.00    -0.046 A 
ATOM     30  C   UNL     1      -0.483  -9.649   4.510  0.00  0.00    +0.003 A 
ATOM     31  C   UNL     1      -0.613 -11.013   4.325  0.00  0.00    +0.000 A 
ATOM     32  C   UNL     1      -0.195 -11.594   3.143  0.00  0.00    +0.001 A 
ATOM     33  C   UNL     1       0.353 -10.812   2.144  0.00  0.00    +0.020 A 
ATOM     34  C   UNL     1       0.478  -9.446   2.326  0.00  0.00    +0.042 A 
ATOM     35 CL   UNL     1       1.161  -8.462   1.069  0.00  0.00    -0.083 Cl
ENDBRANCH  28  29
ENDBRANCH  26  28
BRANCH  26  36
ATOM     36  C   UNL     1      -2.172  -7.082   3.639  0.00  0.00    -0.002 C 
BRANCH  36  37
ATOM     37  C   UNL     1      -3.273  -6.962   2.617  0.00  0.00    +0.089 A 
ATOM     38  C   UNL     1      -3.591  -7.885   1.692  0.00  0.00    +0.042 A 
ATOM     39  C   UNL     1      -4.676  -7.363   0.950  0.00  0.00    +0.041 A 
ATOM     40  C   UNL     1      -4.955  -6.153   1.466  0.00  0.00    +0.195 A 
ATOM     41  O   UNL     1      -4.106  -5.918   2.480  0.00  0.00    -0.470 OA
ENDBRANCH  36  37
ENDBRANCH  26  36
ENDBRANCH   1  26
TORSDOF 8
