REMARK  Name = ZINC39152842
REMARK  9 active torsions:
REMARK  status: ('A' for Active; 'I' for Inactive)
REMARK    1  A    between atoms: C_1  and  O_2
REMARK    2  A    between atoms: O_2  and  C_3
REMARK    3  A    between atoms: C_8  and  S_13
REMARK    4  A    between atoms: S_13  and  C_14
REMARK    5  A    between atoms: C_14  and  C_15
REMARK    6  A    between atoms: N_17  and  C_18
REMARK    7  A    between atoms: C_20  and  C_39
REMARK    8  A    between atoms: C_22  and  C_33
REMARK    9  A    between atoms: C_24  and  C_27
REMARK                            x       y       z     vdW  Elec       q    Type
REMARK                         _______ _______ _______ _____ _____    ______ ____
ROOT
ATOM      1  C   UNL     1       5.112  -6.427  -9.608  0.00  0.00    +0.224 C 
ATOM      2  C   UNL     1       5.403  -5.489 -10.807  0.00  0.00    +0.149 C 
ATOM      3  C   UNL     1       6.749  -4.844 -10.395  0.00  0.00    +0.073 C 
ATOM      4  C   UNL     1       7.333  -5.821  -9.356  0.00  0.00    +0.159 C 
ATOM      5  O   UNL     1       6.417  -6.928  -9.244  0.00  0.00    -0.349 OA
ENDROOT
BRANCH   4   6
ATOM      6  C   UNL     1       8.681  -6.312  -9.816  0.00  0.00    -0.018 A 
ATOM      7  C   UNL     1       8.818  -7.598 -10.304  0.00  0.00    +0.006 A 
ATOM      8  C   UNL     1      10.055  -8.049 -10.726  0.00  0.00    +0.000 A 
ATOM      9  C   UNL     1      11.155  -7.214 -10.660  0.00  0.00    +0.000 A 
ATOM     10  C   UNL     1      11.017  -5.928 -10.172  0.00  0.00    +0.000 A 
ATOM     11  C   UNL     1       9.780  -5.475  -9.755  0.00  0.00    +0.006 A 
ENDBRANCH   4   6
BRANCH   3  12
ATOM     12  C   UNL     1       7.664  -4.728 -11.587  0.00  0.00    -0.040 A 
ATOM     13  C   UNL     1       8.029  -5.861 -12.291  0.00  0.00    +0.004 A 
ATOM     14  C   UNL     1       8.869  -5.754 -13.384  0.00  0.00    +0.000 A 
ATOM     15  C   UNL     1       9.343  -4.516 -13.773  0.00  0.00    +0.000 A 
ATOM     16  C   UNL     1       8.977  -3.383 -13.070  0.00  0.00    +0.000 A 
ATOM     17  C   UNL     1       8.134  -3.489 -11.979  0.00  0.00    +0.004 A 
ENDBRANCH   3  12
BRANCH   1  20
ATOM     18  C   UNL     1       3.621  -6.273  -7.687  0.00  0.00    +0.225 C 
ATOM     19  O   UNL     1       3.305  -7.428  -7.877  0.00  0.00    -0.275 OA
ATOM     20  N   UNL     1       4.519  -5.678  -8.498  0.00  0.00    -0.288 N 
ATOM     21  H   UNL     1       4.772  -4.754  -8.346  0.00  0.00    +0.151 HD
BRANCH  18  22
ATOM     22  C   UNL     1       3.011  -5.502  -6.545  0.00  0.00    +0.173 C 
BRANCH  22  23
ATOM     23  S   UNL     1       1.851  -6.570  -5.647  0.00  0.00    -0.079 S 
BRANCH  23  29
ATOM     24  C   UNL     1      -0.712  -3.369  -0.873  0.00  0.00    +0.122 A 
ATOM     25  C   UNL     1       0.095  -2.345  -1.356  0.00  0.00    +0.048 A 
ATOM     26  C   UNL     1       0.900  -2.550  -2.454  0.00  0.00    +0.033 A 
ATOM     27  C   UNL     1       0.907  -3.795  -3.088  0.00  0.00    +0.090 A 
ATOM     28  N   UNL     1       1.577  -4.290  -4.164  0.00  0.00    -0.222 NA
ATOM     29  C   UNL     1       1.230  -5.537  -4.361  0.00  0.00    +0.168 A 
ATOM     30  H   UNL     1      -0.101  -6.792  -3.343  0.00  0.00    +0.168 HD
ATOM     31  N   UNL     1       0.315  -5.919  -3.420  0.00  0.00    -0.333 N 
ATOM     32  C   UNL     1       0.092  -4.827  -2.597  0.00  0.00    +0.070 A 
ATOM     33  C   UNL     1      -0.710  -4.609  -1.487  0.00  0.00    +0.073 A 
BRANCH  24  35
ATOM     34  C   UNL     1      -1.457  -1.851   0.799  0.00  0.00    +0.277 C 
ATOM     35  O   UNL     1      -1.502  -3.153   0.213  0.00  0.00    -0.495 OA
ENDBRANCH  24  35
ENDBRANCH  23  29
ENDBRANCH  22  23
ENDBRANCH  18  22
ENDBRANCH   1  20
BRANCH   2  36
ATOM     36  C   UNL     1       5.547  -6.258 -12.053  0.00  0.00    +0.071 C 
ATOM     37  N   UNL     1       5.658  -6.851 -13.016  0.00  0.00    -0.196 NA
ENDBRANCH   2  36
TORSDOF 8
