REMARK  Name = ZINC13038862
REMARK  12 active torsions:
REMARK  status: ('A' for Active; 'I' for Inactive)
REMARK    1  A    between atoms: C_1  and  C_2
REMARK    2  A    between atoms: N_11  and  C_12
REMARK    3  A    between atoms: C_12  and  C_13
REMARK    4  A    between atoms: N_15  and  C_16
REMARK    5  A    between atoms: N_15  and  C_21
REMARK    6  A    between atoms: C_16  and  C_17
REMARK    7  A    between atoms: C_17  and  C_18
REMARK    8  A    between atoms: C_18  and  C_19
REMARK    9  A    between atoms: C_18  and  C_20
REMARK   10  A    between atoms: C_22  and  N_37
REMARK   11  A    between atoms: N_23  and  C_30
REMARK   12  A    between atoms: C_30  and  C_31
REMARK                            x       y       z     vdW  Elec       q    Type
REMARK                         _______ _______ _______ _____ _____    ______ ____
ROOT
ATOM      1  C   UNL     1      -1.486  -0.505   0.064  0.00  0.00    +0.237 C 
ATOM      2  O   UNL     1      -2.481   0.187   0.008  0.00  0.00    -0.274 OA
ATOM      3  N   UNL     1      -1.574  -1.780   0.498  0.00  0.00    -0.263 N 
ENDROOT
BRANCH   3   4
ATOM      4  C   UNL     1      -2.836  -2.342   0.782  0.00  0.00    +0.140 A 
ATOM      5  C   UNL     1      -3.619  -1.833   1.798  0.00  0.00    +0.128 A 
ATOM      6  N   UNL     1      -4.845  -2.403   2.051  0.00  0.00    -0.276 N 
ATOM      7  C   UNL     1      -5.276  -3.445   1.317  0.00  0.00    +0.331 A 
ATOM      8  O   UNL     1      -6.363  -3.935   1.556  0.00  0.00    -0.246 OA
ATOM      9  N   UNL     1      -4.526  -3.955   0.323  0.00  0.00    -0.273 N 
ATOM     10  H   UNL     1      -4.868  -4.733  -0.204  0.00  0.00    +0.173 HD
ATOM     11  C   UNL     1      -3.321  -3.429   0.030  0.00  0.00    +0.277 A 
ATOM     12  O   UNL     1      -2.652  -3.896  -0.876  0.00  0.00    -0.266 OA
BRANCH   5  13
ATOM     13  N   UNL     1      -3.179  -0.769   2.548  0.00  0.00    -0.343 N 
ATOM     14  H   UNL     1      -2.333  -0.343   2.336  0.00  0.00    +0.144 HD
ATOM     15  H   UNL     1      -3.714  -0.444   3.289  0.00  0.00    +0.144 HD
ENDBRANCH   5  13
BRANCH   6  16
ATOM     16  C   UNL     1      -5.687  -1.873   3.126  0.00  0.00    +0.163 C 
BRANCH  16  17
ATOM     17  C   UNL     1      -6.582  -0.793   2.576  0.00  0.00    -0.028 A 
ATOM     18  C   UNL     1      -6.160   0.524   2.579  0.00  0.00    +0.005 A 
ATOM     19  C   UNL     1      -6.979   1.514   2.070  0.00  0.00    +0.000 A 
ATOM     20  C   UNL     1      -8.226   1.189   1.568  0.00  0.00    +0.000 A 
ATOM     21  C   UNL     1      -8.651  -0.126   1.571  0.00  0.00    +0.000 A 
ATOM     22  C   UNL     1      -7.829  -1.117   2.075  0.00  0.00    +0.005 A 
ENDBRANCH  16  17
ENDBRANCH   6  16
ENDBRANCH   3   4
BRANCH   1  23
ATOM     23  C   UNL     1      -0.151   0.059  -0.353  0.00  0.00    +0.201 C 
BRANCH  23  33
ATOM     24  C   UNL     1       0.529   2.827   1.223  0.00  0.00    +0.028 C 
ATOM     25  C   UNL     1      -0.701   2.263   0.507  0.00  0.00    +0.075 C 
ATOM     26  C   UNL     1      -1.549   3.402  -0.103  0.00  0.00    +0.059 C 
ATOM     27  C   UNL     1      -2.055   2.789  -1.394  0.00  0.00    -0.025 A 
ATOM     28  C   UNL     1      -3.076   3.160  -2.245  0.00  0.00    +0.005 A 
ATOM     29  C   UNL     1      -3.341   2.411  -3.377  0.00  0.00    +0.000 A 
ATOM     30  C   UNL     1      -2.581   1.289  -3.655  0.00  0.00    +0.002 A 
ATOM     31  C   UNL     1      -1.557   0.916  -2.809  0.00  0.00    +0.023 A 
ATOM     32  C   UNL     1      -1.282   1.667  -1.667  0.00  0.00    +0.034 A 
ATOM     33  N   UNL     1      -0.303   1.482  -0.683  0.00  0.00    -0.318 N 
ENDBRANCH  23  33
ENDBRANCH   1  23
BRANCH   3  34
ATOM     34  C   UNL     1      -0.359  -2.579   0.674  0.00  0.00    +0.114 C 
BRANCH  34  35
ATOM     35  C   UNL     1       0.231  -2.311   2.061  0.00  0.00    +0.022 C 
BRANCH  35  36
ATOM     36  C   UNL     1       1.500  -3.146   2.245  0.00  0.00    -0.016 C 
ATOM     37  C   UNL     1       2.158  -2.786   3.579  0.00  0.00    +0.007 C 
ATOM     38  C   UNL     1       1.137  -4.632   2.240  0.00  0.00    +0.007 C 
ENDBRANCH  35  36
ENDBRANCH  34  35
ENDBRANCH   3  34
TORSDOF 9
