REMARK  Name = ZINC13065139
REMARK  13 active torsions:
REMARK  status: ('A' for Active; 'I' for Inactive)
REMARK    1  A    between atoms: C_1  and  C_2
REMARK    2  A    between atoms: C_2  and  C_3
REMARK    3  A    between atoms: C_3  and  C_5
REMARK    4  A    between atoms: C_3  and  N_72
REMARK    5  A    between atoms: N_9  and  C_10
REMARK    6  A    between atoms: C_10  and  C_11
REMARK    7  A    between atoms: C_11  and  C_12
REMARK    8  A    between atoms: C_18  and  C_19
REMARK    9  A    between atoms: C_18  and  N_72
REMARK   10  A    between atoms: C_26  and  C_27
REMARK   11  A    between atoms: C_26  and  N_72
REMARK   12  A    between atoms: C_32  and  C_40
REMARK   13  A    between atoms: C_33  and  C_39
REMARK                            x       y       z     vdW  Elec       q    Type
REMARK                         _______ _______ _______ _____ _____    ______ ____
ROOT
ATOM      1  N   UNL     1       1.344  -2.525  -1.311  0.00  0.00    +0.392 N 
ATOM      2  H   UNL     1       2.096  -2.204  -1.932  0.00  0.00    -0.080 HD
ENDROOT
BRANCH   1   3
ATOM      3  C   UNL     1       1.281  -4.001  -1.357  0.00  0.00    +0.003 C 
BRANCH   3   4
ATOM      4  C   UNL     1       2.493  -4.569  -0.665  0.00  0.00    +0.138 A 
ATOM      5  N   UNL     1       3.732  -4.162  -0.796  0.00  0.00    -0.115 NA
ATOM      6  N   UNL     1       4.474  -4.896  -0.041  0.00  0.00    -0.023 NA
ATOM      7  N   UNL     1       3.742  -5.766   0.563  0.00  0.00    -0.044 NA
ATOM      8  N   UNL     1       2.514  -5.597   0.204  0.00  0.00    -0.231 N 
BRANCH   8   9
ATOM      9  C   UNL     1       1.359  -6.376   0.658  0.00  0.00    +0.152 C 
BRANCH   9  10
ATOM     10  C   UNL     1       1.149  -7.568  -0.277  0.00  0.00    +0.058 C 
BRANCH  10  11
ATOM     11  C   UNL     1      -0.038  -8.370   0.190  0.00  0.00    -0.046 A 
ATOM     12  C   UNL     1       0.137  -9.407   1.087  0.00  0.00    +0.004 A 
ATOM     13  C   UNL     1      -0.953 -10.139   1.520  0.00  0.00    +0.000 A 
ATOM     14  C   UNL     1      -2.217  -9.841   1.047  0.00  0.00    +0.000 A 
ATOM     15  C   UNL     1      -2.392  -8.807   0.145  0.00  0.00    +0.000 A 
ATOM     16  C   UNL     1      -1.303  -8.072  -0.283  0.00  0.00    +0.004 A 
ENDBRANCH  10  11
ENDBRANCH   9  10
ENDBRANCH   8   9
ENDBRANCH   3   4
BRANCH   3  18
ATOM     17  C   UNL     1       2.571  -4.002  -3.497  0.00  0.00    +0.002 C 
ATOM     18  C   UNL     1       1.274  -4.448  -2.821  0.00  0.00    -0.011 C 
ENDBRANCH   3  18
ENDBRANCH   1   3
BRANCH   1  19
ATOM     19  C   UNL     1       1.635  -2.075   0.067  0.00  0.00    -0.042 C 
BRANCH  19  20
ATOM     20  C   UNL     1       2.134  -0.654   0.016  0.00  0.00    -0.064 A 
ATOM     21  C   UNL     1       1.233   0.394  -0.002  0.00  0.00    +0.004 A 
ATOM     22  C   UNL     1       1.690   1.698  -0.049  0.00  0.00    +0.038 A 
ATOM     23  C   UNL     1       3.050   1.953  -0.079  0.00  0.00    +0.123 A 
ATOM     24  C   UNL     1       3.952   0.902  -0.061  0.00  0.00    +0.038 A 
ATOM     25  C   UNL     1       3.493  -0.400  -0.014  0.00  0.00    +0.004 A 
ATOM     26  F   UNL     1       3.498   3.227  -0.125  0.00  0.00    -0.205 F 
ENDBRANCH  19  20
ENDBRANCH   1  19
BRANCH   1  27
ATOM     27  C   UNL     1       0.063  -1.950  -1.770  0.00  0.00    -0.036 C 
BRANCH  27  28
ATOM     28  C   UNL     1      -1.073  -2.432  -0.905  0.00  0.00    +0.001 A 
ATOM     29  C   UNL     1      -1.478  -1.688   0.154  0.00  0.00    +0.017 A 
ATOM     30  C   UNL     1      -2.587  -2.182   0.973  0.00  0.00    -0.001 A 
ATOM     31  C   UNL     1      -3.052  -1.457   2.075  0.00  0.00    +0.010 A 
ATOM     32  C   UNL     1      -4.086  -1.948   2.821  0.00  0.00    +0.004 A 
ATOM     33  C   UNL     1      -4.679  -3.160   2.495  0.00  0.00    -0.046 A 
ATOM     34  C   UNL     1      -4.238  -3.891   1.413  0.00  0.00    -0.024 A 
ATOM     35  C   UNL     1      -3.186  -3.411   0.639  0.00  0.00    +0.052 A 
ATOM     36  N   UNL     1      -2.725  -4.122  -0.449  0.00  0.00    -0.322 N 
ATOM     37  H   UNL     1      -3.139  -4.968  -0.678  0.00  0.00    +0.169 HD
ATOM     38  C   UNL     1      -1.708  -3.658  -1.197  0.00  0.00    +0.251 A 
ATOM     39  O   UNL     1      -1.326  -4.312  -2.152  0.00  0.00    -0.268 OA
ATOM     40  C   UNL     1      -4.892  -5.204   1.070  0.00  0.00    +0.046 C 
ATOM     41  C   UNL     1      -5.819  -3.681   3.332  0.00  0.00    +0.044 C 
ENDBRANCH  27  28
ENDBRANCH   1  27
TORSDOF 10
