REMARK  Name = ZINC10022062
REMARK  10 active torsions:
REMARK  status: ('A' for Active; 'I' for Inactive)
REMARK    1  A    between atoms: C_1  and  C_2
REMARK    2  A    between atoms: C_9  and  N_18
REMARK    3  A    between atoms: C_10  and  C_11
REMARK    4  A    between atoms: C_14  and  O_16
REMARK    5  A    between atoms: O_16  and  C_17
REMARK    6  A    between atoms: C_19  and  C_21
REMARK    7  A    between atoms: C_21  and  C_22
REMARK    8  A    between atoms: C_22  and  C_23
REMARK    9  A    between atoms: C_23  and  S_24
REMARK   10  A    between atoms: S_24  and  C_27
REMARK                            x       y       z     vdW  Elec       q    Type
REMARK                         _______ _______ _______ _____ _____    ______ ____
ROOT
ATOM      1  C   UNL     1       9.100   5.671  -0.154  0.00  0.00    +0.008 C 
ATOM      2  C   UNL     1       7.594   5.618  -0.422  0.00  0.00    -0.009 C 
ATOM      3  C   UNL     1       6.881   6.674   0.427  0.00  0.00    +0.008 C 
ATOM      4  C   UNL     1       5.422   6.798  -0.014  0.00  0.00    +0.037 C 
ATOM      5  C   UNL     1       4.791   5.410  -0.016  0.00  0.00    -0.023 A 
ATOM      6  C   UNL     1       5.557   4.298  -0.029  0.00  0.00    -0.004 A 
ATOM      7  S   UNL     1       4.404   2.955  -0.025  0.00  0.00    -0.077 S 
ATOM      8  C   UNL     1       2.924   3.856  -0.005  0.00  0.00    +0.084 A 
ATOM      9  C   UNL     1       3.357   5.175  -0.008  0.00  0.00    +0.069 A 
ATOM     10  C   UNL     1       7.053   4.232  -0.046  0.00  0.00    +0.046 C 
ENDROOT
BRANCH   9  11
ATOM     11  C   UNL     1       2.404   6.287   0.001  0.00  0.00    +0.255 C 
ATOM     12  O   UNL     1       2.017   6.749   1.058  0.00  0.00    -0.270 OA
ATOM     13  N   UNL     1       1.955   6.800  -1.162  0.00  0.00    -0.217 N 
ATOM     14  C   UNL     1       1.079   7.823  -1.155  0.00  0.00    +0.407 C 
ATOM     15  O   UNL     1       0.693   8.284  -0.099  0.00  0.00    -0.226 OA
ATOM     16  H   UNL     1       2.264   6.432  -2.005  0.00  0.00    +0.161 HD
BRANCH  14  17
ATOM     17  O   UNL     1       0.631   8.335  -2.316  0.00  0.00    -0.453 OA
ATOM     18  C   UNL     1      -0.312   9.436  -2.232  0.00  0.00    +0.282 C 
ENDBRANCH  14  17
ENDBRANCH   9  11
BRANCH   8  19
ATOM     19  N   UNL     1       1.623   3.376   0.005  0.00  0.00    -0.279 N 
ATOM     20  C   UNL     1       1.395   2.047  -0.000  0.00  0.00    +0.218 C 
ATOM     21  O   UNL     1       2.328   1.272  -0.013  0.00  0.00    -0.275 OA
ATOM     22  H   UNL     1       0.878   3.996   0.015  0.00  0.00    +0.155 HD
BRANCH  20  23
ATOM     23  C   UNL     1      -0.019   1.526   0.010  0.00  0.00    +0.098 C 
BRANCH  23  24
ATOM     24  C   UNL     1       0.002  -0.004   0.002  0.00  0.00    +0.032 C 
BRANCH  24  25
ATOM     25  C   UNL     1      -1.433  -0.534   0.013  0.00  0.00    +0.172 C 
BRANCH  25  26
ATOM     26  S   UNL     1      -1.409  -2.348   0.003  0.00  0.00    -0.003 S 
ATOM     27  O   UNL     1      -0.909  -2.823  -1.239  0.00  0.00    -0.169 OA
ATOM     28  O   UNL     1      -0.885  -2.837   1.230  0.00  0.00    -0.169 OA
BRANCH  26  29
ATOM     29  C   UNL     1      -3.105  -2.823   0.017  0.00  0.00    +0.088 A 
ATOM     30  C   UNL     1      -3.757  -3.022   1.219  0.00  0.00    +0.028 A 
ATOM     31  C   UNL     1      -5.090  -3.390   1.230  0.00  0.00    +0.022 A 
ATOM     32  C   UNL     1      -5.767  -3.570   0.038  0.00  0.00    +0.041 A 
ATOM     33  C   UNL     1      -5.112  -3.377  -1.165  0.00  0.00    +0.022 A 
ATOM     34  C   UNL     1      -3.782  -3.004  -1.175  0.00  0.00    +0.028 A 
ATOM     35 CL   UNL     1      -7.439  -4.039   0.051  0.00  0.00    -0.084 Cl
ENDBRANCH  26  29
ENDBRANCH  25  26
ENDBRANCH  24  25
ENDBRANCH  23  24
ENDBRANCH  20  23
ENDBRANCH   8  19
TORSDOF 8
