REMARK  Name = ZINC11443439
REMARK  7 active torsions:
REMARK  status: ('A' for Active; 'I' for Inactive)
REMARK    1  A    between atoms: C_1  and  C_2
REMARK    2  A    between atoms: C_2  and  C_3
REMARK    3  A    between atoms: C_3  and  C_4
REMARK    4  A    between atoms: C_8  and  S_10
REMARK    5  A    between atoms: S_10  and  C_11
REMARK    6  A    between atoms: C_11  and  C_13
REMARK    7  A    between atoms: C_11  and  C_14
REMARK                            x       y       z     vdW  Elec       q    Type
REMARK                         _______ _______ _______ _____ _____    ______ ____
ROOT
ATOM      1  S   UNL     1      -1.672  -4.868   2.399  0.00  0.00    -0.075 S 
ENDROOT
BRANCH   1   6
ATOM      2  C   UNL     1       0.762  -2.018   1.233  0.00  0.00    +0.049 A 
ATOM      3  C   UNL     1       1.839  -2.682   0.719  0.00  0.00    +0.093 A 
ATOM      4  C   UNL     1       1.836  -4.088   0.722  0.00  0.00    +0.252 A 
ATOM      5  N   UNL     1       0.766  -4.733   1.234  0.00  0.00    -0.302 N 
ATOM      6  C   UNL     1      -0.280  -4.018   1.734  0.00  0.00    +0.170 A 
ATOM      7  N   UNL     1      -0.266  -2.699   1.732  0.00  0.00    -0.228 NA
ATOM      8  O   UNL     1       2.781  -4.712   0.271  0.00  0.00    -0.268 OA
ATOM      9  H   UNL     1       0.742  -5.703   1.246  0.00  0.00    +0.171 HD
BRANCH   2  10
ATOM     10  C   UNL     1       0.742  -0.511   1.242  0.00  0.00    +0.055 C 
BRANCH  10  12
ATOM     11  C   UNL     1      -0.019   1.526   0.010  0.00  0.00    +0.004 C 
ATOM     12  C   UNL     1       0.002  -0.004   0.002  0.00  0.00    +0.003 C 
ENDBRANCH  10  12
ENDBRANCH   2  10
ENDBRANCH   1   6
BRANCH   1  13
ATOM     13  C   UNL     1      -2.786  -3.539   2.930  0.00  0.00    +0.137 C 
ATOM     14  C   UNL     1      -2.133  -2.750   4.066  0.00  0.00    +0.029 C 
BRANCH  13  15
ATOM     15  C   UNL     1      -4.084  -4.134   3.413  0.00  0.00    +0.233 C 
ATOM     16  O   UNL     1      -4.111  -5.272   3.831  0.00  0.00    -0.274 OA
ATOM     17  N   UNL     1      -5.214  -3.401   3.381  0.00  0.00    -0.239 N 
ATOM     18  C   UNL     1      -6.375  -3.933   3.813  0.00  0.00    +0.303 C 
ATOM     19  O   UNL     1      -6.402  -5.074   4.232  0.00  0.00    -0.253 OA
ATOM     20  N   UNL     1      -7.505  -3.200   3.781  0.00  0.00    -0.313 N 
ATOM     21  H   UNL     1      -5.193  -2.490   3.047  0.00  0.00    +0.159 HD
ATOM     22  H   UNL     1      -7.484  -2.289   3.447  0.00  0.00    +0.146 HD
ATOM     23  H   UNL     1      -8.341  -3.583   4.092  0.00  0.00    +0.146 HD
ENDBRANCH  13  15
ENDBRANCH   1  13
TORSDOF 5
