REMARK  Name = ZINC09456334
REMARK  16 active torsions:
REMARK  status: ('A' for Active; 'I' for Inactive)
REMARK    1  A    between atoms: C_1  and  C_2
REMARK    2  A    between atoms: C_2  and  N_73
REMARK    3  A    between atoms: C_3  and  C_4
REMARK    4  A    between atoms: C_3  and  N_73
REMARK    5  A    between atoms: C_5  and  C_6
REMARK    6  A    between atoms: C_5  and  N_73
REMARK    7  A    between atoms: C_6  and  C_7
REMARK    8  A    between atoms: C_7  and  N_8
REMARK    9  A    between atoms: C_9  and  C_29
REMARK   10  A    between atoms: C_11  and  C_16
REMARK   11  A    between atoms: C_12  and  O_15
REMARK   12  A    between atoms: C_16  and  C_18
REMARK   13  A    between atoms: C_25  and  C_28
REMARK   14  A    between atoms: C_32  and  N_35
REMARK   15  A    between atoms: N_35  and  C_36
REMARK   16  A    between atoms: N_35  and  C_37
REMARK                            x       y       z     vdW  Elec       q    Type
REMARK                         _______ _______ _______ _____ _____    ______ ____
ROOT
ATOM      1  N   UNL     1       3.897   1.852   0.025  0.00  0.00    -0.284 N 
ATOM      2  C   UNL     1       3.033   3.038   0.065  0.00  0.00    +0.144 C 
ATOM      3  C   UNL     1       1.612   2.525   0.063  0.00  0.00    +0.071 C 
ATOM      4  C   UNL     1       1.685   1.175   0.025  0.00  0.00    +0.188 C 
ATOM      5  C   UNL     1       3.104   0.765   0.008  0.00  0.00    +0.282 C 
ATOM      6  O   UNL     1       3.498  -0.385  -0.021  0.00  0.00    -0.267 OA
ENDROOT
BRANCH   2   7
ATOM      7  C   UNL     1       3.297   3.829   1.321  0.00  0.00    -0.022 A 
ATOM      8  C   UNL     1       3.377   3.181   2.540  0.00  0.00    +0.007 A 
ATOM      9  C   UNL     1       3.623   3.902   3.692  0.00  0.00    +0.023 A 
ATOM     10  C   UNL     1       3.780   5.280   3.626  0.00  0.00    +0.029 A 
ATOM     11  C   UNL     1       3.694   5.929   2.401  0.00  0.00    +0.023 A 
ATOM     12  C   UNL     1       3.453   5.201   1.252  0.00  0.00    +0.007 A 
BRANCH  10  13
ATOM     13  N   UNL     1       4.024   6.013   4.790  0.00  0.00    -0.336 N 
ATOM     14  C   UNL     1       4.189   7.467   4.719  0.00  0.00    +0.129 C 
ATOM     15  C   UNL     1       4.115   5.328   6.082  0.00  0.00    +0.129 C 
ENDBRANCH  10  13
ENDBRANCH   2   7
BRANCH   4  16
ATOM     16  O   UNL     1       0.625   0.333   0.011  0.00  0.00    -0.502 OA
ATOM     17  H   UNL     1       0.951  -0.612  -0.018  0.00  0.00    +0.292 HD
ENDBRANCH   4  16
BRANCH   3  18
ATOM     18  C   UNL     1       0.390   3.335   0.095  0.00  0.00    +0.195 C 
ATOM     19  O   UNL     1      -0.406   3.200   1.006  0.00  0.00    -0.287 OA
BRANCH  18  20
ATOM     20  C   UNL     1       0.125   4.314  -0.977  0.00  0.00    +0.023 A 
ATOM     21  C   UNL     1       0.978   4.398  -2.083  0.00  0.00    +0.015 A 
ATOM     22  C   UNL     1       0.729   5.309  -3.080  0.00  0.00    +0.046 A 
ATOM     23  C   UNL     1      -0.369   6.168  -2.996  0.00  0.00    +0.124 A 
ATOM     24  C   UNL     1      -1.215   6.080  -1.894  0.00  0.00    -0.002 A 
ATOM     25  C   UNL     1      -0.978   5.171  -0.893  0.00  0.00    +0.019 A 
ATOM     26  C   UNL     1      -2.308   7.113  -2.091  0.00  0.00    +0.083 C 
ATOM     27  C   UNL     1      -2.157   7.455  -3.592  0.00  0.00    +0.175 C 
ATOM     28  O   UNL     1      -0.779   7.141  -3.854  0.00  0.00    -0.488 OA
ATOM     29  C   UNL     1      -3.083   6.582  -4.442  0.00  0.00    +0.052 C 
ENDBRANCH  18  20
ENDBRANCH   3  18
BRANCH   1  30
ATOM     30  C   UNL     1       5.362   1.852   0.014  0.00  0.00    +0.107 C 
BRANCH  30  31
ATOM     31  C   UNL     1       5.883   1.811   1.452  0.00  0.00    +0.000 C 
BRANCH  31  32
ATOM     32  C   UNL     1       7.413   1.811   1.440  0.00  0.00    -0.077 C 
BRANCH  32  33
ATOM     33  N   UNL     1       7.900   1.793   2.835  0.00  0.00    +0.379 N 
ATOM     34  H   UNL     1       7.442   2.549   3.358  0.00  0.00    -0.082 HD
BRANCH  33  36
ATOM     35  C   UNL     1       8.285  -0.647   2.756  0.00  0.00    -0.017 C 
ATOM     36  C   UNL     1       7.568   0.500   3.470  0.00  0.00    -0.082 C 
ENDBRANCH  33  36
BRANCH  33  37
ATOM     37  C   UNL     1       9.362   2.009   2.862  0.00  0.00    -0.082 C 
ATOM     38  C   UNL     1       9.785   2.334   4.296  0.00  0.00    -0.017 C 
ENDBRANCH  33  37
ENDBRANCH  32  33
ENDBRANCH  31  32
ENDBRANCH  30  31
ENDBRANCH   1  30
TORSDOF 11
