REMARK  Name = ZINC24835809
REMARK  7 active torsions:
REMARK  status: ('A' for Active; 'I' for Inactive)
REMARK    1  A    between atoms: C_4  and  C_7
REMARK    2  A    between atoms: C_7  and  C_9
REMARK    3  A    between atoms: C_7  and  N_21
REMARK    4  A    between atoms: C_9  and  C_11
REMARK    5  A    between atoms: C_24  and  C_27
REMARK    6  A    between atoms: N_29  and  C_30
REMARK    7  A    between atoms: C_35  and  O_36
REMARK                            x       y       z     vdW  Elec       q    Type
REMARK                         _______ _______ _______ _____ _____    ______ ____
ROOT
ATOM      1  C   UNL     1       0.051  -0.008  -0.023  0.00  0.00    +0.035 C 
ENDROOT
BRANCH   1   2
ATOM      2  N   UNL     1       0.020   1.460  -0.009  0.00  0.00    +0.389 N 
ATOM      3  C   UNL     1      -0.774   1.981  -1.130  0.00  0.00    -0.077 C 
ATOM      4  C   UNL     1      -0.905   3.500  -1.002  0.00  0.00    -0.006 C 
ATOM      5  C   UNL     1       0.491   4.130  -1.004  0.00  0.00    +0.072 C 
ATOM      6  C   UNL     1       1.313   3.536   0.143  0.00  0.00    -0.006 C 
ATOM      7  C   UNL     1       1.379   2.015  -0.019  0.00  0.00    -0.077 C 
ATOM      8  H   UNL     1      -0.467   1.781   0.923  0.00  0.00    -0.080 HD
BRANCH   5   9
ATOM      9  C   UNL     1       0.371   5.621  -0.818  0.00  0.00    +0.220 C 
ATOM     10  O   UNL     1       0.891   6.156   0.138  0.00  0.00    -0.275 OA
ATOM     11  N   UNL     1      -0.315   6.359  -1.714  0.00  0.00    -0.282 N 
ATOM     12  H   UNL     1      -0.724   5.885  -2.618  0.00  0.00    +0.155 HD
BRANCH  11  13
ATOM     13  C   UNL     1      -0.506   7.729  -1.492  0.00  0.00    +0.075 A 
ATOM     14  C   UNL     1       0.481   8.477  -0.868  0.00  0.00    +0.027 A 
ATOM     15  C   UNL     1       0.290   9.829  -0.650  0.00  0.00    +0.002 A 
ATOM     16  C   UNL     1      -0.883  10.438  -1.055  0.00  0.00    +0.004 A 
ATOM     17  C   UNL     1      -1.871   9.699  -1.678  0.00  0.00    +0.047 A 
ATOM     18  C   UNL     1      -1.686   8.345  -1.904  0.00  0.00    +0.138 A 
BRANCH  18  19
ATOM     19  O   UNL     1      -2.654   7.618  -2.522  0.00  0.00    -0.505 OA
ATOM     20  H   UNL     1      -3.585   8.106  -2.847  0.00  0.00    +0.292 HD
ENDBRANCH  18  19
ENDBRANCH  11  13
ENDBRANCH   5   9
ENDBRANCH   1   2
BRANCH   1  24
ATOM     21  C   UNL     1      -3.946  -1.516   0.006  0.00  0.00    +0.000 A 
ATOM     22  C   UNL     1      -2.984  -2.123  -0.780  0.00  0.00    +0.000 A 
ATOM     23  C   UNL     1      -1.691  -1.635  -0.789  0.00  0.00    +0.002 A 
ATOM     24  C   UNL     1      -1.359  -0.540  -0.013  0.00  0.00    -0.054 A 
ATOM     25  C   UNL     1      -2.320   0.063   0.777  0.00  0.00    +0.002 A 
ATOM     26  C   UNL     1      -3.614  -0.422   0.783  0.00  0.00    +0.000 A 
ENDBRANCH   1  24
BRANCH   1  27
ATOM     27  C   UNL     1       0.784  -0.507   1.195  0.00  0.00    +0.156 C 
ATOM     28  O   UNL     1       0.919   0.216   2.161  0.00  0.00    -0.293 OA
BRANCH  27  29
ATOM     29  C   UNL     1       1.318  -1.820   1.213  0.00  0.00    +0.041 A 
ATOM     30  C   UNL     1       1.249  -2.755   0.202  0.00  0.00    +0.095 A 
ATOM     31  N   UNL     1       1.871  -3.885   0.589  0.00  0.00    -0.360 N 
ATOM     32  H   UNL     1       1.918  -4.748  -0.092  0.00  0.00    +0.165 HD
ATOM     33  C   UNL     1       2.377  -3.752   1.866  0.00  0.00    +0.047 A 
ATOM     34  C   UNL     1       2.064  -2.459   2.315  0.00  0.00    +0.010 A 
ATOM     35  C   UNL     1       2.461  -2.043   3.582  0.00  0.00    +0.011 A 
ATOM     36  C   UNL     1       3.167  -2.905   4.393  0.00  0.00    +0.001 A 
ATOM     37  C   UNL     1       3.481  -4.182   3.951  0.00  0.00    +0.002 A 
ATOM     38  C   UNL     1       3.086  -4.609   2.701  0.00  0.00    +0.026 A 
ENDBRANCH  27  29
ENDBRANCH   1  27
TORSDOF 7
