REMARK  Name = ZINC08736112
REMARK  9 active torsions:
REMARK  status: ('A' for Active; 'I' for Inactive)
REMARK    1  A    between atoms: C_1  and  O_2
REMARK    2  A    between atoms: O_2  and  C_3
REMARK    3  A    between atoms: C_6  and  C_9
REMARK    4  A    between atoms: C_9  and  C_11
REMARK    5  A    between atoms: C_9  and  N_64
REMARK    6  A    between atoms: C_11  and  N_12
REMARK    7  A    between atoms: C_13  and  C_15
REMARK    8  A    between atoms: N_20  and  S_22
REMARK    9  A    between atoms: S_22  and  C_25
REMARK                            x       y       z     vdW  Elec       q    Type
REMARK                         _______ _______ _______ _____ _____    ______ ____
ROOT
ATOM      1  N   UNL     1      -0.197   1.536   0.682  0.00  0.00    -0.316 N 
ATOM      2  C   UNL     1      -0.302   0.301   1.211  0.00  0.00    +0.217 C 
ATOM      3  O   UNL     1       0.678  -0.246   1.672  0.00  0.00    -0.275 OA
ATOM      4  H   UNL     1      -0.980   1.972   0.310  0.00  0.00    +0.149 HD
ENDROOT
BRANCH   2   5
ATOM      5  C   UNL     1      -1.635  -0.400   1.231  0.00  0.00    +0.091 C 
ATOM      6  C   UNL     1      -2.638   0.432   2.034  0.00  0.00    +0.015 C 
ATOM      7  C   UNL     1      -4.002  -0.264   2.027  0.00  0.00    +0.018 C 
ATOM      8  C   UNL     1      -3.873  -1.638   2.691  0.00  0.00    +0.109 C 
ATOM      9  N   UNL     1      -2.808  -2.392   2.015  0.00  0.00    -0.175 NA
ATOM     10  C   UNL     1      -1.480  -1.777   1.886  0.00  0.00    +0.122 C 
BRANCH   9  11
ATOM     11  S   UNL     1      -3.099  -3.906   1.410  0.00  0.00    +0.067 S 
ATOM     12  O   UNL     1      -1.842  -4.566   1.347  0.00  0.00    -0.152 OA
ATOM     13  O   UNL     1      -4.200  -4.430   2.140  0.00  0.00    -0.152 OA
BRANCH  11  14
ATOM     14  C   UNL     1      -3.646  -3.706  -0.253  0.00  0.00    +0.143 A 
ATOM     15  C   UNL     1      -2.915  -3.667  -1.393  0.00  0.00    +0.036 A 
ATOM     16  C   UNL     1      -3.566  -3.500  -2.602  0.00  0.00    +0.010 A 
ATOM     17  C   UNL     1      -4.916  -3.381  -2.610  0.00  0.00    +0.047 A 
ATOM     18  S   UNL     1      -5.309  -3.510  -0.873  0.00  0.00    -0.077 S 
ENDBRANCH  11  14
ENDBRANCH   9  11
ENDBRANCH   2   5
BRANCH   1  19
ATOM     19  C   UNL     1       1.099   2.217   0.663  0.00  0.00    +0.093 C 
BRANCH  19  20
ATOM     20  C   UNL     1       0.943   3.594   0.012  0.00  0.00    -0.020 C 
BRANCH  20  26
ATOM     21  C   UNL     1       1.206   2.639  -2.198  0.00  0.00    -0.049 C 
ATOM     22  C   UNL     1       0.517   2.454  -3.553  0.00  0.00    +0.141 C 
ATOM     23  O   UNL     1       0.219   3.737  -4.109  0.00  0.00    -0.383 OA
ATOM     24  C   UNL     1      -0.622   4.544  -3.280  0.00  0.00    +0.141 C 
ATOM     25  C   UNL     1       0.056   4.750  -1.923  0.00  0.00    -0.049 C 
ATOM     26  N   UNL     1       0.318   3.427  -1.318  0.00  0.00    +0.388 N 
ATOM     27  H   UNL     1      -0.572   2.927  -1.208  0.00  0.00    -0.081 HD
ENDBRANCH  20  26
BRANCH  20  31
ATOM     28  C   UNL     1       4.779   5.439  -0.359  0.00  0.00    +0.120 A 
ATOM     29  C   UNL     1       3.719   6.144   0.191  0.00  0.00    +0.046 A 
ATOM     30  C   UNL     1       2.480   5.546   0.310  0.00  0.00    +0.005 A 
ATOM     31  C   UNL     1       2.295   4.244  -0.119  0.00  0.00    -0.059 A 
ATOM     32  C   UNL     1       3.352   3.537  -0.662  0.00  0.00    +0.005 A 
ATOM     33  C   UNL     1       4.591   4.133  -0.789  0.00  0.00    +0.046 A 
BRANCH  28  35
ATOM     34  C   UNL     1       7.044   5.239  -1.053  0.00  0.00    +0.277 C 
ATOM     35  O   UNL     1       5.999   6.025  -0.477  0.00  0.00    -0.495 OA
ENDBRANCH  28  35
ENDBRANCH  20  31
ENDBRANCH  19  20
ENDBRANCH   1  19
TORSDOF 8
