REMARK  Name = ZINC17126938
REMARK  5 active torsions:
REMARK  status: ('A' for Active; 'I' for Inactive)
REMARK    1  A    between atoms: C_1  and  C_2
REMARK    2  A    between atoms: C_2  and  C_14
REMARK    3  A    between atoms: N_3  and  N_4
REMARK    4  A    between atoms: N_4  and  C_5
REMARK    5  A    between atoms: C_5  and  N_7
REMARK                            x       y       z     vdW  Elec       q    Type
REMARK                         _______ _______ _______ _____ _____    ______ ____
ROOT
ATOM      1  C   UNL     1       2.338  -0.469   0.112  0.00  0.00    +0.069 C 
ATOM      2  C   UNL     1       2.321   1.037   0.164  0.00  0.00    +0.081 C 
ATOM      3  N   UNL     1       1.190   1.675   0.134  0.00  0.00    -0.184 NA
ENDROOT
BRANCH   2   4
ATOM      4  C   UNL     1       3.587   1.787   0.249  0.00  0.00    +0.087 A 
ATOM      5  C   UNL     1       3.554   3.173   0.290  0.00  0.00    +0.038 A 
ATOM      6  C   UNL     1       4.770   3.869   0.375  0.00  0.00    -0.014 A 
ATOM      7  C   UNL     1       4.824   5.271   0.424  0.00  0.00    +0.008 A 
ATOM      8  C   UNL     1       6.034   5.892   0.501  0.00  0.00    +0.001 A 
ATOM      9  C   UNL     1       7.218   5.157   0.530  0.00  0.00    +0.001 A 
ATOM     10  C   UNL     1       7.203   3.796   0.483  0.00  0.00    +0.010 A 
ATOM     11  C   UNL     1       5.976   3.119   0.404  0.00  0.00    +0.000 A 
ATOM     12  C   UNL     1       5.905   1.717   0.353  0.00  0.00    +0.120 A 
ATOM     13  N   UNL     1       4.743   1.117   0.279  0.00  0.00    -0.253 NA
ENDBRANCH   2   4
BRANCH   3  14
ATOM     14  N   UNL     1      -0.014   0.962   0.053  0.00  0.00    -0.218 N 
ATOM     15  H   UNL     1      -0.002  -0.007   0.020  0.00  0.00    +0.176 HD
BRANCH  14  16
ATOM     16  C   UNL     1      -1.187   1.624   0.017  0.00  0.00    +0.153 C 
ATOM     17  S   UNL     1      -2.653   0.758  -0.169  0.00  0.00    -0.017 S 
BRANCH  16  18
ATOM     18  N   UNL     1      -1.207   2.967   0.126  0.00  0.00    -0.311 N 
ATOM     19  C   UNL     1       0.050   3.681   0.127  0.00  0.00    +0.107 C 
ATOM     20  C   UNL     1       0.582   3.805   1.570  0.00  0.00    +0.019 C 
ATOM     21  C   UNL     1      -0.238   4.756   2.336  0.00  0.00    +0.002 C 
ATOM     22  C   UNL     1      -1.695   4.335   2.504  0.00  0.00    +0.002 C 
ATOM     23  C   UNL     1      -2.484   4.773   1.295  0.00  0.00    +0.019 C 
ATOM     24  C   UNL     1      -2.511   3.648   0.245  0.00  0.00    +0.107 C 
ENDBRANCH  16  18
ENDBRANCH  14  16
ENDBRANCH   3  14
TORSDOF 4
