REMARK  Name = ZINC23471943
REMARK  15 active torsions:
REMARK  status: ('A' for Active; 'I' for Inactive)
REMARK    1  A    between atoms: C_1  and  C_2
REMARK    2  A    between atoms: C_2  and  O_3
REMARK    3  A    between atoms: O_3  and  C_4
REMARK    4  A    between atoms: C_6  and  C_21
REMARK    5  A    between atoms: C_9  and  O_10
REMARK    6  A    between atoms: O_10  and  C_11
REMARK    7  A    between atoms: C_11  and  C_12
REMARK    8  A    between atoms: C_21  and  N_22
REMARK    9  A    between atoms: N_22  and  C_23
REMARK   10  A    between atoms: C_23  and  C_24
REMARK   11  A    between atoms: C_24  and  N_25
REMARK   12  A    between atoms: N_25  and  C_26
REMARK   13  A    between atoms: C_26  and  C_27
REMARK   14  A    between atoms: C_27  and  C_29
REMARK   15  A    between atoms: C_27  and  O_30
REMARK                            x       y       z     vdW  Elec       q    Type
REMARK                         _______ _______ _______ _____ _____    ______ ____
ROOT
ATOM      1  C   UNL     1      -1.498  -1.849   0.006  0.00  0.00    +0.164 A 
ATOM      2  C   UNL     1      -0.389  -2.680  -0.003  0.00  0.00    +0.051 A 
ATOM      3  C   UNL     1      -0.552  -4.052  -0.009  0.00  0.00    -0.059 A 
ATOM      4  C   UNL     1      -1.822  -4.600  -0.006  0.00  0.00    +0.025 A 
ATOM      5  C   UNL     1      -2.934  -3.777   0.003  0.00  0.00    +0.086 A 
ATOM      6  C   UNL     1      -2.776  -2.400   0.016  0.00  0.00    +0.181 A 
ATOM      7 CL   UNL     1      -4.526  -4.469   0.006  0.00  0.00    -0.080 Cl
ENDROOT
BRANCH   1   8
ATOM      8  O   UNL     1      -1.339  -0.499   0.012  0.00  0.00    -0.489 OA
BRANCH   8  10
ATOM      9  C   UNL     1      -0.019   1.526   0.010  0.00  0.00    +0.048 C 
ATOM     10  C   UNL     1       0.002  -0.004   0.002  0.00  0.00    +0.226 C 
ENDBRANCH   8  10
ENDBRANCH   1   8
BRANCH   6  11
ATOM     11  O   UNL     1      -3.868  -1.589   0.031  0.00  0.00    -0.482 OA
BRANCH  11  12
ATOM     12  C   UNL     1      -4.401  -1.195  -1.235  0.00  0.00    +0.266 C 
BRANCH  12  13
ATOM     13  C   UNL     1      -5.598  -0.305  -1.021  0.00  0.00    +0.008 A 
ATOM     14  C   UNL     1      -6.006   0.007   0.263  0.00  0.00    +0.010 A 
ATOM     15  C   UNL     1      -7.104   0.823   0.460  0.00  0.00    +0.020 A 
ATOM     16  C   UNL     1      -7.795   1.329  -0.628  0.00  0.00    +0.042 A 
ATOM     17  C   UNL     1      -7.387   1.017  -1.912  0.00  0.00    +0.040 A 
ATOM     18  C   UNL     1      -6.285   0.204  -2.109  0.00  0.00    +0.049 A 
ATOM     19 CL   UNL     1      -5.768  -0.183  -3.720  0.00  0.00    -0.083 Cl
ATOM     20 CL   UNL     1      -9.175   2.353  -0.380  0.00  0.00    -0.083 Cl
ENDBRANCH  12  13
ENDBRANCH  11  12
ENDBRANCH   6  11
BRANCH   3  21
ATOM     21  C   UNL     1       0.655  -4.953  -0.019  0.00  0.00    -0.047 C 
BRANCH  21  22
ATOM     22  N   UNL     1       1.054  -5.253   1.363  0.00  0.00    +0.381 N 
ATOM     23  H   UNL     1       1.280  -4.394   1.841  0.00  0.00    -0.086 HD
ATOM     24  H   UNL     1       0.295  -5.714   1.840  0.00  0.00    -0.086 HD
BRANCH  22  25
ATOM     25  C   UNL     1       2.232  -6.131   1.353  0.00  0.00    -0.102 C 
BRANCH  25  26
ATOM     26  C   UNL     1       2.648  -6.443   2.792  0.00  0.00    -0.102 C 
BRANCH  26  27
ATOM     27  N   UNL     1       3.825  -7.321   2.782  0.00  0.00    +0.379 N 
ATOM     28  H   UNL     1       3.600  -8.181   2.303  0.00  0.00    -0.086 HD
ATOM     29  H   UNL     1       4.585  -6.860   2.305  0.00  0.00    -0.086 HD
BRANCH  27  30
ATOM     30  C   UNL     1       4.224  -7.621   4.164  0.00  0.00    -0.051 C 
BRANCH  30  31
ATOM     31  C   UNL     1       5.451  -8.536   4.153  0.00  0.00    +0.095 C 
ATOM     32  C   UNL     1       5.791  -8.948   5.587  0.00  0.00    +0.035 C 
BRANCH  31  33
ATOM     33  O   UNL     1       6.560  -7.839   3.582  0.00  0.00    -0.394 OA
ATOM     34  H   UNL     1       6.807  -7.035   4.059  0.00  0.00    +0.210 HD
ENDBRANCH  31  33
ENDBRANCH  30  31
ENDBRANCH  27  30
ENDBRANCH  26  27
ENDBRANCH  25  26
ENDBRANCH  22  25
ENDBRANCH  21  22
ENDBRANCH   3  21
TORSDOF 13
