REMARK  Name = ZINC21816856
REMARK  6 active torsions:
REMARK  status: ('A' for Active; 'I' for Inactive)
REMARK    1  A    between atoms: C_4  and  N_7
REMARK    2  A    between atoms: N_8  and  C_9
REMARK    3  A    between atoms: C_12  and  N_15
REMARK    4  A    between atoms: C_19  and  N_23
REMARK    5  A    between atoms: N_26  and  C_29
REMARK    6  A    between atoms: C_34  and  O_35
REMARK                            x       y       z     vdW  Elec       q    Type
REMARK                         _______ _______ _______ _____ _____    ______ ____
ROOT
ATOM      1  N   UNL     1      -1.115  -4.778   0.088  0.00  0.00    -0.209 N 
ATOM      2  C   UNL     1      -2.316  -4.193  -0.006  0.00  0.00    +0.228 C 
ATOM      3  O   UNL     1      -2.510  -3.001  -0.108  0.00  0.00    -0.275 OA
ATOM      4  C   UNL     1      -3.392  -5.256   0.034  0.00  0.00    +0.125 C 
ATOM      5  C   UNL     1      -2.597  -6.571   0.169  0.00  0.00    +0.153 C 
ATOM      6  C   UNL     1      -1.155  -6.113   0.185  0.00  0.00    +0.244 C 
ATOM      7  O   UNL     1      -0.188  -6.839   0.275  0.00  0.00    -0.273 OA
ENDROOT
BRANCH   1  11
ATOM      8  C   UNL     1       2.455  -2.622   0.061  0.00  0.00    +0.086 A 
ATOM      9  C   UNL     1       2.469  -3.999   0.305  0.00  0.00    +0.031 A 
ATOM     10  C   UNL     1       1.288  -4.707   0.314  0.00  0.00    +0.026 A 
ATOM     11  C   UNL     1       0.083  -4.055   0.079  0.00  0.00    +0.044 A 
ATOM     12  C   UNL     1       0.064  -2.686  -0.165  0.00  0.00    +0.026 A 
ATOM     13  C   UNL     1       1.239  -1.969  -0.168  0.00  0.00    +0.031 A 
BRANCH   8  15
ATOM     14  N   UNL     1       3.602  -0.632   0.171  0.00  0.00    -0.149 NA
ATOM     15  N   UNL     1       3.623  -1.916   0.052  0.00  0.00    -0.149 NA
BRANCH  14  19
ATOM     16  C   UNL     1       0.644   1.189   2.418  0.00  0.00    +0.000 A 
ATOM     17  C   UNL     1       0.880  -0.167   2.559  0.00  0.00    +0.002 A 
ATOM     18  C   UNL     1       1.864  -0.781   1.814  0.00  0.00    +0.029 A 
ATOM     19  C   UNL     1       2.624  -0.030   0.913  0.00  0.00    +0.086 A 
ATOM     20  C   UNL     1       2.381   1.339   0.776  0.00  0.00    +0.029 A 
ATOM     21  C   UNL     1       1.393   1.940   1.528  0.00  0.00    +0.002 A 
ENDBRANCH  14  19
ENDBRANCH   8  15
ENDBRANCH   1  11
BRANCH   5  22
ATOM     22  N   UNL     1      -2.847  -7.447  -0.983  0.00  0.00    -0.288 NA
ATOM     23  C   UNL     1      -2.321  -6.853  -2.220  0.00  0.00    +0.104 C 
ATOM     24  C   UNL     1      -2.758  -7.704  -3.417  0.00  0.00    +0.120 C 
ATOM     25  N   UNL     1      -2.352  -9.096  -3.174  0.00  0.00    -0.325 N 
ATOM     26  C   UNL     1      -2.725  -9.717  -1.894  0.00  0.00    +0.120 C 
ATOM     27  C   UNL     1      -2.289  -8.787  -0.757  0.00  0.00    +0.104 C 
BRANCH  25  28
ATOM     28  C   UNL     1      -1.629  -9.812  -4.136  0.00  0.00    +0.072 A 
ATOM     29  C   UNL     1      -0.242  -9.787  -4.124  0.00  0.00    +0.027 A 
ATOM     30  C   UNL     1       0.469 -10.496  -5.074  0.00  0.00    +0.002 A 
ATOM     31  C   UNL     1      -0.198 -11.229  -6.038  0.00  0.00    +0.004 A 
ATOM     32  C   UNL     1      -1.580 -11.258  -6.056  0.00  0.00    +0.047 A 
ATOM     33  C   UNL     1      -2.300 -10.556  -5.104  0.00  0.00    +0.138 A 
BRANCH  33  34
ATOM     34  O   UNL     1      -3.660 -10.587  -5.117  0.00  0.00    -0.505 OA
ATOM     35  H   UNL     1      -4.065  -9.892  -5.654  0.00  0.00    +0.292 HD
ENDBRANCH  33  34
ENDBRANCH  25  28
ENDBRANCH   5  22
TORSDOF 6
