REMARK  Name = ZINC13099902
REMARK  7 active torsions:
REMARK  status: ('A' for Active; 'I' for Inactive)
REMARK    1  A    between atoms: C_1  and  C_2
REMARK    2  A    between atoms: C_6  and  C_12
REMARK    3  A    between atoms: C_10  and  C_11
REMARK    4  A    between atoms: C_12  and  C_13
REMARK    5  A    between atoms: N_15  and  N_16
REMARK    6  A    between atoms: C_19  and  C_23
REMARK    7  A    between atoms: C_19  and  C_24
REMARK                            x       y       z     vdW  Elec       q    Type
REMARK                         _______ _______ _______ _____ _____    ______ ____
ROOT
ATOM      1  C   UNL     1      -0.280  -0.688   1.129  0.00  0.00    +0.234 C 
ATOM      2  O   UNL     1      -0.550  -0.091   2.149  0.00  0.00    -0.274 OA
ATOM      3  N   UNL     1       0.002  -0.004   0.002  0.00  0.00    -0.223 N 
ATOM      4  H   UNL     1       0.218  -0.482  -0.814  0.00  0.00    +0.174 HD
ENDROOT
BRANCH   3   5
ATOM      5  N   UNL     1      -0.017   1.397   0.010  0.00  0.00    -0.137 N 
ATOM      6  C   UNL     1       1.088   2.169   0.003  0.00  0.00    +0.267 C 
ATOM      7  O   UNL     1       2.241   1.797  -0.009  0.00  0.00    -0.271 OA
ATOM      8  C   UNL     1       0.587   3.600   0.015  0.00  0.00    +0.137 C 
ATOM      9  N   UNL     1      -0.878   3.454   0.028  0.00  0.00    -0.280 N 
ATOM     10  C   UNL     1      -1.134   2.133   0.019  0.00  0.00    +0.327 C 
ATOM     11  O   UNL     1      -2.254   1.662   0.021  0.00  0.00    -0.251 OA
ATOM     12  C   UNL     1       1.070   4.329   1.270  0.00  0.00    +0.047 C 
ATOM     13  H   UNL     1      -1.532   4.171   0.037  0.00  0.00    +0.152 HD
BRANCH   8  14
ATOM     14  C   UNL     1       1.037   4.329  -1.225  0.00  0.00    -0.015 A 
ATOM     15  C   UNL     1       2.227   3.982  -1.838  0.00  0.00    +0.006 A 
ATOM     16  C   UNL     1       2.637   4.647  -2.978  0.00  0.00    +0.000 A 
ATOM     17  C   UNL     1       1.862   5.666  -3.500  0.00  0.00    +0.000 A 
ATOM     18  C   UNL     1       0.675   6.017  -2.884  0.00  0.00    +0.000 A 
ATOM     19  C   UNL     1       0.262   5.348  -1.747  0.00  0.00    +0.006 A 
ENDBRANCH   8  14
ENDBRANCH   3   5
BRANCH   1  20
ATOM     20  C   UNL     1      -0.260  -2.195   1.120  0.00  0.00    +0.136 C 
BRANCH  20  26
ATOM     21  C   UNL     1      -5.327  -3.876   5.474  0.00  0.00    +0.044 C 
ATOM     22  C   UNL     1      -4.130  -3.543   4.620  0.00  0.00    -0.044 A 
ATOM     23  C   UNL     1      -4.319  -3.065   3.331  0.00  0.00    +0.004 A 
ATOM     24  C   UNL     1      -3.245  -2.759   2.542  0.00  0.00    +0.012 A 
ATOM     25  C   UNL     1      -1.953  -2.928   3.038  0.00  0.00    +0.024 A 
ATOM     26  C   UNL     1      -0.607  -2.709   2.493  0.00  0.00    +0.007 A 
ATOM     27  C   UNL     1       0.249  -3.065   3.460  0.00  0.00    +0.200 A 
ATOM     28  O   UNL     1      -0.425  -3.473   4.550  0.00  0.00    -0.462 OA
ATOM     29  C   UNL     1      -1.755  -3.412   4.342  0.00  0.00    +0.138 A 
ATOM     30  C   UNL     1      -2.861  -3.717   5.127  0.00  0.00    -0.005 A 
ATOM     31  C   UNL     1      -2.672  -4.236   6.529  0.00  0.00    +0.048 C 
ENDBRANCH  20  26
ENDBRANCH   1  20
TORSDOF 4
