REMARK  Name = ZINC39710407
REMARK  11 active torsions:
REMARK  status: ('A' for Active; 'I' for Inactive)
REMARK    1  A    between atoms: C_1  and  C_2
REMARK    2  A    between atoms: C_2  and  C_3
REMARK    3  A    between atoms: C_10  and  C_15
REMARK    4  A    between atoms: C_15  and  C_17
REMARK    5  A    between atoms: C_15  and  N_26
REMARK    6  A    between atoms: N_21  and  C_22
REMARK    7  A    between atoms: C_22  and  C_23
REMARK    8  A    between atoms: C_23  and  O_24
REMARK    9  A    between atoms: O_24  and  C_25
REMARK   10  A    between atoms: N_29  and  C_32
REMARK   11  A    between atoms: C_35  and  N_38
REMARK                            x       y       z     vdW  Elec       q    Type
REMARK                         _______ _______ _______ _____ _____    ______ ____
ROOT
ATOM      1  C   UNL     1      -6.443  -1.028  -2.915  0.00  0.00    +0.142 C 
ENDROOT
BRANCH   1   9
ATOM      2  C   UNL     1      -1.890   0.128   0.547  0.00  0.00    -0.047 A 
ATOM      3  C   UNL     1      -2.683   0.066   1.693  0.00  0.00    +0.005 A 
ATOM      4  C   UNL     1      -3.949  -0.427   1.681  0.00  0.00    +0.024 A 
ATOM      5  C   UNL     1      -4.519  -0.904   0.487  0.00  0.00    +0.040 A 
ATOM      6  N   UNL     1      -5.762  -1.385   0.487  0.00  0.00    -0.284 N 
ATOM      7  C   UNL     1      -6.358  -1.849  -0.599  0.00  0.00    +0.226 C 
ATOM      8  O   UNL     1      -7.495  -2.276  -0.536  0.00  0.00    -0.275 OA
ATOM      9  C   UNL     1      -5.620  -1.846  -1.918  0.00  0.00    +0.123 C 
ATOM     10  C   UNL     1      -4.205  -1.299  -1.925  0.00  0.00    -0.003 C 
ATOM     11  C   UNL     1      -3.704  -0.851  -0.739  0.00  0.00    -0.007 A 
ATOM     12  C   UNL     1      -2.350  -0.302  -0.656  0.00  0.00    +0.013 A 
ATOM     13  H   UNL     1      -6.253  -1.396   1.324  0.00  0.00    +0.155 HD
BRANCH   2  15
ATOM     14  C   UNL     1      -0.536   2.201   0.403  0.00  0.00    +0.009 C 
ATOM     15  C   UNL     1      -0.495   0.691   0.645  0.00  0.00    +0.032 C 
ENDBRANCH   2  15
ENDBRANCH   1   9
BRANCH   1  16
ATOM     16  N   UNL     1      -7.763  -1.650  -3.087  0.00  0.00    -0.289 NA
ATOM     17  C   UNL     1      -7.641  -2.985  -3.688  0.00  0.00    +0.104 C 
ATOM     18  C   UNL     1      -9.012  -3.670  -3.684  0.00  0.00    +0.120 C 
ATOM     19  N   UNL     1      -9.982  -2.778  -4.338  0.00  0.00    -0.327 N 
ATOM     20  C   UNL     1     -10.064  -1.383  -3.881  0.00  0.00    +0.120 C 
ATOM     21  C   UNL     1      -8.652  -0.788  -3.877  0.00  0.00    +0.104 C 
BRANCH  19  22
ATOM     22  C   UNL     1     -10.803  -3.244  -5.368  0.00  0.00    +0.030 A 
ATOM     23  C   UNL     1     -10.800  -4.592  -5.704  0.00  0.00    +0.025 A 
ATOM     24  C   UNL     1     -11.614  -5.050  -6.722  0.00  0.00    +0.034 A 
ATOM     25  C   UNL     1     -12.430  -4.168  -7.406  0.00  0.00    +0.126 A 
ATOM     26  C   UNL     1     -12.435  -2.826  -7.074  0.00  0.00    +0.034 A 
ATOM     27  C   UNL     1     -11.628  -2.362  -6.053  0.00  0.00    +0.025 A 
BRANCH  25  28
ATOM     28  N   UNL     1     -13.300  -4.662  -8.497  0.00  0.00    +0.056 N 
ATOM     29  O   UNL     1     -13.296  -5.835  -8.789  0.00  0.00    -0.126 OA
ATOM     30  O   UNL     1     -14.014  -3.892  -9.096  0.00  0.00    -0.126 OA
ENDBRANCH  25  28
ENDBRANCH  19  22
ENDBRANCH   1  16
BRANCH   1  31
ATOM     31  C   UNL     1      -6.613   0.376  -2.393  0.00  0.00    +0.170 A 
ATOM     32  N   UNL     1      -7.406   0.759  -1.422  0.00  0.00    -0.112 NA
ATOM     33  N   UNL     1      -7.267   2.031  -1.274  0.00  0.00    -0.023 NA
ATOM     34  N   UNL     1      -6.406   2.469  -2.125  0.00  0.00    -0.044 NA
ATOM     35  N   UNL     1      -5.976   1.478  -2.830  0.00  0.00    -0.225 N 
BRANCH  35  36
ATOM     36  C   UNL     1      -4.984   1.541  -3.906  0.00  0.00    +0.175 C 
BRANCH  36  37
ATOM     37  C   UNL     1      -5.692   1.792  -5.239  0.00  0.00    +0.183 C 
BRANCH  37  38
ATOM     38  O   UNL     1      -4.724   1.853  -6.288  0.00  0.00    -0.381 OA
ATOM     39  C   UNL     1      -5.284   2.085  -7.582  0.00  0.00    +0.194 C 
ENDBRANCH  37  38
ENDBRANCH  36  37
ENDBRANCH  35  36
ENDBRANCH   1  31
TORSDOF 9
