REMARK  Name = ZINC39448879
REMARK  4 active torsions:
REMARK  status: ('A' for Active; 'I' for Inactive)
REMARK    1  A    between atoms: C_16  and  C_18
REMARK    2  A    between atoms: C_18  and  S_19
REMARK    3  A    between atoms: S_19  and  C_20
REMARK    4  A    between atoms: C_22  and  C_28
REMARK                            x       y       z     vdW  Elec       q    Type
REMARK                         _______ _______ _______ _____ _____    ______ ____
ROOT
ATOM      1  S   UNL     1       6.929  -0.780   1.851  0.00  0.00    -0.081 S 
ENDROOT
BRANCH   1   2
ATOM      2  C   UNL     1       8.484  -1.597   1.710  0.00  0.00    +0.159 C 
ATOM      3  N   UNL     1       9.479  -1.379   2.634  0.00  0.00    -0.300 N 
ATOM      4  C   UNL     1      10.427  -2.475   2.886  0.00  0.00    +0.204 C 
ATOM      5  N   UNL     1      10.749  -3.110   1.603  0.00  0.00    -0.336 N 
ATOM      6  C   UNL     1       9.894  -3.076   0.615  0.00  0.00    +0.190 C 
ATOM      7  N   UNL     1       8.717  -2.436   0.716  0.00  0.00    -0.195 NA
ATOM      8  N   UNL     1      10.207  -3.721  -0.564  0.00  0.00    -0.329 N 
ATOM      9  H   UNL     1      11.052  -4.191  -0.651  0.00  0.00    +0.145 HD
ATOM     10  H   UNL     1       9.583  -3.706  -1.306  0.00  0.00    +0.145 HD
ATOM     11  H   UNL     1       9.553  -0.533   3.102  0.00  0.00    +0.150 HD
ATOM     12  H   UNL     1      11.602  -3.557   1.486  0.00  0.00    +0.164 HD
BRANCH   4  13
ATOM     13  C   UNL     1       9.800  -3.486   3.810  0.00  0.00    +0.046 A 
ATOM     14  C   UNL     1      10.008  -4.839   3.600  0.00  0.00    +0.131 A 
ATOM     15  C   UNL     1       9.431  -5.768   4.450  0.00  0.00    +0.039 A 
ATOM     16  C   UNL     1       8.649  -5.344   5.508  0.00  0.00    +0.004 A 
ATOM     17  C   UNL     1       8.441  -3.994   5.718  0.00  0.00    +0.020 A 
ATOM     18  C   UNL     1       9.022  -3.064   4.872  0.00  0.00    +0.050 A 
ATOM     19 CL   UNL     1       8.766  -1.368   5.141  0.00  0.00    -0.083 Cl
ATOM     20  F   UNL     1      10.772  -5.253   2.566  0.00  0.00    -0.205 F 
ENDBRANCH   4  13
ENDBRANCH   1   2
BRANCH   1  21
ATOM     21  C   UNL     1       5.981  -1.392   0.431  0.00  0.00    +0.173 C 
BRANCH  21  37
ATOM     22  C   UNL     1      -0.017   0.741  -0.681  0.00  0.00    +0.000 A 
ATOM     23  C   UNL     1       1.130   1.513  -0.650  0.00  0.00    +0.002 A 
ATOM     24  C   UNL     1       2.358   0.889  -0.592  0.00  0.00    +0.024 A 
ATOM     25  C   UNL     1       2.446  -0.499  -0.555  0.00  0.00    +0.044 A 
ATOM     26  C   UNL     1       1.303  -1.282  -0.559  0.00  0.00    -0.025 A 
ATOM     27  C   UNL     1       0.069  -0.632  -0.639  0.00  0.00    +0.005 A 
ATOM     28  C   UNL     1       1.217  -2.788  -0.448  0.00  0.00    +0.042 C 
ATOM     29  C   UNL     1       2.573  -3.453  -0.297  0.00  0.00    +0.042 C 
ATOM     30  C   UNL     1       3.444  -3.199  -1.500  0.00  0.00    -0.025 A 
ATOM     31  C   UNL     1       3.632  -4.131  -2.496  0.00  0.00    +0.005 A 
ATOM     32  C   UNL     1       4.475  -3.817  -3.552  0.00  0.00    +0.000 A 
ATOM     33  C   UNL     1       5.115  -2.592  -3.599  0.00  0.00    +0.002 A 
ATOM     34  C   UNL     1       4.912  -1.656  -2.597  0.00  0.00    +0.024 A 
ATOM     35  C   UNL     1       4.058  -1.975  -1.557  0.00  0.00    +0.044 A 
ATOM     36  N   UNL     1       3.726  -1.072  -0.536  0.00  0.00    -0.239 N 
ATOM     37  C   UNL     1       4.611  -0.763   0.433  0.00  0.00    +0.234 C 
ATOM     38  O   UNL     1       4.305   0.021   1.306  0.00  0.00    -0.274 OA
ENDBRANCH  21  37
ENDBRANCH   1  21
TORSDOF 4
