REMARK  Name = ZINC58481698
REMARK  5 active torsions:
REMARK  status: ('A' for Active; 'I' for Inactive)
REMARK    1  A    between atoms: C_1  and  C_2
REMARK    2  A    between atoms: N_12  and  C_13
REMARK    3  A    between atoms: C_13  and  C_14
REMARK    4  A    between atoms: C_14  and  C_15
REMARK    5  A    between atoms: N_17  and  N_18
REMARK                            x       y       z     vdW  Elec       q    Type
REMARK                         _______ _______ _______ _____ _____    ______ ____
ROOT
ATOM      1  C   UNL     1       0.129   1.224   4.479  0.00  0.00    +0.231 C 
ATOM      2  O   UNL     1       1.152   1.875   4.505  0.00  0.00    -0.274 OA
ATOM      3  N   UNL     1      -0.756   1.318   5.490  0.00  0.00    -0.224 N 
ATOM      4  H   UNL     1      -1.574   0.798   5.469  0.00  0.00    +0.174 HD
ENDROOT
BRANCH   3   5
ATOM      5  N   UNL     1      -0.494   2.167   6.573  0.00  0.00    -0.137 N 
ATOM      6  C   UNL     1      -0.098   1.743   7.791  0.00  0.00    +0.263 C 
ATOM      7  O   UNL     1       0.092   0.599   8.144  0.00  0.00    -0.271 OA
ATOM      8  C   UNL     1       0.060   2.995   8.623  0.00  0.00    +0.114 C 
ATOM      9  C   UNL     1      -0.895   2.967   9.812  0.00  0.00    +0.035 C 
ATOM     10  C   UNL     1      -0.741   4.256  10.623  0.00  0.00    +0.003 C 
ATOM     11  C   UNL     1       0.704   4.381  11.111  0.00  0.00    +0.000 C 
ATOM     12  C   UNL     1       1.647   4.431   9.907  0.00  0.00    +0.003 C 
ATOM     13  C   UNL     1       1.503   3.143   9.093  0.00  0.00    +0.035 C 
ATOM     14  N   UNL     1      -0.296   4.082   7.703  0.00  0.00    -0.284 N 
ATOM     15  C   UNL     1      -0.600   3.501   6.527  0.00  0.00    +0.326 C 
ATOM     16  O   UNL     1      -0.937   4.118   5.535  0.00  0.00    -0.251 OA
ATOM     17  H   UNL     1      -0.306   5.032   7.901  0.00  0.00    +0.151 HD
ENDBRANCH   3   5
BRANCH   1  18
ATOM     18  C   UNL     1      -0.152   0.310   3.313  0.00  0.00    +0.116 C 
BRANCH  18  19
ATOM     19  C   UNL     1       1.002   0.390   2.312  0.00  0.00    +0.114 C 
BRANCH  19  30
ATOM     20  C   UNL     1      -0.019   1.526   0.010  0.00  0.00    +0.028 C 
ATOM     21  C   UNL     1       0.002  -0.004   0.002  0.00  0.00    +0.071 C 
ATOM     22  C   UNL     1       0.736  -0.507  -1.248  0.00  0.00    +0.027 C 
ATOM     23  C   UNL     1       0.684  -2.034  -1.270  0.00  0.00    +0.039 C 
ATOM     24  C   UNL     1       1.152  -2.597   0.046  0.00  0.00    -0.026 A 
ATOM     25  C   UNL     1       1.588  -3.911   0.096  0.00  0.00    +0.005 A 
ATOM     26  C   UNL     1       2.021  -4.457   1.289  0.00  0.00    +0.000 A 
ATOM     27  C   UNL     1       2.021  -3.694   2.443  0.00  0.00    +0.002 A 
ATOM     28  C   UNL     1       1.589  -2.383   2.401  0.00  0.00    +0.023 A 
ATOM     29  C   UNL     1       1.155  -1.831   1.201  0.00  0.00    +0.033 A 
ATOM     30  N   UNL     1       0.728  -0.498   1.180  0.00  0.00    -0.326 N 
ENDBRANCH  19  30
ENDBRANCH  18  19
ENDBRANCH   1  18
TORSDOF 4
