REMARK  Name = ZINC41638383
REMARK  8 active torsions:
REMARK  status: ('A' for Active; 'I' for Inactive)
REMARK    1  A    between atoms: C_1  and  N_2
REMARK    2  A    between atoms: N_2  and  C_3
REMARK    3  A    between atoms: C_7  and  C_10
REMARK    4  A    between atoms: C_10  and  N_11
REMARK    5  A    between atoms: C_12  and  C_14
REMARK    6  A    between atoms: N_16  and  C_17
REMARK    7  A    between atoms: C_20  and  S_23
REMARK    8  A    between atoms: S_23  and  C_24
REMARK                            x       y       z     vdW  Elec       q    Type
REMARK                         _______ _______ _______ _____ _____    ______ ____
ROOT
ATOM      1  N   UNL     1      -1.389  -2.935  -5.354  0.00  0.00    -0.303 N 
ATOM      2  C   UNL     1      -1.637  -3.542  -6.531  0.00  0.00    +0.300 C 
ATOM      3  O   UNL     1      -0.716  -3.886  -7.242  0.00  0.00    -0.265 OA
ATOM      4  H   UNL     1      -2.124  -2.660  -4.785  0.00  0.00    +0.149 HD
ENDROOT
BRANCH   2   5
ATOM      5  C   UNL     1      -3.046  -3.792  -6.959  0.00  0.00    +0.303 C 
ATOM      6  O   UNL     1      -3.967  -3.447  -6.247  0.00  0.00    -0.265 OA
ATOM      7  N   UNL     1      -3.294  -4.399  -8.137  0.00  0.00    -0.278 N 
ATOM      8  H   UNL     1      -2.562  -4.614  -8.736  0.00  0.00    +0.155 HD
BRANCH   7   9
ATOM      9  C   UNL     1      -4.608  -4.720  -8.494  0.00  0.00    +0.034 A 
ATOM     10  C   UNL     1      -4.869  -5.881  -9.210  0.00  0.00    +0.024 A 
ATOM     11  C   UNL     1      -6.165  -6.198  -9.563  0.00  0.00    +0.017 A 
ATOM     12  C   UNL     1      -7.209  -5.355  -9.203  0.00  0.00    +0.016 A 
ATOM     13  C   UNL     1      -6.948  -4.193  -8.486  0.00  0.00    +0.017 A 
ATOM     14  C   UNL     1      -5.652  -3.879  -8.129  0.00  0.00    +0.024 A 
BRANCH  12  15
ATOM     15  S   UNL     1      -8.864  -5.758  -9.654  0.00  0.00    -0.016 S 
BRANCH  15  16
ATOM     16  C   UNL     1      -9.848  -4.393  -8.978  0.00  0.00    +0.448 C 
ATOM     17  F   UNL     1      -9.426  -3.187  -9.548  0.00  0.00    -0.160 F 
ATOM     18  F   UNL     1     -11.200  -4.601  -9.275  0.00  0.00    -0.160 F 
ATOM     19  F   UNL     1      -9.679  -4.338  -7.590  0.00  0.00    -0.160 F 
ENDBRANCH  15  16
ENDBRANCH  12  15
ENDBRANCH   7   9
ENDBRANCH   2   5
BRANCH   1  20
ATOM     20  C   UNL     1      -0.007  -2.690  -4.933  0.00  0.00    +0.141 C 
BRANCH  20  27
ATOM     21  C   UNL     1      -0.027   1.457   0.016  0.00  0.00    +0.130 C 
ATOM     22  N   UNL     1       0.002  -0.007   0.004  0.00  0.00    -0.323 N 
ATOM     23  C   UNL     1       0.034  -0.750   1.266  0.00  0.00    +0.130 C 
ATOM     24  C   UNL     1       0.001  -0.692  -1.206  0.00  0.00    +0.098 A 
ATOM     25  C   UNL     1       0.022  -2.083  -1.211  0.00  0.00    +0.042 A 
ATOM     26  C   UNL     1       0.020  -2.752  -2.421  0.00  0.00    +0.010 A 
ATOM     27  C   UNL     1      -0.004  -2.004  -3.591  0.00  0.00    -0.014 A 
ATOM     28  C   UNL     1      -0.025  -0.626  -3.513  0.00  0.00    +0.089 A 
ATOM     29  N   UNL     1      -0.028  -0.015  -2.343  0.00  0.00    -0.349 N 
ATOM     30  H   UNL     1      -0.047   0.954  -2.316  0.00  0.00    +0.167 HD
ENDBRANCH  20  27
ENDBRANCH   1  20
TORSDOF 6
