REMARK  Name = ZINC06361181
REMARK  5 active torsions:
REMARK  status: ('A' for Active; 'I' for Inactive)
REMARK    1  A    between atoms: C_1  and  C_2
REMARK    2  A    between atoms: C_2  and  C_16
REMARK    3  A    between atoms: N_3  and  N_4
REMARK    4  A    between atoms: C_5  and  C_10
REMARK    5  A    between atoms: C_20  and  N_22
REMARK                            x       y       z     vdW  Elec       q    Type
REMARK                         _______ _______ _______ _____ _____    ______ ____
ROOT
ATOM      1  N   UNL     1       0.187  -2.015   1.243  0.00  0.00    -0.188 N 
ATOM      2  C   UNL     1      -0.764  -2.822   1.759  0.00  0.00    +0.184 A 
ATOM      3  N   UNL     1      -0.342  -4.082   1.633  0.00  0.00    -0.152 NA
ATOM      4  N   UNL     1       0.815  -4.088   1.068  0.00  0.00    -0.253 N 
ATOM      5  C   UNL     1       1.179  -2.818   0.804  0.00  0.00    +0.197 A 
ATOM      6  S   UNL     1       2.634  -2.316   0.053  0.00  0.00    -0.010 S 
ATOM      7  H   UNL     1       1.338  -4.879   0.863  0.00  0.00    +0.191 HD
ENDROOT
BRANCH   2   8
ATOM      8  C   UNL     1      -2.039  -2.390   2.355  0.00  0.00    +0.021 A 
ATOM      9  C   UNL     1      -2.361  -1.028   2.419  0.00  0.00    +0.011 A 
ATOM     10  C   UNL     1      -3.556  -0.632   2.978  0.00  0.00    +0.001 A 
ATOM     11  C   UNL     1      -4.439  -1.576   3.475  0.00  0.00    +0.000 A 
ATOM     12  C   UNL     1      -4.129  -2.925   3.415  0.00  0.00    +0.001 A 
ATOM     13  C   UNL     1      -2.940  -3.338   2.855  0.00  0.00    +0.011 A 
ENDBRANCH   2   8
BRANCH   1  16
ATOM     14  C   UNL     1       0.208   1.480  -0.079  0.00  0.00    +0.068 C 
ATOM     15  C   UNL     1       0.093  -0.020   0.006  0.00  0.00    +0.066 C 
ATOM     16  N   UNL     1       0.149  -0.616   1.173  0.00  0.00    -0.167 NA
BRANCH  15  17
ATOM     17  C   UNL     1      -0.083  -0.813  -1.215  0.00  0.00    -0.000 A 
ATOM     18  C   UNL     1      -0.979  -1.893  -1.232  0.00  0.00    +0.010 A 
ATOM     19  C   UNL     1      -1.137  -2.631  -2.384  0.00  0.00    +0.003 A 
ATOM     20  C   UNL     1      -0.416  -2.311  -3.523  0.00  0.00    +0.033 A 
ATOM     21  C   UNL     1       0.471  -1.246  -3.515  0.00  0.00    +0.127 A 
ATOM     22  C   UNL     1       0.639  -0.493  -2.374  0.00  0.00    +0.042 A 
BRANCH  21  23
ATOM     23  N   UNL     1       1.236  -0.915  -4.737  0.00  0.00    +0.056 N 
ATOM     24  O   UNL     1       1.151  -1.690  -5.798  0.00  0.00    -0.126 OA
ATOM     25  O   UNL     1       2.002   0.156  -4.764  0.00  0.00    -0.126 OA
ENDBRANCH  21  23
ENDBRANCH  15  17
ENDBRANCH   1  16
TORSDOF 4
