REMARK  Name = ZINC32092622
REMARK  2 active torsions:
REMARK  status: ('A' for Active; 'I' for Inactive)
REMARK    1  A    between atoms: C_15  and  C_24
REMARK    2  A    between atoms: C_16  and  C_17
REMARK                            x       y       z     vdW  Elec       q    Type
REMARK                         _______ _______ _______ _____ _____    ______ ____
ROOT
ATOM      1  C   UNL     1      -0.017   1.387   0.010  0.00  0.00    +0.000 A 
ATOM      2  C   UNL     1       1.151   2.121   0.003  0.00  0.00    +0.002 A 
ATOM      3  C   UNL     1       2.398   1.516  -0.013  0.00  0.00    +0.023 A 
ATOM      4  C   UNL     1       2.431   0.121  -0.020  0.00  0.00    +0.038 A 
ATOM      5  C   UNL     1       1.238  -0.613  -0.013  0.00  0.00    -0.006 A 
ATOM      6  C   UNL     1       0.002  -0.004   0.002  0.00  0.00    +0.007 A 
ATOM      7  C   UNL     1       1.635  -2.055  -0.022  0.00  0.00    +0.115 C 
ATOM      8  C   UNL     1       1.139  -2.768   1.237  0.00  0.00    +0.122 C 
ATOM      9  C   UNL     1      -0.302  -3.166   1.092  0.00  0.00    +0.219 C 
ATOM     10  O   UNL     1      -1.012  -3.131   2.075  0.00  0.00    -0.275 OA
ATOM     11  N   UNL     1      -0.843  -3.559  -0.074  0.00  0.00    -0.284 N 
ATOM     12  C   UNL     1      -0.057  -3.484  -1.260  0.00  0.00    +0.054 A 
ATOM     13  C   UNL     1       1.110  -2.766  -1.228  0.00  0.00    +0.032 A 
ATOM     14  S   UNL     1       1.757  -2.872  -2.758  0.00  0.00    -0.083 S 
ATOM     15  C   UNL     1       0.513  -3.897  -3.522  0.00  0.00    +0.110 A 
ATOM     16  C   UNL     1      -0.387  -4.096  -2.468  0.00  0.00    +0.025 A 
ATOM     17  C   UNL     1       3.148  -2.029  -0.037  0.00  0.00    +0.233 C 
ATOM     18  O   UNL     1       3.886  -2.991  -0.050  0.00  0.00    -0.274 OA
ATOM     19  N   UNL     1       3.521  -0.732  -0.035  0.00  0.00    -0.284 N 
ATOM     20  H   UNL     1      -1.754  -3.889  -0.107  0.00  0.00    +0.155 HD
ATOM     21  H   UNL     1       4.443  -0.433  -0.043  0.00  0.00    +0.155 HD
ENDROOT
BRANCH  16  22
ATOM     22  C   UNL     1      -1.615  -4.907  -2.627  0.00  0.00    -0.015 A 
ATOM     23  C   UNL     1      -1.769  -6.093  -1.909  0.00  0.00    +0.010 A 
ATOM     24  C   UNL     1      -2.915  -6.845  -2.061  0.00  0.00    +0.020 A 
ATOM     25  C   UNL     1      -3.913  -6.424  -2.924  0.00  0.00    +0.041 A 
ATOM     26  C   UNL     1      -3.766  -5.247  -3.640  0.00  0.00    +0.020 A 
ATOM     27  C   UNL     1      -2.626  -4.485  -3.491  0.00  0.00    +0.010 A 
ATOM     28 CL   UNL     1      -5.353  -7.375  -3.111  0.00  0.00    -0.084 Cl
ENDBRANCH  16  22
BRANCH  15  29
ATOM     29  C   UNL     1       0.451  -4.381  -4.848  0.00  0.00    +0.394 C 
ATOM     30  O   UNL     1       1.340  -4.102  -5.645  0.00  0.00    -0.240 OA
ATOM     31  O   UNL     1      -0.491  -5.081  -5.201  0.00  0.00    -0.240 OA
ENDBRANCH  15  29
TORSDOF 2
