REMARK  Name = ZINC33331903
REMARK  11 active torsions:
REMARK  status: ('A' for Active; 'I' for Inactive)
REMARK    1  A    between atoms: C_1  and  C_2
REMARK    2  A    between atoms: C_2  and  C_3
REMARK    3  A    between atoms: C_3  and  N_4
REMARK    4  A    between atoms: N_7  and  C_10
REMARK    5  A    between atoms: C_10  and  C_11
REMARK    6  A    between atoms: C_11  and  C_12
REMARK    7  A    between atoms: C_12  and  N_13
REMARK    8  A    between atoms: C_22  and  C_23
REMARK    9  A    between atoms: C_22  and  C_24
REMARK   10  A    between atoms: N_26  and  C_27
REMARK   11  A    between atoms: C_34  and  C_36
REMARK                            x       y       z     vdW  Elec       q    Type
REMARK                         _______ _______ _______ _____ _____    ______ ____
ROOT
ATOM      1  N   UNL     1      -2.175   1.378   1.198  0.00  0.00    -0.281 N 
ATOM      2  C   UNL     1      -2.879   1.600   0.064  0.00  0.00    +0.264 C 
ATOM      3  O   UNL     1      -4.096   1.629   0.060  0.00  0.00    -0.268 OA
ATOM      4  C   UNL     1      -2.098   1.802  -1.162  0.00  0.00    +0.109 A 
ATOM      5  C   UNL     1      -2.483   2.220  -2.402  0.00  0.00    +0.079 A 
ATOM      6  C   UNL     1      -1.335   2.267  -3.206  0.00  0.00    +0.154 A 
ATOM      7  C   UNL     1      -0.253   1.867  -2.422  0.00  0.00    +0.088 A 
ATOM      8  N   UNL     1      -0.724   1.573  -1.178  0.00  0.00    -0.331 N 
ATOM      9  C   UNL     1      -0.013   1.086   0.008  0.00  0.00    +0.157 C 
ATOM     10  C   UNL     1      -0.731   1.580   1.264  0.00  0.00    +0.128 C 
ATOM     11  C   UNL     1      -0.179   0.829   2.477  0.00  0.00    +0.043 C 
ATOM     12  C   UNL     1       0.886   1.936  -3.259  0.00  0.00    +0.071 A 
ATOM     13  C   UNL     1       0.469   2.353  -4.467  0.00  0.00    +0.105 A 
ATOM     14  O   UNL     1      -0.860   2.549  -4.438  0.00  0.00    -0.458 OA
ATOM     15  C   UNL     1       1.354   2.566  -5.668  0.00  0.00    +0.086 C 
ENDROOT
BRANCH  10  16
ATOM     16  C   UNL     1      -0.452   3.051   1.437  0.00  0.00    +0.238 C 
ATOM     17  O   UNL     1       0.455   3.415   2.156  0.00  0.00    -0.273 OA
ATOM     18  N   UNL     1      -1.209   3.961   0.793  0.00  0.00    -0.311 N 
ATOM     19  H   UNL     1      -2.031   3.630   0.141  0.00  0.00    +0.149 HD
BRANCH  18  20
ATOM     20  C   UNL     1      -0.938   5.391   0.962  0.00  0.00    +0.073 C 
ATOM     21  C   UNL     1      -1.651   5.901   2.216  0.00  0.00    +0.022 C 
ATOM     22  C   UNL     1      -1.367   7.394   2.392  0.00  0.00    +0.002 C 
ATOM     23  C   UNL     1      -1.878   8.158   1.169  0.00  0.00    +0.000 C 
ATOM     24  C   UNL     1      -1.165   7.648  -0.085  0.00  0.00    +0.002 C 
ATOM     25  C   UNL     1      -1.449   6.154  -0.261  0.00  0.00    +0.022 C 
ENDBRANCH  18  20
ENDBRANCH  10  16
BRANCH   1  26
ATOM     26  C   UNL     1      -2.883   0.922   2.397  0.00  0.00    +0.110 C 
BRANCH  26  27
ATOM     27  C   UNL     1      -2.920  -0.607   2.417  0.00  0.00    +0.034 C 
BRANCH  27  28
ATOM     28  C   UNL     1      -3.660  -1.083   3.668  0.00  0.00    +0.086 C 
BRANCH  28  32
ATOM     29  N   UNL     1      -4.948  -5.101   3.884  0.00  0.00    +0.381 N 
ATOM     30  C   UNL     1      -4.130  -4.579   4.988  0.00  0.00    -0.063 C 
ATOM     31  C   UNL     1      -4.184  -3.050   4.981  0.00  0.00    +0.066 C 
ATOM     32  N   UNL     1      -3.695  -2.551   3.687  0.00  0.00    -0.306 NA
ATOM     33  C   UNL     1      -4.513  -3.073   2.583  0.00  0.00    +0.066 C 
ATOM     34  C   UNL     1      -4.460  -4.602   2.590  0.00  0.00    -0.063 C 
ATOM     35  H   UNL     1      -5.977  -4.737   4.021  0.00  0.00    -0.082 HD
BRANCH  29  36
ATOM     36  C   UNL     1      -4.984  -6.569   3.902  0.00  0.00    -0.079 C 
BRANCH  36  38
ATOM     37  C   UNL     1      -6.069  -8.596   2.925  0.00  0.00    +0.002 C 
ATOM     38  C   UNL     1      -6.032  -7.066   2.905  0.00  0.00    -0.022 C 
ENDBRANCH  36  38
ENDBRANCH  29  36
ENDBRANCH  28  32
ENDBRANCH  27  28
ENDBRANCH  26  27
ENDBRANCH   1  26
TORSDOF 8
