REMARK  Name = ZINC39549354
REMARK  6 active torsions:
REMARK  status: ('A' for Active; 'I' for Inactive)
REMARK    1  A    between atoms: C_3  and  S_6
REMARK    2  A    between atoms: S_6  and  N_9
REMARK    3  A    between atoms: N_9  and  C_10
REMARK    4  A    between atoms: C_10  and  C_11
REMARK    5  A    between atoms: C_11  and  C_12
REMARK    6  A    between atoms: N_14  and  C_15
REMARK                            x       y       z     vdW  Elec       q    Type
REMARK                         _______ _______ _______ _____ _____    ______ ____
ROOT
ATOM      1  C   UNL     1       7.148   1.045   5.716  0.00  0.00    +0.218 C 
ATOM      2  O   UNL     1       8.122   0.902   6.424  0.00  0.00    -0.275 OA
ATOM      3  N   UNL     1       6.178   0.109   5.707  0.00  0.00    -0.285 N 
ATOM      4  H   UNL     1       5.369   0.255   5.193  0.00  0.00    +0.155 HD
ENDROOT
BRANCH   3   5
ATOM      5  C   UNL     1       6.340  -1.074   6.440  0.00  0.00    +0.037 A 
ATOM      6  C   UNL     1       5.836  -2.270   5.947  0.00  0.00    +0.027 A 
ATOM      7  C   UNL     1       5.996  -3.438   6.668  0.00  0.00    +0.051 A 
ATOM      8  C   UNL     1       6.658  -3.419   7.885  0.00  0.00    +0.167 A 
ATOM      9  C   UNL     1       7.163  -2.220   8.383  0.00  0.00    +0.169 A 
ATOM     10  C   UNL     1       7.008  -1.051   7.657  0.00  0.00    +0.072 A 
ATOM     11  O   UNL     1       7.766  -2.464   9.584  0.00  0.00    -0.447 OA
ATOM     12  C   UNL     1       7.280  -3.749  10.000  0.00  0.00    +0.254 C 
ATOM     13  O   UNL     1       6.942  -4.416   8.775  0.00  0.00    -0.448 OA
ATOM     14  C   UNL     1       6.044  -3.589  10.877  0.00  0.00    +0.093 C 
ATOM     15  C   UNL     1       6.420  -2.845  12.161  0.00  0.00    +0.008 C 
ATOM     16  C   UNL     1       7.498  -3.634  12.909  0.00  0.00    +0.000 C 
ATOM     17  C   UNL     1       8.739  -3.769  12.025  0.00  0.00    +0.008 C 
ATOM     18  C   UNL     1       8.371  -4.516  10.740  0.00  0.00    +0.093 C 
ENDBRANCH   3   5
BRANCH   1  19
ATOM     19  C   UNL     1       7.021   2.270   4.847  0.00  0.00    +0.113 C 
BRANCH  19  20
ATOM     20  C   UNL     1       8.247   3.164   5.045  0.00  0.00    +0.115 C 
BRANCH  20  21
ATOM     21  N   UNL     1       8.124   4.355   4.200  0.00  0.00    -0.189 NA
ATOM     22  H   UNL     1       7.471   4.375   3.482  0.00  0.00    +0.148 HD
BRANCH  21  23
ATOM     23  S   UNL     1       9.098   5.666   4.470  0.00  0.00    +0.065 S 
ATOM     24  O   UNL     1       9.030   5.943   5.862  0.00  0.00    -0.153 OA
ATOM     25  O   UNL     1       8.761   6.633   3.484  0.00  0.00    -0.153 OA
BRANCH  23  28
ATOM     26  C   UNL     1      12.746   4.756   2.942  0.00  0.00    +0.010 A 
ATOM     27  C   UNL     1      11.441   5.211   2.969  0.00  0.00    +0.036 A 
ATOM     28  C   UNL     1      10.753   5.163   4.136  0.00  0.00    +0.142 A 
ATOM     29  S   UNL     1      11.960   4.458   5.248  0.00  0.00    -0.077 S 
ATOM     30  C   UNL     1      13.299   4.275   4.082  0.00  0.00    +0.047 A 
ENDBRANCH  23  28
ENDBRANCH  21  23
ENDBRANCH  20  21
ENDBRANCH  19  20
ENDBRANCH   1  19
TORSDOF 6
