REMARK  Name = ZINC09872496
REMARK  5 active torsions:
REMARK  status: ('A' for Active; 'I' for Inactive)
REMARK    1  A    between atoms: C_4  and  N_7
REMARK    2  A    between atoms: C_11  and  S_12
REMARK    3  A    between atoms: S_12  and  C_13
REMARK    4  A    between atoms: C_13  and  C_14
REMARK    5  A    between atoms: N_16  and  C_17
REMARK                            x       y       z     vdW  Elec       q    Type
REMARK                         _______ _______ _______ _____ _____    ______ ____
ROOT
ATOM      1  C   UNL     1      -2.463  -0.220   0.505  0.00  0.00    +0.227 C 
ATOM      2  O   UNL     1      -1.476  -0.697   1.024  0.00  0.00    -0.275 OA
ATOM      3  N   UNL     1      -2.428   1.037   0.019  0.00  0.00    -0.285 N 
ATOM      4  H   UNL     1      -3.236   1.446  -0.326  0.00  0.00    +0.155 HD
ENDROOT
BRANCH   3   5
ATOM      5  C   UNL     1      -1.223   1.752   0.012  0.00  0.00    +0.037 A 
ATOM      6  C   UNL     1      -1.230   3.127   0.199  0.00  0.00    +0.027 A 
ATOM      7  C   UNL     1      -0.043   3.834   0.186  0.00  0.00    +0.051 A 
ATOM      8  C   UNL     1       1.158   3.172  -0.007  0.00  0.00    +0.167 A 
ATOM      9  C   UNL     1       1.170   1.791  -0.189  0.00  0.00    +0.169 A 
ATOM     10  C   UNL     1      -0.021   1.083  -0.177  0.00  0.00    +0.072 A 
ATOM     11  O   UNL     1       2.462   1.382  -0.357  0.00  0.00    -0.447 OA
ATOM     12  C   UNL     1       3.271   2.470   0.113  0.00  0.00    +0.254 C 
ATOM     13  O   UNL     1       2.445   3.631  -0.062  0.00  0.00    -0.448 OA
ATOM     14  C   UNL     1       4.538   2.590  -0.727  0.00  0.00    +0.093 C 
ATOM     15  C   UNL     1       5.389   1.329  -0.552  0.00  0.00    +0.008 C 
ATOM     16  C   UNL     1       5.750   1.161   0.925  0.00  0.00    +0.000 C 
ATOM     17  C   UNL     1       4.471   1.021   1.753  0.00  0.00    +0.008 C 
ATOM     18  C   UNL     1       3.616   2.280   1.585  0.00  0.00    +0.093 C 
ENDBRANCH   3   5
BRANCH   1  19
ATOM     19  C   UNL     1      -3.729  -1.031   0.405  0.00  0.00    +0.173 C 
BRANCH  19  20
ATOM     20  S   UNL     1      -3.460  -2.662   1.142  0.00  0.00    -0.076 S 
BRANCH  20  25
ATOM     21  N   UNL     1      -5.446  -4.633   1.261  0.00  0.00    -0.277 N 
ATOM     22  C   UNL     1      -6.754  -4.740   0.867  0.00  0.00    +0.230 A 
ATOM     23  N   UNL     1      -7.084  -3.610   0.309  0.00  0.00    -0.137 NA
ATOM     24  N   UNL     1      -6.087  -2.800   0.326  0.00  0.00    -0.122 NA
ATOM     25  C   UNL     1      -5.052  -3.376   0.893  0.00  0.00    +0.196 A 
BRANCH  21  29
ATOM     26  C   UNL     1      -3.147  -7.535   3.178  0.00  0.00    +0.000 A 
ATOM     27  C   UNL     1      -4.400  -7.214   3.667  0.00  0.00    +0.002 A 
ATOM     28  C   UNL     1      -5.164  -6.253   3.034  0.00  0.00    +0.026 A 
ATOM     29  C   UNL     1      -4.673  -5.610   1.906  0.00  0.00    +0.050 A 
ATOM     30  C   UNL     1      -3.417  -5.938   1.414  0.00  0.00    +0.026 A 
ATOM     31  C   UNL     1      -2.655  -6.896   2.055  0.00  0.00    +0.002 A 
ENDBRANCH  21  29
ENDBRANCH  20  25
ENDBRANCH  19  20
ENDBRANCH   1  19
TORSDOF 5
