REMARK  Name = ZINC01887381
REMARK  11 active torsions:
REMARK  status: ('A' for Active; 'I' for Inactive)
REMARK    1  A    between atoms: C_1  and  C_2
REMARK    2  A    between atoms: C_2  and  C_3
REMARK    3  A    between atoms: C_3  and  C_4
REMARK    4  A    between atoms: C_4  and  C_5
REMARK    5  A    between atoms: C_8  and  N_11
REMARK    6  A    between atoms: C_12  and  N_40
REMARK    7  A    between atoms: C_13  and  C_24
REMARK    8  A    between atoms: N_26  and  C_27
REMARK    9  A    between atoms: C_28  and  C_36
REMARK   10  A    between atoms: C_36  and  O_38
REMARK   11  A    between atoms: O_38  and  C_39
REMARK                            x       y       z     vdW  Elec       q    Type
REMARK                         _______ _______ _______ _____ _____    ______ ____
ROOT
ATOM      1  N   UNL     1       3.507  -3.921   5.830  0.00  0.00    -0.280 N 
ATOM      2  C   UNL     1       4.140  -5.125   5.917  0.00  0.00    +0.117 A 
ATOM      3  C   UNL     1       4.714  -5.283   7.173  0.00  0.00    +0.104 A 
ATOM      4  C   UNL     1       4.405  -4.060   7.932  0.00  0.00    +0.123 A 
ATOM      5  C   UNL     1       3.631  -3.219   7.014  0.00  0.00    +0.166 A 
ATOM      6  N   UNL     1       3.209  -2.039   7.417  0.00  0.00    -0.225 NA
ATOM      7  C   UNL     1       3.492  -1.618   8.656  0.00  0.00    +0.092 A 
ATOM      8  C   UNL     1       3.044  -0.358   9.096  0.00  0.00    +0.030 A 
ATOM      9  C   UNL     1       3.336   0.062  10.357  0.00  0.00    +0.002 A 
ATOM     10  C   UNL     1       4.074  -0.738  11.226  0.00  0.00    +0.002 A 
ATOM     11  C   UNL     1       4.524  -1.962  10.838  0.00  0.00    +0.030 A 
ATOM     12  C   UNL     1       4.242  -2.431   9.541  0.00  0.00    +0.090 A 
ATOM     13  N   UNL     1       4.675  -3.636   9.150  0.00  0.00    -0.241 NA
ENDROOT
BRANCH   1  17
ATOM     14  C   UNL     1       1.492  -2.540   2.454  0.00  0.00    -0.047 A 
ATOM     15  C   UNL     1       2.858  -2.746   2.406  0.00  0.00    +0.005 A 
ATOM     16  C   UNL     1       3.529  -3.203   3.523  0.00  0.00    +0.026 A 
ATOM     17  C   UNL     1       2.830  -3.457   4.696  0.00  0.00    +0.050 A 
ATOM     18  C   UNL     1       1.458  -3.249   4.741  0.00  0.00    +0.026 A 
ATOM     19  C   UNL     1       0.793  -2.786   3.622  0.00  0.00    +0.005 A 
BRANCH  14  20
ATOM     20  C   UNL     1       0.763  -2.041   1.233  0.00  0.00    +0.035 C 
BRANCH  20  21
ATOM     21  C   UNL     1       0.742  -0.511   1.242  0.00  0.00    +0.004 C 
BRANCH  21  23
ATOM     22  C   UNL     1      -0.019   1.526   0.010  0.00  0.00    +0.004 C 
ATOM     23  C   UNL     1       0.002  -0.004   0.002  0.00  0.00    -0.003 C 
ENDBRANCH  21  23
ENDBRANCH  20  21
ENDBRANCH  14  20
ENDBRANCH   1  17
BRANCH   3  24
ATOM     24  C   UNL     1       5.453  -6.403   7.634  0.00  0.00    +0.254 C 
ATOM     25  O   UNL     1       6.660  -6.440   7.481  0.00  0.00    -0.270 OA
ATOM     26  N   UNL     1       4.818  -7.425   8.241  0.00  0.00    -0.275 N 
ATOM     27  H   UNL     1       3.856  -7.395   8.363  0.00  0.00    +0.156 HD
BRANCH  26  28
ATOM     28  C   UNL     1       5.540  -8.518   8.691  0.00  0.00    +0.087 A 
ATOM     29  C   UNL     1       5.059  -9.654   9.327  0.00  0.00    +0.091 A 
ATOM     30  C   UNL     1       6.032 -10.666   9.701  0.00  0.00    -0.021 A 
ATOM     31  C   UNL     1       7.305 -10.358   9.372  0.00  0.00    -0.004 A 
ATOM     32  S   UNL     1       7.195  -8.777   8.586  0.00  0.00    -0.077 S 
ATOM     33  C   UNL     1       8.525 -11.188   9.623  0.00  0.00    +0.043 C 
ATOM     34  C   UNL     1       8.167 -12.275  10.648  0.00  0.00    +0.005 C 
ATOM     35  C   UNL     1       6.859 -12.946  10.222  0.00  0.00    +0.005 C 
ATOM     36  C   UNL     1       5.691 -11.973  10.402  0.00  0.00    +0.037 C 
BRANCH  29  37
ATOM     37  C   UNL     1       3.633  -9.825   9.609  0.00  0.00    +0.342 C 
ATOM     38  O   UNL     1       2.912 -10.366   8.792  0.00  0.00    -0.245 OA
BRANCH  37  39
ATOM     39  O   UNL     1       3.119  -9.384  10.775  0.00  0.00    -0.464 OA
ATOM     40  C   UNL     1       1.719  -9.584  10.984  0.00  0.00    +0.280 C 
ENDBRANCH  37  39
ENDBRANCH  29  37
ENDBRANCH  26  28
ENDBRANCH   3  24
BRANCH   2  41
ATOM     41  N   UNL     1       4.202  -6.050   4.907  0.00  0.00    -0.343 N 
ATOM     42  H   UNL     1       3.776  -5.867   4.055  0.00  0.00    +0.144 HD
ATOM     43  H   UNL     1       4.673  -6.887   5.044  0.00  0.00    +0.144 HD
ENDBRANCH   2  41
TORSDOF 9
