REMARK  Name = ZINC60392254
REMARK  9 active torsions:
REMARK  status: ('A' for Active; 'I' for Inactive)
REMARK    1  A    between atoms: C_1  and  C_2
REMARK    2  A    between atoms: N_11  and  C_15
REMARK    3  A    between atoms: C_15  and  C_16
REMARK    4  A    between atoms: N_18  and  C_19
REMARK    5  A    between atoms: C_19  and  C_20
REMARK    6  A    between atoms: C_20  and  C_22
REMARK    7  A    between atoms: C_20  and  N_28
REMARK    8  A    between atoms: N_28  and  C_29
REMARK    9  A    between atoms: N_28  and  C_30
REMARK                            x       y       z     vdW  Elec       q    Type
REMARK                         _______ _______ _______ _____ _____    ______ ____
ROOT
ATOM      1  C   UNL     1       3.349   2.915   2.586  0.00  0.00    +0.231 C 
ATOM      2  O   UNL     1       2.327   3.252   2.027  0.00  0.00    -0.274 OA
ATOM      3  N   UNL     1       4.336   3.812   2.784  0.00  0.00    -0.315 N 
ATOM      4  H   UNL     1       5.153   3.542   3.232  0.00  0.00    +0.149 HD
ENDROOT
BRANCH   1   5
ATOM      5  C   UNL     1       3.516   1.494   3.059  0.00  0.00    +0.213 C 
BRANCH   5  15
ATOM      6  C   UNL     1      -0.203   1.470   0.644  0.00  0.00    +0.010 C 
ATOM      7  C   UNL     1      -0.142  -0.057   0.572  0.00  0.00    +0.018 C 
ATOM      8  C   UNL     1       0.405  -0.482  -0.793  0.00  0.00    +0.006 C 
ATOM      9  C   UNL     1       0.485  -2.008  -0.857  0.00  0.00    +0.000 C 
ATOM     10  C   UNL     1       1.424  -2.517   0.238  0.00  0.00    +0.003 C 
ATOM     11  C   UNL     1       0.881  -2.101   1.608  0.00  0.00    +0.035 C 
ATOM     12  C   UNL     1       0.772  -0.582   1.674  0.00  0.00    +0.115 C 
ATOM     13  C   UNL     1       2.140   0.051   1.570  0.00  0.00    +0.247 C 
ATOM     14  O   UNL     1       2.918  -0.029   0.644  0.00  0.00    -0.273 OA
ATOM     15  N   UNL     1       2.315   0.724   2.727  0.00  0.00    -0.215 N 
ATOM     16  C   UNL     1       1.253   0.601   3.533  0.00  0.00    +0.310 C 
ATOM     17  O   UNL     1       1.175   1.118   4.630  0.00  0.00    -0.252 OA
ATOM     18  N   UNL     1       0.282  -0.159   2.992  0.00  0.00    -0.285 N 
ATOM     19  H   UNL     1      -0.572  -0.383   3.394  0.00  0.00    +0.151 HD
ENDBRANCH   5  15
ENDBRANCH   1   5
BRANCH   3  20
ATOM     20  C   UNL     1       4.173   5.193   2.325  0.00  0.00    +0.093 C 
BRANCH  20  21
ATOM     21  C   UNL     1       5.379   6.024   2.770  0.00  0.00    -0.021 C 
BRANCH  21  22
ATOM     22  C   UNL     1       6.622   5.508   2.092  0.00  0.00    -0.059 A 
ATOM     23  C   UNL     1       6.901   5.875   0.789  0.00  0.00    +0.002 A 
ATOM     24  C   UNL     1       8.041   5.402   0.167  0.00  0.00    +0.000 A 
ATOM     25  C   UNL     1       8.903   4.563   0.849  0.00  0.00    +0.000 A 
ATOM     26  C   UNL     1       8.624   4.197   2.152  0.00  0.00    +0.000 A 
ATOM     27  C   UNL     1       7.486   4.673   2.776  0.00  0.00    +0.002 A 
ENDBRANCH  21  22
BRANCH  21  28
ATOM     28  N   UNL     1       5.167   7.430   2.402  0.00  0.00    +0.382 N 
ATOM     29  C   UNL     1       3.956   7.933   3.064  0.00  0.00    -0.096 C 
ATOM     30  C   UNL     1       6.325   8.227   2.828  0.00  0.00    -0.096 C 
ATOM     31  H   UNL     1       5.059   7.503   1.401  0.00  0.00    -0.082 HD
ENDBRANCH  21  28
ENDBRANCH  20  21
ENDBRANCH   3  20
TORSDOF 6
