REMARK  Name = ZINC24034009
REMARK  4 active torsions:
REMARK  status: ('A' for Active; 'I' for Inactive)
REMARK    1  A    between atoms: C_6  and  N_7
REMARK    2  A    between atoms: C_8  and  C_10
REMARK    3  A    between atoms: C_10  and  C_11
REMARK    4  A    between atoms: N_17  and  C_18
REMARK                            x       y       z     vdW  Elec       q    Type
REMARK                         _______ _______ _______ _____ _____    ______ ____
ROOT
ATOM      1  C   UNL     1      -2.181  -4.325  -0.316  0.00  0.00    +0.149 C 
ATOM      2  C   UNL     1      -3.463  -5.137  -0.395  0.00  0.00    +0.232 C 
ATOM      3  O   UNL     1      -4.275  -5.149   0.505  0.00  0.00    -0.274 OA
ATOM      4  N   UNL     1      -3.638  -5.830  -1.508  0.00  0.00    -0.264 N 
ATOM      5  C   UNL     1      -2.720  -5.822  -2.537  0.00  0.00    +0.161 C 
ATOM      6  N   UNL     1      -2.779  -6.462  -3.680  0.00  0.00    -0.226 NA
ATOM      7  S   UNL     1      -1.429  -4.735  -1.946  0.00  0.00    -0.077 S 
ATOM      8  H   UNL     1      -4.442  -6.364  -1.603  0.00  0.00    +0.157 HD
ENDROOT
BRANCH   6   9
ATOM      9  C   UNL     1      -1.763  -6.332  -4.592  0.00  0.00    +0.070 A 
ATOM     10  C   UNL     1      -1.231  -5.072  -4.873  0.00  0.00    +0.031 A 
ATOM     11  C   UNL     1      -0.210  -4.945  -5.792  0.00  0.00    +0.051 A 
ATOM     12  C   UNL     1       0.294  -6.066  -6.438  0.00  0.00    +0.162 A 
ATOM     13  C   UNL     1      -0.230  -7.324  -6.160  0.00  0.00    +0.164 A 
ATOM     14  C   UNL     1      -1.253  -7.459  -5.236  0.00  0.00    +0.077 A 
ATOM     15  O   UNL     1       0.259  -8.434  -6.779  0.00  0.00    -0.485 OA
ATOM     16  C   UNL     1       1.030  -8.222  -7.966  0.00  0.00    +0.270 C 
ATOM     17  C   UNL     1       2.035  -7.094  -7.691  0.00  0.00    +0.270 C 
ATOM     18  O   UNL     1       1.300  -5.915  -7.343  0.00  0.00    -0.485 OA
ENDBRANCH   6   9
BRANCH   1  19
ATOM     19  C   UNL     1      -2.478  -2.828  -0.204  0.00  0.00    +0.120 C 
BRANCH  19  21
ATOM     20  N   UNL     1      -1.200  -0.722   0.010  0.00  0.00    -0.285 N 
ATOM     21  C   UNL     1      -1.183  -2.065  -0.099  0.00  0.00    +0.219 C 
ATOM     22  O   UNL     1      -0.126  -2.659  -0.113  0.00  0.00    -0.275 OA
ATOM     23  H   UNL     1      -2.044  -0.252   0.098  0.00  0.00    +0.155 HD
BRANCH  20  29
ATOM     24  C   UNL     1       1.072  -0.453  -0.766  0.00  0.00    +0.024 A 
ATOM     25  C   UNL     1       2.256   0.258  -0.778  0.00  0.00    +0.017 A 
ATOM     26  C   UNL     1       2.377   1.416  -0.032  0.00  0.00    +0.018 A 
ATOM     27  C   UNL     1       1.312   1.866   0.729  0.00  0.00    +0.017 A 
ATOM     28  C   UNL     1       0.126   1.159   0.745  0.00  0.00    +0.024 A 
ATOM     29  C   UNL     1       0.002  -0.004  -0.004  0.00  0.00    +0.033 A 
ATOM     30 BR   UNL     1       4.000   2.387  -0.051  0.00  0.00    -0.050 Br
ENDBRANCH  20  29
ENDBRANCH  19  21
ENDBRANCH   1  19
TORSDOF 4
