REMARK  Name = ZINC22287044
REMARK  9 active torsions:
REMARK  status: ('A' for Active; 'I' for Inactive)
REMARK    1  A    between atoms: C_1  and  C_2
REMARK    2  A    between atoms: N_13  and  C_26
REMARK    3  A    between atoms: C_14  and  S_16
REMARK    4  A    between atoms: S_16  and  C_17
REMARK    5  A    between atoms: C_17  and  C_18
REMARK    6  A    between atoms: C_18  and  C_20
REMARK    7  A    between atoms: C_20  and  C_24
REMARK    8  A    between atoms: C_21  and  C_22
REMARK    9  A    between atoms: C_21  and  N_23
REMARK                            x       y       z     vdW  Elec       q    Type
REMARK                         _______ _______ _______ _____ _____    ______ ____
ROOT
ATOM      1  C   UNL     1       8.137   5.783  -5.431  0.00  0.00    +0.008 C 
ATOM      2  C   UNL     1       7.347   5.081  -4.325  0.00  0.00    -0.009 C 
ATOM      3  C   UNL     1       5.853   5.119  -4.658  0.00  0.00    +0.008 C 
ATOM      4  C   UNL     1       5.083   4.210  -3.699  0.00  0.00    +0.037 C 
ATOM      5  C   UNL     1       5.448   4.586  -2.265  0.00  0.00    -0.023 A 
ATOM      6  C   UNL     1       6.564   5.295  -2.002  0.00  0.00    -0.004 A 
ATOM      7  S   UNL     1       6.578   5.495  -0.241  0.00  0.00    -0.073 S 
ATOM      8  C   UNL     1       5.079   4.623   0.138  0.00  0.00    +0.117 A 
ATOM      9  C   UNL     1       4.618   4.204  -1.121  0.00  0.00    +0.076 A 
ATOM     10  C   UNL     1       3.397   3.458  -1.122  0.00  0.00    +0.268 A 
ATOM     11  O   UNL     1       2.922   3.053  -2.169  0.00  0.00    -0.267 OA
ATOM     12  N   UNL     1       2.781   3.210   0.048  0.00  0.00    -0.253 N 
ATOM     13  C   UNL     1       3.297   3.661   1.230  0.00  0.00    +0.178 A 
ATOM     14  N   UNL     1       4.423   4.345   1.259  0.00  0.00    -0.215 NA
ATOM     15  C   UNL     1       7.572   5.802  -2.988  0.00  0.00    +0.046 C 
ENDROOT
BRANCH  12  16
ATOM     16  C   UNL     1       1.584   2.481   0.054  0.00  0.00    +0.087 A 
ATOM     17  C   UNL     1       1.613   1.098   0.169  0.00  0.00    +0.029 A 
ATOM     18  C   UNL     1       0.432   0.381   0.175  0.00  0.00    +0.002 A 
ATOM     19  C   UNL     1      -0.779   1.039   0.061  0.00  0.00    +0.003 A 
ATOM     20  C   UNL     1      -0.814   2.417  -0.047  0.00  0.00    +0.040 A 
ATOM     21  C   UNL     1       0.365   3.141  -0.054  0.00  0.00    +0.147 A 
ATOM     22  F   UNL     1       0.332   4.487  -0.166  0.00  0.00    -0.203 F 
ENDBRANCH  12  16
BRANCH  13  23
ATOM     23  S   UNL     1       2.450   3.317   2.737  0.00  0.00    -0.079 S 
BRANCH  23  24
ATOM     24  C   UNL     1       3.560   4.130   3.914  0.00  0.00    +0.157 C 
BRANCH  24  25
ATOM     25  C   UNL     1       3.021   3.961   5.311  0.00  0.00    +0.185 C 
ATOM     26  O   UNL     1       1.987   3.351   5.493  0.00  0.00    -0.290 OA
BRANCH  25  27
ATOM     27  C   UNL     1       3.720   4.514   6.411  0.00  0.00    +0.111 C 
ATOM     28  C   UNL     1       3.172   4.453   7.680  0.00  0.00    +0.019 C 
ATOM     29  C   UNL     1       1.894   3.689   7.913  0.00  0.00    +0.061 C 
BRANCH  28  30
ATOM     30  N   UNL     1       3.781   5.078   8.708  0.00  0.00    -0.360 N 
ATOM     31  H   UNL     1       3.346   5.030   9.717  0.00  0.00    +0.142 HD
ATOM     32  H   UNL     1       4.714   5.636   8.538  0.00  0.00    +0.142 HD
ENDBRANCH  28  30
BRANCH  27  33
ATOM     33  C   UNL     1       4.994   5.136   6.210  0.00  0.00    +0.104 C 
ATOM     34  N   UNL     1       6.005   5.629   6.051  0.00  0.00    -0.191 NA
ENDBRANCH  27  33
ENDBRANCH  25  27
ENDBRANCH  24  25
ENDBRANCH  23  24
ENDBRANCH  13  23
TORSDOF 7
