REMARK  Name = ZINC09813326
REMARK  8 active torsions:
REMARK  status: ('A' for Active; 'I' for Inactive)
REMARK    1  A    between atoms: C_1  and  C_2
REMARK    2  A    between atoms: C_2  and  C_4
REMARK    3  A    between atoms: C_2  and  O_17
REMARK    4  A    between atoms: N_6  and  C_7
REMARK    5  A    between atoms: C_10  and  S_13
REMARK    6  A    between atoms: S_13  and  N_16
REMARK    7  A    between atoms: O_17  and  C_18
REMARK    8  A    between atoms: C_18  and  C_20
REMARK                            x       y       z     vdW  Elec       q    Type
REMARK                         _______ _______ _______ _____ _____    ______ ____
ROOT
ATOM      1  C   UNL     1       1.340   2.876  -1.232  0.00  0.00    +0.062 C 
ATOM      2  C   UNL     1       1.280   1.980   0.007  0.00  0.00    +0.259 C 
ENDROOT
BRANCH   2   3
ATOM      3  C   UNL     1      -0.014   1.209   0.007  0.00  0.00    +0.258 C 
ATOM      4  O   UNL     1       0.002  -0.004  -0.008  0.00  0.00    -0.271 OA
ATOM      5  N   UNL     1      -1.191   1.867   0.018  0.00  0.00    -0.282 N 
ATOM      6  H   UNL     1      -1.205   2.833   0.098  0.00  0.00    +0.155 HD
BRANCH   5   7
ATOM      7  C   UNL     1      -2.391   1.155  -0.086  0.00  0.00    +0.034 A 
ATOM      8  C   UNL     1      -3.468   1.704  -0.769  0.00  0.00    +0.025 A 
ATOM      9  C   UNL     1      -4.650   0.997  -0.875  0.00  0.00    +0.030 A 
ATOM     10  C   UNL     1      -4.764  -0.252  -0.292  0.00  0.00    +0.105 A 
ATOM     11  C   UNL     1      -3.696  -0.798   0.395  0.00  0.00    +0.030 A 
ATOM     12  C   UNL     1      -2.510  -0.099   0.499  0.00  0.00    +0.025 A 
BRANCH  10  13
ATOM     13  S   UNL     1      -6.276  -1.148  -0.423  0.00  0.00    +0.056 S 
ATOM     14  O   UNL     1      -6.941  -0.656  -1.579  0.00  0.00    -0.153 OA
ATOM     15  O   UNL     1      -5.949  -2.521  -0.259  0.00  0.00    -0.153 OA
BRANCH  13  16
ATOM     16  N   UNL     1      -7.211  -0.726   0.876  0.00  0.00    -0.204 NA
ATOM     17  H   UNL     1      -8.178  -0.732   0.801  0.00  0.00    +0.144 HD
ATOM     18  H   UNL     1      -6.791  -0.471   1.713  0.00  0.00    +0.144 HD
ENDBRANCH  13  16
ENDBRANCH  10  13
ENDBRANCH   5   7
ENDBRANCH   2   3
BRANCH   2  19
ATOM     19  O   UNL     1       2.397   1.052  -0.012  0.00  0.00    -0.448 OA
BRANCH  19  20
ATOM     20  C   UNL     1       3.538   1.453   0.585  0.00  0.00    +0.347 C 
ATOM     21  O   UNL     1       3.597   2.550   1.109  0.00  0.00    -0.244 OA
BRANCH  20  22
ATOM     22  C   UNL     1       4.704   0.569   0.605  0.00  0.00    +0.097 A 
ATOM     23  C   UNL     1       5.950   0.781   1.154  0.00  0.00    +0.026 A 
ATOM     24  C   UNL     1       6.909  -0.228   1.036  0.00  0.00    -0.036 A 
ATOM     25  C   UNL     1       6.556  -1.327   0.344  0.00  0.00    -0.006 A 
ATOM     26  S   UNL     1       4.888  -1.070  -0.070  0.00  0.00    -0.086 S 
ATOM     27  C   UNL     1       7.322  -2.547  -0.103  0.00  0.00    +0.043 C 
ATOM     28  C   UNL     1       8.793  -2.488   0.311  0.00  0.00    +0.005 C 
ATOM     29  C   UNL     1       8.966  -2.865   1.774  0.00  0.00    +0.000 C 
ATOM     30  C   UNL     1       7.855  -2.338   2.658  0.00  0.00    +0.000 C 
ATOM     31  C   UNL     1       8.221  -0.894   3.023  0.00  0.00    +0.005 C 
ATOM     32  C   UNL     1       8.242  -0.051   1.749  0.00  0.00    +0.036 C 
ENDBRANCH  20  22
ENDBRANCH  19  20
ENDBRANCH   2  19
TORSDOF 7
