REMARK  Name = ZINC39546142
REMARK  11 active torsions:
REMARK  status: ('A' for Active; 'I' for Inactive)
REMARK    1  A    between atoms: C_1  and  C_2
REMARK    2  A    between atoms: C_2  and  C_4
REMARK    3  A    between atoms: C_2  and  C_14
REMARK    4  A    between atoms: C_7  and  C_10
REMARK    5  A    between atoms: C_10  and  C_11
REMARK    6  A    between atoms: C_11  and  C_12
REMARK    7  A    between atoms: C_11  and  C_13
REMARK    8  A    between atoms: C_18  and  O_33
REMARK    9  A    between atoms: C_19  and  O_32
REMARK   10  A    between atoms: N_24  and  C_25
REMARK   11  A    between atoms: C_25  and  C_26
REMARK                            x       y       z     vdW  Elec       q    Type
REMARK                         _______ _______ _______ _____ _____    ______ ____
ROOT
ATOM      1  C   UNL     1       1.130  -0.803  -1.722  0.00  0.00    +0.095 C 
ATOM      2  C   UNL     1       2.493  -0.175  -1.588  0.00  0.00    -0.023 A 
ATOM      3  C   UNL     1       3.391  -0.737  -0.691  0.00  0.00    +0.054 A 
ATOM      4  C   UNL     1       4.655  -0.198  -0.536  0.00  0.00    +0.159 A 
ATOM      5  C   UNL     1       5.028   0.914  -1.286  0.00  0.00    +0.158 A 
ATOM      6  C   UNL     1       4.129   1.471  -2.179  0.00  0.00    +0.053 A 
ATOM      7  C   UNL     1       2.861   0.928  -2.328  0.00  0.00    -0.038 A 
ATOM      8  C   UNL     1       1.914   1.578  -3.304  0.00  0.00    +0.051 C 
ATOM      9  C   UNL     1       0.763   0.625  -3.629  0.00  0.00    +0.090 C 
ATOM     10  N   UNL     1       0.197   0.129  -2.364  0.00  0.00    -0.290 NA
ENDROOT
BRANCH   1  12
ATOM     11  C   UNL     1       1.379  -2.369   0.208  0.00  0.00    +0.014 C 
ATOM     12  C   UNL     1       0.603  -1.167  -0.333  0.00  0.00    +0.038 C 
BRANCH  12  13
ATOM     13  C   UNL     1      -0.860  -1.515  -0.425  0.00  0.00    -0.043 A 
ATOM     14  C   UNL     1      -1.269  -2.583  -1.202  0.00  0.00    +0.004 A 
ATOM     15  C   UNL     1      -2.611  -2.902  -1.287  0.00  0.00    +0.004 A 
ATOM     16  C   UNL     1      -3.545  -2.153  -0.596  0.00  0.00    -0.047 A 
ATOM     17  C   UNL     1      -3.136  -1.085   0.181  0.00  0.00    +0.004 A 
ATOM     18  C   UNL     1      -1.794  -0.769   0.270  0.00  0.00    +0.004 A 
BRANCH  16  19
ATOM     19  C   UNL     1      -5.009  -2.500  -0.689  0.00  0.00    +0.038 C 
BRANCH  19  20
ATOM     20  C   UNL     1      -5.368  -3.496   0.415  0.00  0.00    -0.013 C 
ATOM     21  C   UNL     1      -6.876  -3.753   0.399  0.00  0.00    +0.007 C 
ATOM     22  C   UNL     1      -4.624  -4.812   0.176  0.00  0.00    +0.007 C 
ENDBRANCH  19  20
ENDBRANCH  16  19
ENDBRANCH  12  13
ENDBRANCH   1  12
BRANCH   5  23
ATOM     23  O   UNL     1       6.270   1.450  -1.143  0.00  0.00    -0.503 OA
ATOM     24  H   UNL     1       6.931   1.073  -1.739  0.00  0.00    +0.292 HD
ENDBRANCH   5  23
BRANCH   4  25
ATOM     25  O   UNL     1       5.530  -0.751   0.346  0.00  0.00    -0.503 OA
ATOM     26  H   UNL     1       6.088  -1.443  -0.035  0.00  0.00    +0.292 HD
ENDBRANCH   4  25
BRANCH  10  27
ATOM     27  C   UNL     1      -1.110  -0.504  -2.586  0.00  0.00    +0.120 C 
BRANCH  27  28
ATOM     28  C   UNL     1      -1.872   0.270  -3.630  0.00  0.00    -0.033 A 
ATOM     29  C   UNL     1      -2.695   1.315  -3.252  0.00  0.00    +0.005 A 
ATOM     30  C   UNL     1      -3.394   2.025  -4.210  0.00  0.00    +0.000 A 
ATOM     31  C   UNL     1      -3.270   1.691  -5.546  0.00  0.00    +0.000 A 
ATOM     32  C   UNL     1      -2.447   0.647  -5.924  0.00  0.00    +0.000 A 
ATOM     33  C   UNL     1      -1.744  -0.060  -4.966  0.00  0.00    +0.005 A 
ENDBRANCH  27  28
ENDBRANCH  10  27
TORSDOF 8
