REMARK  Name = ZINC39610135
REMARK  4 active torsions:
REMARK  status: ('A' for Active; 'I' for Inactive)
REMARK    1  A    between atoms: C_6  and  C_7
REMARK    2  A    between atoms: C_7  and  N_8
REMARK    3  A    between atoms: C_9  and  C_11
REMARK    4  A    between atoms: C_22  and  C_24
REMARK                            x       y       z     vdW  Elec       q    Type
REMARK                         _______ _______ _______ _____ _____    ______ ____
ROOT
ATOM      1  C   UNL     1      -3.301  -1.905  -3.718  0.00  0.00    +0.100 C 
ATOM      2  C   UNL     1      -2.097  -2.765  -4.164  0.00  0.00    +0.121 C 
ATOM      3  N   UNL     1      -2.546  -4.164  -3.973  0.00  0.00    -0.296 N 
ATOM      4  C   UNL     1      -3.963  -4.160  -4.407  0.00  0.00    +0.115 C 
ATOM      5  C   UNL     1      -4.524  -2.823  -3.883  0.00  0.00    -0.004 C 
ATOM      6  C   UNL     1      -5.212  -3.032  -2.537  0.00  0.00    -0.010 C 
ATOM      7  C   UNL     1      -6.457  -3.901  -2.736  0.00  0.00    -0.082 C 
ATOM      8  N   UNL     1      -7.370  -3.243  -3.678  0.00  0.00    +0.379 N 
ATOM      9  C   UNL     1      -6.734  -3.129  -4.996  0.00  0.00    -0.082 C 
ATOM     10  C   UNL     1      -5.500  -2.227  -4.893  0.00  0.00    -0.010 C 
ATOM     11  C   UNL     1      -1.827  -5.206  -3.510  0.00  0.00    +0.247 C 
ATOM     12  O   UNL     1      -0.707  -5.026  -3.073  0.00  0.00    -0.270 OA
ATOM     13  H   UNL     1      -8.216  -3.787  -3.761  0.00  0.00    -0.086 HD
ATOM     14  H   UNL     1      -7.599  -2.322  -3.335  0.00  0.00    -0.086 HD
ENDROOT
BRANCH  11  15
ATOM     15  C   UNL     1      -2.401  -6.569  -3.534  0.00  0.00    +0.040 A 
ATOM     16  C   UNL     1      -3.457  -6.869  -4.395  0.00  0.00    +0.033 A 
ATOM     17  C   UNL     1      -3.989  -8.143  -4.412  0.00  0.00    +0.043 A 
ATOM     18  C   UNL     1      -3.476  -9.122  -3.578  0.00  0.00    +0.040 A 
ATOM     19  C   UNL     1      -2.429  -8.830  -2.721  0.00  0.00    +0.043 A 
ATOM     20  C   UNL     1      -1.884  -7.561  -2.699  0.00  0.00    +0.033 A 
ATOM     21 CL   UNL     1      -1.793 -10.063  -1.677  0.00  0.00    -0.083 Cl
ATOM     22 CL   UNL     1      -5.303  -8.519  -5.483  0.00  0.00    -0.083 Cl
ENDBRANCH  11  15
BRANCH   1  24
ATOM     23  N   UNL     1      -3.781  -0.394  -1.819  0.00  0.00    -0.311 N 
ATOM     24  C   UNL     1      -3.146  -1.491  -2.277  0.00  0.00    +0.218 C 
ATOM     25  O   UNL     1      -2.450  -2.145  -1.530  0.00  0.00    -0.275 OA
ATOM     26  H   UNL     1      -4.337   0.130  -2.417  0.00  0.00    +0.149 HD
BRANCH  23  27
ATOM     27  C   UNL     1      -3.630   0.009  -0.419  0.00  0.00    +0.139 C 
BRANCH  27  33
ATOM     28  C   UNL     1      -5.751   1.157   0.246  0.00  0.00    +0.009 A 
ATOM     29  C   UNL     1      -6.494   2.300   0.479  0.00  0.00    +0.050 A 
ATOM     30  C   UNL     1      -5.920   3.548   0.302  0.00  0.00    +0.166 A 
ATOM     31  C   UNL     1      -4.594   3.649  -0.113  0.00  0.00    +0.167 A 
ATOM     32  C   UNL     1      -3.856   2.500  -0.345  0.00  0.00    +0.054 A 
ATOM     33  C   UNL     1      -4.435   1.257  -0.165  0.00  0.00    -0.027 A 
ATOM     34  O   UNL     1      -4.268   4.970  -0.213  0.00  0.00    -0.453 OA
ATOM     35  C   UNL     1      -5.523   5.674  -0.252  0.00  0.00    +0.466 C 
ATOM     36  O   UNL     1      -6.425   4.806   0.461  0.00  0.00    -0.453 OA
ENDBRANCH  27  33
ENDBRANCH  23  27
ENDBRANCH   1  24
TORSDOF 4
