REMARK  Name = ZINC41586458
REMARK  8 active torsions:
REMARK  status: ('A' for Active; 'I' for Inactive)
REMARK    1  A    between atoms: C_1  and  C_2
REMARK    2  A    between atoms: C_2  and  O_3
REMARK    3  A    between atoms: O_3  and  C_4
REMARK    4  A    between atoms: C_4  and  C_6
REMARK    5  A    between atoms: N_11  and  C_13
REMARK    6  A    between atoms: C_13  and  C_14
REMARK    7  A    between atoms: C_15  and  O_33
REMARK    8  A    between atoms: C_22  and  C_23
REMARK                            x       y       z     vdW  Elec       q    Type
REMARK                         _______ _______ _______ _____ _____    ______ ____
ROOT
ATOM      1  C   UNL     1       2.620  -6.455  -4.920  0.00  0.00    +0.020 A 
ATOM      2  C   UNL     1       1.802  -6.652  -6.022  0.00  0.00    +0.122 A 
ATOM      3  C   UNL     1       2.322  -7.167  -7.206  0.00  0.00    +0.046 A 
ATOM      4  C   UNL     1       3.649  -7.484  -7.293  0.00  0.00    +0.019 A 
ATOM      5  C   UNL     1       4.483  -7.291  -6.192  0.00  0.00    +0.068 A 
ATOM      6  C   UNL     1       3.971  -6.767  -4.994  0.00  0.00    +0.144 A 
ATOM      7  O   UNL     1       4.962  -6.666  -4.081  0.00  0.00    -0.451 OA
ATOM      8  C   UNL     1       6.149  -7.087  -4.578  0.00  0.00    +0.176 C 
ATOM      9  C   UNL     1       7.333  -7.112  -3.914  0.00  0.00    +0.062 C 
ATOM     10  C   UNL     1       5.921  -7.525  -5.963  0.00  0.00    +0.231 C 
ATOM     11  O   UNL     1       6.739  -7.970  -6.749  0.00  0.00    -0.283 OA
ENDROOT
BRANCH   9  12
ATOM     12  C   UNL     1       7.403  -6.652  -2.521  0.00  0.00    +0.032 A 
ATOM     13  C   UNL     1       6.852  -5.414  -2.159  0.00  0.00    +0.132 A 
ATOM     14  C   UNL     1       6.924  -4.990  -0.846  0.00  0.00    +0.039 A 
ATOM     15  C   UNL     1       7.537  -5.783   0.109  0.00  0.00    +0.004 A 
ATOM     16  C   UNL     1       8.083  -7.005  -0.241  0.00  0.00    +0.021 A 
ATOM     17  C   UNL     1       8.016  -7.449  -1.546  0.00  0.00    +0.051 A 
ATOM     18 CL   UNL     1       8.696  -8.986  -1.979  0.00  0.00    -0.083 Cl
ATOM     19  F   UNL     1       6.254  -4.639  -3.090  0.00  0.00    -0.205 F 
ENDBRANCH   9  12
BRANCH   2  20
ATOM     20  O   UNL     1       0.484  -6.341  -5.945  0.00  0.00    -0.506 OA
ATOM     21  H   UNL     1       0.279  -5.431  -6.202  0.00  0.00    +0.292 HD
ENDBRANCH   2  20
BRANCH   1  22
ATOM     22  C   UNL     1       2.043  -5.897  -3.645  0.00  0.00    -0.036 C 
BRANCH  22  27
ATOM     23  C   UNL     1       1.468  -2.353  -2.550  0.00  0.00    +0.081 C 
ATOM     24  C   UNL     1       2.919  -1.864  -2.583  0.00  0.00    +0.011 C 
ATOM     25  C   UNL     1       3.635  -2.500  -3.778  0.00  0.00    -0.018 C 
ATOM     26  C   UNL     1       3.539  -4.024  -3.670  0.00  0.00    -0.078 C 
ATOM     27  N   UNL     1       2.129  -4.430  -3.670  0.00  0.00    +0.383 N 
ATOM     28  C   UNL     1       1.452  -3.882  -2.488  0.00  0.00    -0.064 C 
ATOM     29  H   UNL     1       1.680  -4.083  -4.504  0.00  0.00    -0.081 HD
BRANCH  23  30
ATOM     30  C   UNL     1       0.775  -1.794  -1.334  0.00  0.00    +0.308 C 
ATOM     31  O   UNL     1       0.314  -2.540  -0.504  0.00  0.00    -0.251 OA
BRANCH  30  32
ATOM     32  O   UNL     1       0.671  -0.465  -1.174  0.00  0.00    -0.465 OA
BRANCH  32  34
ATOM     33  C   UNL     1      -0.019   1.526   0.010  0.00  0.00    +0.048 C 
ATOM     34  C   UNL     1       0.002  -0.004   0.002  0.00  0.00    +0.229 C 
ENDBRANCH  32  34
ENDBRANCH  30  32
ENDBRANCH  23  30
ENDBRANCH  22  27
ENDBRANCH   1  22
TORSDOF 7
