REMARK  Name = ZINC21050528
REMARK  2 active torsions:
REMARK  status: ('A' for Active; 'I' for Inactive)
REMARK    1  A    between atoms: C_8  and  C_14
REMARK    2  A    between atoms: N_16  and  C_17
REMARK                            x       y       z     vdW  Elec       q    Type
REMARK                         _______ _______ _______ _____ _____    ______ ____
ROOT
ATOM      1  C   UNL     1       0.767   2.261  -0.019  0.00  0.00    +0.002 A 
ATOM      2  C   UNL     1       2.010   1.655  -0.025  0.00  0.00    +0.002 A 
ATOM      3  C   UNL     1       2.103   0.275  -0.015  0.00  0.00    +0.030 A 
ATOM      4  C   UNL     1       0.958  -0.494   0.001  0.00  0.00    +0.126 A 
ATOM      5  C   UNL     1      -0.295   0.104  -0.003  0.00  0.00    +0.055 A 
ATOM      6  C   UNL     1      -0.380   1.495  -0.008  0.00  0.00    +0.025 A 
ATOM      7  N   UNL     1      -1.472  -0.640  -0.026  0.00  0.00    -0.319 N 
ATOM      8  C   UNL     1      -1.550  -2.032   0.410  0.00  0.00    +0.247 C 
ATOM      9  N   UNL     1      -0.472  -2.797  -0.249  0.00  0.00    -0.161 NA
ATOM     10  S   UNL     1       1.081  -2.257   0.033  0.00  0.00    +0.062 S 
ATOM     11  O   UNL     1       1.864  -2.639  -1.091  0.00  0.00    -0.153 OA
ATOM     12  O   UNL     1       1.414  -2.626   1.364  0.00  0.00    -0.153 OA
ATOM     13  H   UNL     1      -2.372  -0.129  -0.398  0.00  0.00    +0.148 HD
ATOM     14  H   UNL     1      -0.699  -3.754  -0.742  0.00  0.00    +0.151 HD
ENDROOT
BRANCH   8  15
ATOM     15  C   UNL     1      -1.378  -2.103   1.906  0.00  0.00    +0.254 C 
ATOM     16  O   UNL     1      -1.004  -1.127   2.520  0.00  0.00    -0.272 OA
ATOM     17  N   UNL     1      -1.640  -3.252   2.560  0.00  0.00    -0.283 N 
ATOM     18  H   UNL     1      -1.905  -4.158   1.996  0.00  0.00    +0.155 HD
BRANCH  17  19
ATOM     19  C   UNL     1      -1.574  -3.292   3.958  0.00  0.00    +0.034 A 
ATOM     20  C   UNL     1      -0.619  -2.541   4.631  0.00  0.00    +0.024 A 
ATOM     21  C   UNL     1      -0.560  -2.579   6.010  0.00  0.00    +0.017 A 
ATOM     22  C   UNL     1      -1.444  -3.371   6.721  0.00  0.00    +0.018 A 
ATOM     23  C   UNL     1      -2.393  -4.123   6.052  0.00  0.00    +0.017 A 
ATOM     24  C   UNL     1      -2.461  -4.086   4.673  0.00  0.00    +0.024 A 
ATOM     25 BR   UNL     1      -1.355  -3.425   8.609  0.00  0.00    -0.050 Br
ENDBRANCH  17  19
ENDBRANCH   8  15
TORSDOF 2
