REMARK  Name = ZINC21236977
REMARK  5 active torsions:
REMARK  status: ('A' for Active; 'I' for Inactive)
REMARK    1  A    between atoms: C_1  and  C_2
REMARK    2  A    between atoms: C_2  and  C_4
REMARK    3  A    between atoms: C_2  and  N_12
REMARK    4  A    between atoms: C_13  and  C_15
REMARK    5  A    between atoms: C_15  and  N_16
REMARK                            x       y       z     vdW  Elec       q    Type
REMARK                         _______ _______ _______ _____ _____    ______ ____
ROOT
ATOM      1  N   UNL     1      -1.099   2.010   0.017  0.00  0.00    -0.215 N 
ATOM      2  C   UNL     1      -0.014   1.208   0.009  0.00  0.00    +0.251 C 
ATOM      3  O   UNL     1       0.002  -0.004   0.002  0.00  0.00    -0.272 OA
ATOM      4  C   UNL     1       1.177   2.139   0.002  0.00  0.00    +0.138 C 
ATOM      5  C   UNL     1       2.000   1.937  -1.264  0.00  0.00    +0.040 C 
ATOM      6  C   UNL     1       2.752   0.606  -1.147  0.00  0.00    +0.008 C 
ATOM      7  C   UNL     1       3.823   0.749  -0.067  0.00  0.00    +0.035 C 
ATOM      8  C   UNL     1       3.224   1.285   1.207  0.00  0.00    -0.042 A 
ATOM      9  C   UNL     1       2.007   1.929   1.238  0.00  0.00    -0.012 A 
ATOM     10  C   UNL     1       1.513   2.407   2.444  0.00  0.00    +0.006 A 
ATOM     11  C   UNL     1       2.229   2.239   3.611  0.00  0.00    +0.000 A 
ATOM     12  C   UNL     1       3.449   1.589   3.581  0.00  0.00    +0.000 A 
ATOM     13  C   UNL     1       3.943   1.115   2.383  0.00  0.00    +0.004 A 
ATOM     14  N   UNL     1       0.578   3.481   0.014  0.00  0.00    -0.281 N 
ATOM     15  C   UNL     1      -0.756   3.303   0.026  0.00  0.00    +0.310 C 
ATOM     16  O   UNL     1      -1.560   4.215   0.038  0.00  0.00    -0.252 OA
ATOM     17  H   UNL     1       1.224   4.372   0.013  0.00  0.00    +0.152 HD
ENDROOT
BRANCH   1  18
ATOM     18  C   UNL     1      -2.482   1.524   0.020  0.00  0.00    +0.213 C 
BRANCH  18  20
ATOM     19  N   UNL     1      -4.199   0.909   1.691  0.00  0.00    -0.307 N 
ATOM     20  C   UNL     1      -2.950   1.350   1.442  0.00  0.00    +0.231 C 
ATOM     21  O   UNL     1      -2.202   1.606   2.362  0.00  0.00    -0.274 OA
ATOM     22  H   UNL     1      -4.877   0.677   0.857  0.00  0.00    +0.149 HD
BRANCH  19  24
ATOM     23  C   UNL     1      -4.224  -0.635   3.587  0.00  0.00    +0.033 C 
ATOM     24  C   UNL     1      -4.654   0.740   3.073  0.00  0.00    +0.102 C 
BRANCH  24  25
ATOM     25  C   UNL     1      -6.156   0.849   3.124  0.00  0.00    -0.009 A 
ATOM     26  C   UNL     1      -6.908   0.565   1.999  0.00  0.00    +0.008 A 
ATOM     27  C   UNL     1      -8.286   0.659   2.047  0.00  0.00    +0.020 A 
ATOM     28  C   UNL     1      -8.913   1.048   3.218  0.00  0.00    +0.042 A 
ATOM     29  C   UNL     1      -8.161   1.337   4.342  0.00  0.00    +0.040 A 
ATOM     30  C   UNL     1      -6.782   1.237   4.295  0.00  0.00    +0.047 A 
ATOM     31 CL   UNL     1      -5.837   1.599   5.706  0.00  0.00    -0.083 Cl
ATOM     32 CL   UNL     1     -10.644   1.173   3.275  0.00  0.00    -0.083 Cl
ENDBRANCH  24  25
ENDBRANCH  19  24
ENDBRANCH  18  20
ENDBRANCH   1  18
TORSDOF 4
