REMARK  Name = ZINC08469731
REMARK  5 active torsions:
REMARK  status: ('A' for Active; 'I' for Inactive)
REMARK    1  A    between atoms: C_1  and  O_2
REMARK    2  A    between atoms: O_2  and  C_3
REMARK    3  A    between atoms: C_7  and  C_10
REMARK    4  A    between atoms: C_8  and  O_9
REMARK    5  A    between atoms: C_22  and  O_24
REMARK                            x       y       z     vdW  Elec       q    Type
REMARK                         _______ _______ _______ _____ _____    ______ ____
ROOT
ATOM      1  C   UNL     1       1.329  -4.110  -2.296  0.00  0.00    +0.227 C 
ATOM      2  N   UNL     1       2.466  -4.502  -3.149  0.00  0.00    -0.313 N 
ATOM      3  C   UNL     1       3.698  -4.555  -2.536  0.00  0.00    +0.080 A 
ATOM      4  C   UNL     1       3.831  -4.762  -1.158  0.00  0.00    +0.068 A 
ATOM      5  C   UNL     1       5.191  -4.781  -0.653  0.00  0.00    -0.023 A 
ATOM      6  C   UNL     1       6.143  -4.602  -1.598  0.00  0.00    -0.005 A 
ATOM      7  S   UNL     1       5.246  -4.413  -3.114  0.00  0.00    -0.078 S 
ATOM      8  C   UNL     1       7.625  -4.571  -1.389  0.00  0.00    +0.043 C 
ATOM      9  C   UNL     1       7.898  -4.402   0.113  0.00  0.00    +0.005 C 
ATOM     10  C   UNL     1       7.033  -5.399   0.889  0.00  0.00    +0.005 C 
ATOM     11  C   UNL     1       5.562  -4.986   0.809  0.00  0.00    +0.037 C 
ATOM     12  C   UNL     1       2.585  -4.945  -0.370  0.00  0.00    +0.220 C 
ATOM     13  N   UNL     1       1.454  -4.658  -0.952  0.00  0.00    -0.223 NA
ATOM     14  H   UNL     1       2.353  -4.712  -4.089  0.00  0.00    +0.149 HD
ENDROOT
BRANCH   1  19
ATOM     15  C   UNL     1       0.606  -0.608  -1.056  0.00  0.00    +0.163 A 
ATOM     16  C   UNL     1       1.173   0.159  -2.062  0.00  0.00    +0.064 A 
ATOM     17  C   UNL     1       1.787  -0.456  -3.138  0.00  0.00    +0.022 A 
ATOM     18  C   UNL     1       1.838  -1.837  -3.212  0.00  0.00    +0.026 A 
ATOM     19  C   UNL     1       1.274  -2.607  -2.212  0.00  0.00    +0.041 A 
ATOM     20  C   UNL     1       0.662  -1.996  -1.129  0.00  0.00    +0.165 A 
ATOM     21 BR   UNL     1       2.559   0.591  -4.510  0.00  0.00    -0.050 Br
BRANCH  15  23
ATOM     22  C   UNL     1      -0.017   1.425   0.010  0.00  0.00    +0.277 C 
ATOM     23  O   UNL     1       0.002  -0.004   0.002  0.00  0.00    -0.491 OA
ENDBRANCH  15  23
BRANCH  20  24
ATOM     24  O   UNL     1       0.111  -2.752  -0.141  0.00  0.00    -0.503 OA
ATOM     25  H   UNL     1      -0.817  -2.979  -0.291  0.00  0.00    +0.292 HD
ENDBRANCH  20  24
ENDBRANCH   1  19
BRANCH  12  26
ATOM     26  O   UNL     1       2.623  -5.395   0.906  0.00  0.00    -0.492 OA
ATOM     27  H   UNL     1       1.753  -5.475   1.321  0.00  0.00    +0.294 HD
ENDBRANCH  12  26
TORSDOF 4
