REMARK  Name = ZINC39513958
REMARK  7 active torsions:
REMARK  status: ('A' for Active; 'I' for Inactive)
REMARK    1  A    between atoms: C_1  and  C_2
REMARK    2  A    between atoms: C_5  and  N_8
REMARK    3  A    between atoms: C_9  and  C_30
REMARK    4  A    between atoms: C_11  and  C_17
REMARK    5  A    between atoms: N_19  and  C_20
REMARK    6  A    between atoms: C_24  and  N_27
REMARK    7  A    between atoms: C_25  and  C_26
REMARK                            x       y       z     vdW  Elec       q    Type
REMARK                         _______ _______ _______ _____ _____    ______ ____
ROOT
ATOM      1  N   UNL     1       0.134  -4.002   0.174  0.00  0.00    -0.263 N 
ATOM      2  C   UNL     1       0.217  -4.730   1.434  0.00  0.00    +0.130 C 
ATOM      3  C   UNL     1      -0.234  -6.179   1.245  0.00  0.00    +0.101 C 
ATOM      4  C   UNL     1       0.522  -6.777   0.053  0.00  0.00    +0.024 C 
ATOM      5  C   UNL     1       0.051  -6.073  -1.222  0.00  0.00    +0.097 C 
ATOM      6  C   UNL     1       0.076  -4.585  -1.024  0.00  0.00    +0.220 C 
ATOM      7  O   UNL     1       0.046  -3.875  -2.007  0.00  0.00    -0.275 OA
ENDROOT
BRANCH   1  12
ATOM      8  C   UNL     1       0.032   1.666   0.382  0.00  0.00    +0.044 C 
ATOM      9  C   UNL     1       0.059   0.161   0.327  0.00  0.00    -0.050 A 
ATOM     10  C   UNL     1      -0.960  -0.525  -0.309  0.00  0.00    +0.005 A 
ATOM     11  C   UNL     1      -0.938  -1.905  -0.361  0.00  0.00    +0.024 A 
ATOM     12  C   UNL     1       0.109  -2.604   0.225  0.00  0.00    +0.037 A 
ATOM     13  C   UNL     1       1.131  -1.912   0.862  0.00  0.00    +0.024 A 
ATOM     14  C   UNL     1       1.106  -0.532   0.906  0.00  0.00    +0.005 A 
ENDBRANCH   1  12
BRANCH   2  15
ATOM     15  C   UNL     1      -0.672  -4.065   2.453  0.00  0.00    +0.011 A 
ATOM     16  C   UNL     1      -0.443  -3.841   3.770  0.00  0.00    +0.013 A 
ATOM     17  C   UNL     1      -1.413  -3.205   4.521  0.00  0.00    +0.008 A 
ATOM     18  C   UNL     1      -2.566  -2.823   3.917  0.00  0.00    +0.045 A 
ATOM     19  S   UNL     1      -2.298  -3.359   2.236  0.00  0.00    -0.100 S 
ENDBRANCH   2  15
BRANCH   3  20
ATOM     20  C   UNL     1       0.072  -6.970   2.491  0.00  0.00    +0.222 C 
ATOM     21  O   UNL     1       0.600  -6.428   3.439  0.00  0.00    -0.275 OA
ATOM     22  N   UNL     1      -0.241  -8.280   2.551  0.00  0.00    -0.285 N 
ATOM     23  H   UNL     1      -0.618  -8.725   1.776  0.00  0.00    +0.155 HD
BRANCH  22  24
ATOM     24  C   UNL     1      -0.021  -8.998   3.732  0.00  0.00    +0.038 A 
ATOM     25  C   UNL     1       0.958  -8.584   4.626  0.00  0.00    +0.024 A 
ATOM     26  C   UNL     1       1.173  -9.295   5.791  0.00  0.00    +0.004 A 
ATOM     27  C   UNL     1       0.413 -10.417   6.067  0.00  0.00    +0.033 A 
ATOM     28  C   UNL     1      -0.562 -10.831   5.179  0.00  0.00    +0.131 A 
ATOM     29  C   UNL     1      -0.786 -10.121   4.016  0.00  0.00    +0.001 A 
ATOM     30  C   UNL     1      -1.854 -10.569   3.052  0.00  0.00    +0.048 C 
BRANCH  28  31
ATOM     31  N   UNL     1      -1.372 -12.033   5.479  0.00  0.00    +0.057 N 
ATOM     32  O   UNL     1      -1.544 -12.376   6.626  0.00  0.00    -0.126 OA
ATOM     33  O   UNL     1      -1.862 -12.672   4.577  0.00  0.00    -0.126 OA
ENDBRANCH  28  31
ENDBRANCH  22  24
ENDBRANCH   3  20
TORSDOF 5
