REMARK  Name = ZINC39936371
REMARK  3 active torsions:
REMARK  status: ('A' for Active; 'I' for Inactive)
REMARK    1  A    between atoms: C_4  and  C_7
REMARK    2  A    between atoms: N_17  and  N_18
REMARK    3  A    between atoms: C_19  and  C_20
REMARK                            x       y       z     vdW  Elec       q    Type
REMARK                         _______ _______ _______ _____ _____    ______ ____
ROOT
ATOM      1  C   UNL     1       3.656  -0.737  -0.143  0.00  0.00    +0.084 A 
ATOM      2  C   UNL     1       3.850  -1.891   0.657  0.00  0.00    +0.028 A 
ATOM      3  C   UNL     1       2.830  -2.423   1.453  0.00  0.00    +0.032 A 
ATOM      4  C   UNL     1       3.073  -3.538   2.202  0.00  0.00    +0.042 A 
ATOM      5  C   UNL     1       4.324  -4.152   2.186  0.00  0.00    +0.022 A 
ATOM      6  C   UNL     1       5.339  -3.658   1.422  0.00  0.00    +0.030 A 
ATOM      7  C   UNL     1       5.123  -2.515   0.639  0.00  0.00    +0.077 A 
ATOM      8  N   UNL     1       6.088  -1.991  -0.130  0.00  0.00    -0.213 NA
ATOM      9  C   UNL     1       5.853  -0.914  -0.855  0.00  0.00    +0.236 A 
ATOM     10  N   UNL     1       4.673  -0.300  -0.873  0.00  0.00    -0.213 NA
ATOM     11  N   UNL     1       6.877  -0.405  -1.636  0.00  0.00    -0.205 N 
ATOM     12 CL   UNL     1       1.808  -4.198   3.190  0.00  0.00    -0.084 Cl
ATOM     13  H   UNL     1       6.726   0.386  -2.177  0.00  0.00    +0.177 HD
ENDROOT
BRANCH   1  17
ATOM     14  C   UNL     1      -0.093   1.262  -0.213  0.00  0.00    +0.000 A 
ATOM     15  C   UNL     1       0.446   0.850   0.993  0.00  0.00    +0.001 A 
ATOM     16  C   UNL     1       1.663   0.200   1.023  0.00  0.00    +0.010 A 
ATOM     17  C   UNL     1       2.350  -0.041  -0.167  0.00  0.00    +0.001 A 
ATOM     18  C   UNL     1       1.802   0.377  -1.380  0.00  0.00    +0.010 A 
ATOM     19  C   UNL     1       0.584   1.026  -1.396  0.00  0.00    +0.001 A 
ENDBRANCH   1  17
BRANCH  11  20
ATOM     20  N   UNL     1       8.130  -1.032  -1.644  0.00  0.00    -0.191 NA
ATOM     21  C   UNL     1       9.105  -0.504  -2.284  0.00  0.00    +0.120 C 
BRANCH  21  22
ATOM     22  C   UNL     1       8.948   0.859  -2.907  0.00  0.00    +0.141 C 
ATOM     23  C   UNL     1       9.087   0.703  -4.408  0.00  0.00    +0.001 C 
ATOM     24  C   UNL     1      10.068   1.422  -5.024  0.00  0.00    -0.007 A 
ATOM     25  C   UNL     1      10.272   1.331  -6.470  0.00  0.00    +0.009 A 
ATOM     26  C   UNL     1      11.262   2.065  -7.039  0.00  0.00    +0.001 A 
ATOM     27  C   UNL     1      12.081   2.897  -6.275  0.00  0.00    +0.002 A 
ATOM     28  C   UNL     1      11.943   3.026  -4.930  0.00  0.00    +0.024 A 
ATOM     29  C   UNL     1      10.947   2.309  -4.242  0.00  0.00    +0.040 A 
ATOM     30  N   UNL     1      10.821   2.443  -2.922  0.00  0.00    -0.284 N 
ATOM     31  C   UNL     1       9.910   1.798  -2.215  0.00  0.00    +0.229 C 
ATOM     32  O   UNL     1       9.844   1.962  -1.011  0.00  0.00    -0.274 OA
ATOM     33  H   UNL     1      11.428   3.042  -2.458  0.00  0.00    +0.155 HD
ENDBRANCH  21  22
ENDBRANCH  11  20
TORSDOF 3
