REMARK  Name = ZINC16943651
REMARK  9 active torsions:
REMARK  status: ('A' for Active; 'I' for Inactive)
REMARK    1  A    between atoms: C_1  and  O_2
REMARK    2  A    between atoms: O_2  and  C_3
REMARK    3  A    between atoms: C_5  and  C_13
REMARK    4  A    between atoms: C_7  and  O_11
REMARK    5  A    between atoms: C_8  and  O_9
REMARK    6  A    between atoms: O_9  and  C_10
REMARK    7  A    between atoms: O_11  and  C_12
REMARK    8  A    between atoms: C_18  and  S_22
REMARK    9  A    between atoms: S_22  and  C_23
REMARK                            x       y       z     vdW  Elec       q    Type
REMARK                         _______ _______ _______ _____ _____    ______ ____
ROOT
ATOM      1  C   UNL     1       2.402   0.386  -4.230  0.00  0.00    +0.093 C 
ATOM      2  C   UNL     1       3.871   0.092  -4.307  0.00  0.00    +0.069 A 
ATOM      3  C   UNL     1       4.375  -0.700  -5.291  0.00  0.00    +0.111 A 
ATOM      4  N   UNL     1       5.722  -0.952  -5.325  0.00  0.00    -0.322 N 
ATOM      5  C   UNL     1       6.543  -0.410  -4.382  0.00  0.00    +0.171 A 
ATOM      6  N   UNL     1       6.066   0.362  -3.427  0.00  0.00    -0.185 NA
ATOM      7  C   UNL     1       4.755   0.638  -3.351  0.00  0.00    +0.280 A 
ATOM      8  O   UNL     1       4.329   1.358  -2.460  0.00  0.00    -0.265 OA
ATOM      9  N   UNL     1       3.541  -1.238  -6.242  0.00  0.00    -0.304 N 
ATOM     10  C   UNL     1       2.301  -0.703  -6.465  0.00  0.00    +0.017 C 
ATOM     11  C   UNL     1       1.713   0.078  -5.536  0.00  0.00    +0.024 C 
ATOM     12  C   UNL     1       0.438   0.627  -5.755  0.00  0.00    +0.162 C 
ATOM     13  C   UNL     1      -0.323   0.349  -7.022  0.00  0.00    +0.080 C 
ATOM     14  C   UNL     1       0.101  -1.019  -7.569  0.00  0.00    +0.014 C 
ATOM     15  C   UNL     1       1.614  -1.006  -7.774  0.00  0.00    +0.051 C 
ATOM     16  O   UNL     1      -0.059   1.340  -4.906  0.00  0.00    -0.292 OA
ATOM     17  H   UNL     1       3.834  -2.004  -6.761  0.00  0.00    +0.153 HD
ATOM     18  H   UNL     1       6.091  -1.517  -6.021  0.00  0.00    +0.169 HD
ENDROOT
BRANCH   1  21
ATOM     19  C   UNL     1       0.606  -0.608  -1.056  0.00  0.00    +0.165 A 
ATOM     20  C   UNL     1       1.173   0.160  -2.063  0.00  0.00    +0.054 A 
ATOM     21  C   UNL     1       1.787  -0.452  -3.139  0.00  0.00    -0.028 A 
ATOM     22  C   UNL     1       1.839  -1.831  -3.217  0.00  0.00    +0.054 A 
ATOM     23  C   UNL     1       1.275  -2.606  -2.215  0.00  0.00    +0.165 A 
ATOM     24  C   UNL     1       0.661  -1.994  -1.128  0.00  0.00    +0.204 A 
BRANCH  19  26
ATOM     25  C   UNL     1      -0.017   1.425   0.010  0.00  0.00    +0.277 C 
ATOM     26  O   UNL     1       0.002  -0.004   0.002  0.00  0.00    -0.491 OA
ENDBRANCH  19  26
BRANCH  24  27
ATOM     27  O   UNL     1       0.111  -2.751  -0.140  0.00  0.00    -0.488 OA
ATOM     28  C   UNL     1      -1.260  -3.124  -0.295  0.00  0.00    +0.277 C 
ENDBRANCH  24  27
BRANCH  23  29
ATOM     29  O   UNL     1       1.326  -3.963  -2.293  0.00  0.00    -0.491 OA
ATOM     30  C   UNL     1       1.977  -4.523  -3.435  0.00  0.00    +0.277 C 
ENDBRANCH  23  29
ENDBRANCH   1  21
BRANCH   5  31
ATOM     31  S   UNL     1       8.271  -0.747  -4.441  0.00  0.00    -0.091 S 
ATOM     32  C   UNL     1       8.944   0.164  -3.024  0.00  0.00    +0.093 C 
ENDBRANCH   5  31
TORSDOF 5
