REMARK  Name = ZINC39683571
REMARK  8 active torsions:
REMARK  status: ('A' for Active; 'I' for Inactive)
REMARK    1  A    between atoms: C_1  and  C_2
REMARK    2  A    between atoms: C_2  and  C_3
REMARK    3  A    between atoms: C_3  and  C_4
REMARK    4  A    between atoms: C_4  and  N_5
REMARK    5  A    between atoms: C_8  and  C_11
REMARK    6  A    between atoms: C_11  and  N_12
REMARK    7  A    between atoms: C_13  and  C_15
REMARK    8  A    between atoms: C_26  and  C_28
REMARK                            x       y       z     vdW  Elec       q    Type
REMARK                         _______ _______ _______ _____ _____    ______ ____
ROOT
ATOM      1  C   UNL     1       3.933  -8.635  -6.381  0.00  0.00    +0.100 C 
ATOM      2  C   UNL     1       5.220  -8.816  -5.545  0.00  0.00    +0.121 C 
ATOM      3  N   UNL     1       5.933  -9.942  -6.193  0.00  0.00    -0.300 N 
ATOM      4  C   UNL     1       5.728  -9.721  -7.644  0.00  0.00    +0.115 C 
ATOM      5  C   UNL     1       4.271  -9.229  -7.759  0.00  0.00    -0.004 C 
ATOM      6  C   UNL     1       4.160  -8.158  -8.838  0.00  0.00    -0.010 C 
ATOM      7  C   UNL     1       4.442  -8.786 -10.206  0.00  0.00    -0.082 C 
ATOM      8  N   UNL     1       3.481  -9.866 -10.459  0.00  0.00    +0.379 N 
ATOM      9  C   UNL     1       3.658 -10.936  -9.470  0.00  0.00    -0.082 C 
ATOM     10  C   UNL     1       3.342 -10.399  -8.071  0.00  0.00    -0.010 C 
ATOM     11  C   UNL     1       6.613 -10.941  -5.597  0.00  0.00    +0.219 C 
ATOM     12  O   UNL     1       6.624 -11.030  -4.388  0.00  0.00    -0.275 OA
ATOM     13  H   UNL     1       2.542  -9.501 -10.393  0.00  0.00    -0.086 HD
ATOM     14  H   UNL     1       3.630 -10.237 -11.385  0.00  0.00    -0.086 HD
ENDROOT
BRANCH  11  15
ATOM     15  C   UNL     1       7.360 -11.948  -6.434  0.00  0.00    +0.079 C 
ATOM     16  C   UNL     1       7.504 -13.261  -5.654  0.00  0.00    +0.017 C 
ATOM     17  C   UNL     1       8.103 -14.315  -6.588  0.00  0.00    +0.027 C 
ATOM     18  C   UNL     1       9.319 -13.765  -7.275  0.00  0.00    -0.031 C 
ATOM     19  C   UNL     1       9.602 -12.504  -7.350  0.00  0.00    -0.030 C 
ATOM     20  C   UNL     1       8.758 -11.414  -6.755  0.00  0.00    +0.039 C 
ENDBRANCH  11  15
BRANCH   1  22
ATOM     21  N   UNL     1       2.311  -6.792  -6.676  0.00  0.00    -0.315 N 
ATOM     22  C   UNL     1       3.593  -7.173  -6.510  0.00  0.00    +0.218 C 
ATOM     23  O   UNL     1       4.472  -6.339  -6.464  0.00  0.00    -0.275 OA
ATOM     24  H   UNL     1       1.607  -7.458  -6.713  0.00  0.00    +0.149 HD
BRANCH  21  25
ATOM     25  C   UNL     1       1.980  -5.370  -6.802  0.00  0.00    +0.107 C 
BRANCH  25  29
ATOM     26  N   UNL     1      -1.734  -4.165  -8.543  0.00  0.00    +0.380 N 
ATOM     27  C   UNL     1      -1.395  -3.571  -7.244  0.00  0.00    -0.079 C 
ATOM     28  C   UNL     1       0.106  -3.724  -6.986  0.00  0.00    -0.014 C 
ATOM     29  C   UNL     1       0.468  -5.212  -6.980  0.00  0.00    +0.003 C 
ATOM     30  C   UNL     1       0.042  -5.837  -8.312  0.00  0.00    -0.014 C 
ATOM     31  C   UNL     1      -1.456  -5.606  -8.521  0.00  0.00    -0.079 C 
ATOM     32  H   UNL     1      -1.181  -3.728  -9.265  0.00  0.00    -0.082 HD
BRANCH  26  33
ATOM     33  C   UNL     1      -3.160  -3.947  -8.822  0.00  0.00    -0.079 C 
BRANCH  33  34
ATOM     34  C   UNL     1      -3.428  -2.448  -8.969  0.00  0.00    -0.019 C 
BRANCH  34  36
ATOM     35  C   UNL     1      -5.181  -0.722  -9.406  0.00  0.00    +0.004 C 
ATOM     36  C   UNL     1      -4.913  -2.221  -9.259  0.00  0.00    -0.005 C 
ENDBRANCH  34  36
ENDBRANCH  33  34
ENDBRANCH  26  33
ENDBRANCH  25  29
ENDBRANCH  21  25
ENDBRANCH   1  22
TORSDOF 7
