REMARK  Name = ZINC18350566
REMARK  6 active torsions:
REMARK  status: ('A' for Active; 'I' for Inactive)
REMARK    1  A    between atoms: C_1  and  C_2
REMARK    2  A    between atoms: N_11  and  C_15
REMARK    3  A    between atoms: C_15  and  C_16
REMARK    4  A    between atoms: N_18  and  C_19
REMARK    5  A    between atoms: C_19  and  C_21
REMARK    6  A    between atoms: C_19  and  C_28
REMARK                            x       y       z     vdW  Elec       q    Type
REMARK                         _______ _______ _______ _____ _____    ______ ____
ROOT
ATOM      1  C   UNL     1      -3.260  -1.886   2.395  0.00  0.00    +0.232 C 
ATOM      2  O   UNL     1      -2.349  -2.223   1.669  0.00  0.00    -0.274 OA
ATOM      3  N   UNL     1      -4.237  -2.763   2.700  0.00  0.00    -0.303 N 
ATOM      4  H   UNL     1      -4.966  -2.494   3.281  0.00  0.00    +0.150 HD
ENDROOT
BRANCH   1   5
ATOM      5  C   UNL     1      -3.301  -0.488   2.955  0.00  0.00    +0.213 C 
BRANCH   5  15
ATOM      6  C   UNL     1      -1.536   3.561   2.539  0.00  0.00    +0.010 C 
ATOM      7  C   UNL     1      -0.790   3.101   1.286  0.00  0.00    +0.018 C 
ATOM      8  C   UNL     1      -1.527   3.600   0.040  0.00  0.00    +0.006 C 
ATOM      9  C   UNL     1      -0.790   3.122  -1.213  0.00  0.00    +0.000 C 
ATOM     10  C   UNL     1      -0.753   1.593  -1.233  0.00  0.00    +0.003 C 
ATOM     11  C   UNL     1      -0.013   1.086   0.008  0.00  0.00    +0.035 C 
ATOM     12  C   UNL     1      -0.726   1.577   1.263  0.00  0.00    +0.115 C 
ATOM     13  C   UNL     1      -2.117   0.991   1.342  0.00  0.00    +0.247 C 
ATOM     14  O   UNL     1      -3.023   1.142   0.552  0.00  0.00    -0.273 OA
ATOM     15  N   UNL     1      -2.136   0.263   2.478  0.00  0.00    -0.215 N 
ATOM     16  C   UNL     1      -0.960   0.312   3.115  0.00  0.00    +0.310 C 
ATOM     17  O   UNL     1      -0.734  -0.264   4.161  0.00  0.00    -0.252 OA
ATOM     18  N   UNL     1      -0.056   1.072   2.468  0.00  0.00    -0.285 N 
ATOM     19  H   UNL     1       0.857   1.250   2.743  0.00  0.00    +0.151 HD
ENDBRANCH   5  15
ENDBRANCH   1   5
BRANCH   3  20
ATOM     20  C   UNL     1      -4.198  -4.123   2.156  0.00  0.00    +0.140 C 
BRANCH  20  21
ATOM     21  C   UNL     1      -4.968  -5.049   3.061  0.00  0.00    -0.022 A 
ATOM     22  C   UNL     1      -6.152  -4.626   3.636  0.00  0.00    +0.008 A 
ATOM     23  C   UNL     1      -6.862  -5.476   4.463  0.00  0.00    +0.038 A 
ATOM     24  C   UNL     1      -6.381  -6.748   4.723  0.00  0.00    +0.123 A 
ATOM     25  C   UNL     1      -5.193  -7.169   4.151  0.00  0.00    +0.038 A 
ATOM     26  C   UNL     1      -4.488  -6.319   3.321  0.00  0.00    +0.008 A 
ATOM     27  F   UNL     1      -7.072  -7.579   5.535  0.00  0.00    -0.205 F 
ENDBRANCH  20  21
BRANCH  20  28
ATOM     28  C   UNL     1      -4.818  -4.132   0.783  0.00  0.00    +0.014 A 
ATOM     29  C   UNL     1      -4.423  -4.802  -0.328  0.00  0.00    +0.013 A 
ATOM     30  C   UNL     1      -5.155  -4.659  -1.492  0.00  0.00    +0.008 A 
ATOM     31  C   UNL     1      -6.244  -3.853  -1.489  0.00  0.00    +0.045 A 
ATOM     32  S   UNL     1      -6.268  -3.269   0.198  0.00  0.00    -0.099 S 
ENDBRANCH  20  28
ENDBRANCH   3  20
TORSDOF 5
