REMARK  Name = ZINC03080313
REMARK  8 active torsions:
REMARK  status: ('A' for Active; 'I' for Inactive)
REMARK    1  A    between atoms: C_1  and  C_2
REMARK    2  A    between atoms: C_3  and  C_12
REMARK    3  A    between atoms: C_4  and  O_11
REMARK    4  A    between atoms: C_6  and  O_9
REMARK    5  A    between atoms: N_13  and  N_14
REMARK    6  A    between atoms: C_15  and  C_17
REMARK    7  A    between atoms: C_17  and  O_18
REMARK    8  A    between atoms: O_18  and  C_19
REMARK                            x       y       z     vdW  Elec       q    Type
REMARK                         _______ _______ _______ _____ _____    ______ ____
ROOT
ATOM      1  C   UNL     1      -8.341   1.003   0.047  0.00  0.00    +0.142 C 
ATOM      2  N   UNL     1      -7.136   0.522   0.038  0.00  0.00    -0.187 NA
ENDROOT
BRANCH   1   5
ATOM      3  C   UNL     1     -11.017   2.098   0.078  0.00  0.00    +0.046 C 
ATOM      4  C   UNL     1     -10.797   0.607   0.062  0.00  0.00    -0.021 A 
ATOM      5  C   UNL     1      -9.498   0.092   0.047  0.00  0.00    +0.041 A 
ATOM      6  C   UNL     1      -9.300  -1.296   0.039  0.00  0.00    +0.143 A 
ATOM      7  C   UNL     1     -10.393  -2.147   0.039  0.00  0.00    +0.102 A 
ATOM      8  C   UNL     1     -11.679  -1.626   0.048  0.00  0.00    +0.148 A 
ATOM      9  C   UNL     1     -11.877  -0.250   0.056  0.00  0.00    +0.064 A 
ATOM     10 BR   UNL     1     -13.634   0.449   0.069  0.00  0.00    -0.046 Br
ATOM     11 BR   UNL     1     -10.132  -4.020   0.027  0.00  0.00    -0.043 Br
BRANCH   8  12
ATOM     12  O   UNL     1     -12.748  -2.464   0.048  0.00  0.00    -0.504 OA
ATOM     13  H   UNL     1     -13.054  -2.712   0.931  0.00  0.00    +0.292 HD
ENDBRANCH   8  12
BRANCH   6  14
ATOM     14  O   UNL     1      -8.041  -1.805   0.029  0.00  0.00    -0.505 OA
ATOM     15  H   UNL     1      -7.672  -1.957   0.910  0.00  0.00    +0.292 HD
ENDBRANCH   6  14
ENDBRANCH   1   5
BRANCH   2  16
ATOM     16  N   UNL     1      -6.035   1.389   0.038  0.00  0.00    -0.204 N 
ATOM     17  C   UNL     1      -4.783   0.890   0.029  0.00  0.00    +0.270 C 
ATOM     18  O   UNL     1      -4.609  -0.311   0.022  0.00  0.00    -0.270 OA
ATOM     19  H   UNL     1      -6.174   2.349   0.044  0.00  0.00    +0.177 HD
BRANCH  17  20
ATOM     20  C   UNL     1      -3.600   1.823   0.029  0.00  0.00    +0.326 C 
BRANCH  20  21
ATOM     21  O   UNL     1      -2.392   1.059   0.019  0.00  0.00    -0.483 OA
BRANCH  21  22
ATOM     22  C   UNL     1      -1.223   1.754   0.017  0.00  0.00    +0.123 A 
ATOM     23  C   UNL     1      -0.013   1.076   0.008  0.00  0.00    +0.046 A 
ATOM     24  C   UNL     1       1.174   1.783   0.000  0.00  0.00    +0.005 A 
ATOM     25  C   UNL     1       1.157   3.166   0.008  0.00  0.00    +0.020 A 
ATOM     26  C   UNL     1      -0.049   3.844   0.023  0.00  0.00    +0.044 A 
ATOM     27  C   UNL     1      -1.239   3.140   0.031  0.00  0.00    +0.065 A 
ATOM     28 CL   UNL     1      -0.068   5.580   0.032  0.00  0.00    -0.083 Cl
ENDBRANCH  21  22
ENDBRANCH  20  21
ENDBRANCH  17  20
ENDBRANCH   2  16
TORSDOF 7
