REMARK  Name = ZINC51168938
REMARK  5 active torsions:
REMARK  status: ('A' for Active; 'I' for Inactive)
REMARK    1  A    between atoms: C_1  and  O_2
REMARK    2  A    between atoms: O_2  and  C_3
REMARK    3  A    between atoms: C_8  and  C_9
REMARK    4  A    between atoms: C_13  and  N_15
REMARK    5  A    between atoms: N_15  and  N_16
REMARK                            x       y       z     vdW  Elec       q    Type
REMARK                         _______ _______ _______ _____ _____    ______ ____
ROOT
ATOM      1  C   UNL     1       0.064  -2.829  -0.055  0.00  0.00    +0.166 A 
ATOM      2  N   UNL     1       0.132  -4.149  -0.140  0.00  0.00    -0.232 NA
ATOM      3  C   UNL     1      -0.390  -4.929   0.802  0.00  0.00    +0.050 A 
ATOM      4  C   UNL     1      -1.007  -4.347   1.883  0.00  0.00    +0.015 A 
ATOM      5  C   UNL     1      -1.068  -2.949   1.947  0.00  0.00    +0.139 A 
ATOM      6  N   UNL     1      -0.523  -2.231   0.973  0.00  0.00    -0.211 NA
ATOM      7  C   UNL     1      -1.612  -5.146   3.004  0.00  0.00    +0.040 C 
ATOM      8  C   UNL     1      -1.831  -6.595   2.570  0.00  0.00    +0.005 C 
ATOM      9  C   UNL     1      -0.524  -7.126   1.970  0.00  0.00    +0.006 C 
ATOM     10  C   UNL     1      -0.282  -6.421   0.636  0.00  0.00    +0.056 C 
ENDROOT
BRANCH   1  16
ATOM     11  C   UNL     1       0.605  -0.607  -1.055  0.00  0.00    +0.131 A 
ATOM     12  C   UNL     1       1.173   0.159  -2.062  0.00  0.00    +0.047 A 
ATOM     13  C   UNL     1       1.785  -0.454  -3.136  0.00  0.00    +0.019 A 
ATOM     14  C   UNL     1       1.838  -1.836  -3.216  0.00  0.00    +0.019 A 
ATOM     15  C   UNL     1       1.278  -2.611  -2.221  0.00  0.00    +0.030 A 
ATOM     16  C   UNL     1       0.662  -2.002  -1.129  0.00  0.00    +0.062 A 
ATOM     17 BR   UNL     1       2.679  -2.664  -4.694  0.00  0.00    -0.050 Br
BRANCH  11  19
ATOM     18  C   UNL     1      -0.017   1.425   0.010  0.00  0.00    +0.277 C 
ATOM     19  O   UNL     1       0.002  -0.004   0.002  0.00  0.00    -0.494 OA
ENDBRANCH  11  19
ENDBRANCH   1  16
BRANCH   5  20
ATOM     20  N   UNL     1      -1.687  -2.323   3.017  0.00  0.00    -0.267 N 
ATOM     21  H   UNL     1      -2.080  -2.853   3.728  0.00  0.00    +0.167 HD
BRANCH  20  22
ATOM     22  N   UNL     1      -1.742  -0.959   3.071  0.00  0.00    -0.255 NA
ATOM     23  H   UNL     1      -2.220  -0.649   3.904  0.00  0.00    +0.140 HD
ATOM     24  H   UNL     1      -0.819  -0.557   3.014  0.00  0.00    +0.140 HD
ENDBRANCH  20  22
ENDBRANCH   5  20
TORSDOF 4
