REMARK  Name = ZINC09541642
REMARK  6 active torsions:
REMARK  status: ('A' for Active; 'I' for Inactive)
REMARK    1  A    between atoms: C_1  and  C_2
REMARK    2  A    between atoms: C_2  and  C_3
REMARK    3  A    between atoms: C_6  and  C_9
REMARK    4  A    between atoms: C_11  and  C_24
REMARK    5  A    between atoms: C_13  and  C_16
REMARK    6  A    between atoms: C_21  and  O_22
REMARK                            x       y       z     vdW  Elec       q    Type
REMARK                         _______ _______ _______ _____ _____    ______ ____
ROOT
ATOM      1  C   UNL     1      -0.018   1.472   0.010  0.00  0.00    +0.040 C 
ATOM      2  N   UNL     1      -1.151   2.066   0.019  0.00  0.00    -0.299 NA
ATOM      3  C   UNL     1      -1.315   3.514   0.043  0.00  0.00    +0.081 C 
ATOM      4  C   UNL     1       1.065   3.667   0.402  0.00  0.00    -0.028 C 
ATOM      5  C   UNL     1       1.294   2.206   0.002  0.00  0.00    +0.044 C 
ATOM      6  N   UNL     1      -0.076   4.186  -0.378  0.00  0.00    +0.401 N 
ATOM      7  H   UNL     1      -0.166   5.196  -0.219  0.00  0.00    -0.081 HD
ATOM      8  H   UNL     1       0.085   4.009  -1.376  0.00  0.00    -0.081 HD
ENDROOT
BRANCH   4   9
ATOM      9  C   UNL     1       2.297   4.478   0.093  0.00  0.00    -0.018 A 
ATOM     10  C   UNL     1       2.350   5.245  -1.055  0.00  0.00    +0.025 A 
ATOM     11  C   UNL     1       3.478   5.994  -1.336  0.00  0.00    +0.041 A 
ATOM     12  C   UNL     1       4.561   5.968  -0.474  0.00  0.00    +0.023 A 
ATOM     13  C   UNL     1       4.513   5.198   0.672  0.00  0.00    +0.047 A 
ATOM     14  C   UNL     1       3.380   4.451   0.958  0.00  0.00    +0.119 A 
ATOM     15 CL   UNL     1       3.540   6.962  -2.776  0.00  0.00    -0.084 Cl
BRANCH  14  16
ATOM     16  O   UNL     1       3.332   3.692   2.085  0.00  0.00    -0.507 OA
ATOM     17  H   UNL     1       3.657   2.789   1.966  0.00  0.00    +0.292 HD
ENDBRANCH  14  16
ENDBRANCH   4   9
BRANCH   3  18
ATOM     18  C   UNL     1      -2.428   3.900  -0.897  0.00  0.00    -0.040 A 
ATOM     19  C   UNL     1      -2.416   5.138  -1.512  0.00  0.00    +0.005 A 
ATOM     20  C   UNL     1      -3.433   5.491  -2.378  0.00  0.00    +0.015 A 
ATOM     21  C   UNL     1      -4.470   4.608  -2.622  0.00  0.00    +0.018 A 
ATOM     22  C   UNL     1      -4.485   3.372  -2.003  0.00  0.00    +0.015 A 
ATOM     23  C   UNL     1      -3.464   3.018  -1.141  0.00  0.00    +0.005 A 
ATOM     24 BR   UNL     1      -5.867   5.093  -3.801  0.00  0.00    -0.050 Br
ENDBRANCH   3  18
BRANCH   1  28
ATOM     25  C   UNL     1       0.040  -2.773  -0.013  0.00  0.00    -0.048 A 
ATOM     26  C   UNL     1      -1.170  -2.101   0.002  0.00  0.00    +0.004 A 
ATOM     27  C   UNL     1      -1.196  -0.722   0.010  0.00  0.00    +0.010 A 
ATOM     28  C   UNL     1       0.002  -0.004   0.002  0.00  0.00    -0.004 A 
ATOM     29  C   UNL     1       1.219  -0.689  -0.019  0.00  0.00    +0.010 A 
ATOM     30  C   UNL     1       1.230  -2.068  -0.021  0.00  0.00    +0.004 A 
BRANCH  25  32
ATOM     31  C   UNL     1       0.053  -4.782  -1.467  0.00  0.00    +0.009 C 
ATOM     32  C   UNL     1       0.060  -4.280  -0.022  0.00  0.00    +0.032 C 
ENDBRANCH  25  32
ENDBRANCH   1  28
TORSDOF 5
