REMARK  Name = ZINC12874436
REMARK  5 active torsions:
REMARK  status: ('A' for Active; 'I' for Inactive)
REMARK    1  A    between atoms: C_1  and  C_2
REMARK    2  A    between atoms: C_13  and  C_35
REMARK    3  A    between atoms: N_20  and  C_23
REMARK    4  A    between atoms: C_23  and  C_24
REMARK    5  A    between atoms: C_24  and  C_25
REMARK                            x       y       z     vdW  Elec       q    Type
REMARK                         _______ _______ _______ _____ _____    ______ ____
ROOT
ATOM      1  C   UNL     1       5.814   1.998   0.380  0.00  0.00    +0.048 C 
ATOM      2  C   UNL     1       5.444   3.426  -0.026  0.00  0.00    +0.151 C 
ATOM      3  C   UNL     1       4.573   3.357  -1.258  0.00  0.00    +0.054 A 
ATOM      4  C   UNL     1       3.240   3.583  -1.235  0.00  0.00    -0.008 A 
ATOM      5  C   UNL     1       2.761   3.423  -2.593  0.00  0.00    +0.004 A 
ATOM      6  C   UNL     1       1.492   3.532  -3.168  0.00  0.00    +0.010 A 
ATOM      7  C   UNL     1       1.402   3.308  -4.520  0.00  0.00    +0.001 A 
ATOM      8  C   UNL     1       2.510   2.991  -5.288  0.00  0.00    +0.002 A 
ATOM      9  C   UNL     1       3.778   2.878  -4.745  0.00  0.00    +0.026 A 
ATOM     10  C   UNL     1       3.899   3.098  -3.375  0.00  0.00    +0.047 A 
ATOM     11  N   UNL     1       4.975   3.066  -2.534  0.00  0.00    -0.356 N 
ATOM     12  H   UNL     1       5.886   2.869  -2.801  0.00  0.00    +0.166 HD
ATOM     13  C   UNL     1       2.452   3.936   0.000  0.00  0.00    +0.070 C 
ATOM     14  C   UNL     1       3.273   3.570   1.242  0.00  0.00    +0.122 C 
ATOM     15  N   UNL     1       4.659   4.035   1.049  0.00  0.00    -0.280 N 
ATOM     16  C   UNL     1       5.150   4.984   1.850  0.00  0.00    +0.234 C 
ATOM     17  O   UNL     1       4.479   5.328   2.800  0.00  0.00    -0.274 OA
ATOM     18  C   UNL     1       6.473   5.650   1.651  0.00  0.00    +0.203 C 
ATOM     19  N   UNL     1       7.148   5.183   0.452  0.00  0.00    -0.290 N 
ATOM     20  C   UNL     1       6.695   4.188  -0.311  0.00  0.00    +0.245 C 
ATOM     21  O   UNL     1       7.337   3.884  -1.294  0.00  0.00    -0.273 OA
ENDROOT
BRANCH  13  22
ATOM     22  C   UNL     1       1.157   3.165   0.008  0.00  0.00    -0.020 A 
ATOM     23  C   UNL     1       1.175   1.783   0.000  0.00  0.00    +0.006 A 
ATOM     24  C   UNL     1      -0.013   1.076   0.008  0.00  0.00    +0.000 A 
ATOM     25  C   UNL     1      -1.219   1.750   0.017  0.00  0.00    +0.001 A 
ATOM     26  C   UNL     1      -1.239   3.132   0.031  0.00  0.00    +0.020 A 
ATOM     27  C   UNL     1      -0.050   3.841   0.023  0.00  0.00    +0.045 A 
ATOM     28 CL   UNL     1      -0.074   5.576   0.033  0.00  0.00    -0.083 Cl
ENDBRANCH  13  22
BRANCH  19  29
ATOM     29  C   UNL     1       8.396   5.842   0.059  0.00  0.00    +0.113 C 
BRANCH  29  30
ATOM     30  C   UNL     1       9.579   5.125   0.713  0.00  0.00    +0.056 C 
BRANCH  30  31
ATOM     31  C   UNL     1      10.863   5.803   0.309  0.00  0.00    -0.021 A 
ATOM     32  C   UNL     1      11.671   5.447  -0.701  0.00  0.00    +0.087 A 
ATOM     33  N   UNL     1      12.740   6.298  -0.767  0.00  0.00    -0.360 N 
ATOM     34  H   UNL     1      13.458   6.242  -1.418  0.00  0.00    +0.165 HD
ATOM     35  C   UNL     1      12.649   7.242   0.231  0.00  0.00    +0.047 A 
ATOM     36  C   UNL     1      11.469   6.974   0.949  0.00  0.00    +0.003 A 
ATOM     37  C   UNL     1      11.114   7.780   2.032  0.00  0.00    +0.010 A 
ATOM     38  C   UNL     1      11.916   8.827   2.390  0.00  0.00    +0.001 A 
ATOM     39  C   UNL     1      13.081   9.096   1.685  0.00  0.00    +0.002 A 
ATOM     40  C   UNL     1      13.450   8.313   0.613  0.00  0.00    +0.026 A 
ENDBRANCH  30  31
ENDBRANCH  29  30
ENDBRANCH  19  29
TORSDOF 4
