REMARK  Name = ZINC08791515
REMARK  10 active torsions:
REMARK  status: ('A' for Active; 'I' for Inactive)
REMARK    1  A    between atoms: C_1  and  C_2
REMARK    2  A    between atoms: C_2  and  C_3
REMARK    3  A    between atoms: C_3  and  N_4
REMARK    4  A    between atoms: C_5  and  C_7
REMARK    5  A    between atoms: C_7  and  C_9
REMARK    6  A    between atoms: C_7  and  N_14
REMARK    7  A    between atoms: C_9  and  C_11
REMARK    8  A    between atoms: C_9  and  C_12
REMARK    9  A    between atoms: C_12  and  C_13
REMARK   10  A    between atoms: C_15  and  C_17
REMARK                            x       y       z     vdW  Elec       q    Type
REMARK                         _______ _______ _______ _____ _____    ______ ____
ROOT
ATOM      1  C   UNL     1       3.022   0.544   0.697  0.00  0.00    +0.167 C 
ATOM      2  C   UNL     1       3.580  -0.847   0.363  0.00  0.00    +0.069 C 
ATOM      3  C   UNL     1       2.462  -1.776  -0.035  0.00  0.00    -0.015 A 
ATOM      4  C   UNL     1       2.516  -3.224  -0.135  0.00  0.00    +0.003 A 
ATOM      5  C   UNL     1       3.535  -4.148   0.111  0.00  0.00    +0.010 A 
ATOM      6  C   UNL     1       3.232  -5.473  -0.090  0.00  0.00    +0.001 A 
ATOM      7  C   UNL     1       1.979  -5.885  -0.514  0.00  0.00    +0.002 A 
ATOM      8  C   UNL     1       0.953  -4.991  -0.764  0.00  0.00    +0.026 A 
ATOM      9  C   UNL     1       1.232  -3.639  -0.569  0.00  0.00    +0.047 A 
ATOM     10  N   UNL     1       0.471  -2.516  -0.718  0.00  0.00    -0.356 N 
ATOM     11  H   UNL     1      -0.454  -2.503  -1.012  0.00  0.00    +0.166 HD
ATOM     12  C   UNL     1       1.208  -1.411  -0.389  0.00  0.00    +0.046 A 
ATOM     13  C   UNL     1       0.743   0.024  -0.399  0.00  0.00    +0.155 C 
ATOM     14  N   UNL     1       1.966   0.849  -0.275  0.00  0.00    -0.273 N 
ATOM     15  C   UNL     1       1.938   1.802  -1.216  0.00  0.00    +0.248 C 
ATOM     16  O   UNL     1       2.689   2.757  -1.268  0.00  0.00    -0.270 OA
ATOM     17  C   UNL     1       0.863   1.520  -2.172  0.00  0.00    +0.042 A 
ATOM     18  C   UNL     1       0.122   0.418  -1.696  0.00  0.00    -0.009 A 
ATOM     19  C   UNL     1      -0.947  -0.089  -2.400  0.00  0.00    +0.006 A 
ATOM     20  C   UNL     1      -1.275   0.543  -3.596  0.00  0.00    +0.000 A 
ATOM     21  C   UNL     1      -0.567   1.633  -4.061  0.00  0.00    +0.001 A 
ATOM     22  C   UNL     1       0.516   2.153  -3.367  0.00  0.00    +0.013 A 
ENDROOT
BRANCH   1  24
ATOM     23  N   UNL     1       4.554   2.204   1.706  0.00  0.00    -0.302 N 
ATOM     24  C   UNL     1       4.121   1.572   0.597  0.00  0.00    +0.235 C 
ATOM     25  O   UNL     1       4.614   1.829  -0.480  0.00  0.00    -0.274 OA
ATOM     26  H   UNL     1       4.159   1.998   2.567  0.00  0.00    +0.150 HD
BRANCH  23  27
ATOM     27  C   UNL     1       5.622   3.203   1.609  0.00  0.00    +0.162 C 
BRANCH  27  29
ATOM     28  N   UNL     1       7.550   3.884   3.001  0.00  0.00    -0.314 N 
ATOM     29  C   UNL     1       6.334   3.306   2.933  0.00  0.00    +0.234 C 
ATOM     30  O   UNL     1       5.814   2.869   3.938  0.00  0.00    -0.274 OA
ATOM     31  H   UNL     1       7.934   4.299   2.212  0.00  0.00    +0.149 HD
BRANCH  28  32
ATOM     32  C   UNL     1       8.291   3.884   4.264  0.00  0.00    +0.104 C 
BRANCH  32  34
ATOM     33  C   UNL     1      10.405   4.598   5.389  0.00  0.00    +0.005 C 
ATOM     34  C   UNL     1       9.631   4.598   4.069  0.00  0.00    +0.015 C 
ENDBRANCH  32  34
ENDBRANCH  28  32
ENDBRANCH  27  29
BRANCH  27  35
ATOM     35  C   UNL     1       5.018   4.561   1.248  0.00  0.00    +0.015 C 
ATOM     36  C   UNL     1       6.136   5.596   1.107  0.00  0.00    +0.010 C 
BRANCH  35  37
ATOM     37  C   UNL     1       4.053   5.001   2.351  0.00  0.00    +0.002 C 
ATOM     38  C   UNL     1       3.356   6.297   1.933  0.00  0.00    +0.004 C 
ENDBRANCH  35  37
ENDBRANCH  27  35
ENDBRANCH  23  27
ENDBRANCH   1  24
TORSDOF 7
