REMARK  Name = ZINC39634784
REMARK  12 active torsions:
REMARK  status: ('A' for Active; 'I' for Inactive)
REMARK    1  A    between atoms: C_1  and  C_2
REMARK    2  A    between atoms: C_6  and  C_9
REMARK    3  A    between atoms: C_13  and  C_22
REMARK    4  A    between atoms: N_24  and  C_25
REMARK    5  A    between atoms: C_25  and  C_26
REMARK    6  A    between atoms: C_26  and  N_27
REMARK    7  A    between atoms: N_27  and  C_28
REMARK    8  A    between atoms: N_27  and  C_31
REMARK    9  A    between atoms: C_28  and  C_29
REMARK   10  A    between atoms: C_28  and  C_30
REMARK   11  A    between atoms: C_31  and  C_32
REMARK   12  A    between atoms: C_31  and  C_33
REMARK                            x       y       z     vdW  Elec       q    Type
REMARK                         _______ _______ _______ _____ _____    ______ ____
ROOT
ATOM      1  C   UNL     1       0.162  -2.194  -1.723  0.00  0.00    +0.251 C 
ATOM      2  O   UNL     1       1.308  -2.263  -1.320  0.00  0.00    -0.270 OA
ATOM      3  N   UNL     1      -0.862  -2.206  -0.846  0.00  0.00    -0.296 N 
ATOM      4  C   UNL     1      -2.312  -2.138  -1.143  0.00  0.00    +0.121 C 
ATOM      5  C   UNL     1      -2.962  -3.120  -0.143  0.00  0.00    +0.100 C 
ATOM      6  C   UNL     1      -1.960  -3.215   1.020  0.00  0.00    -0.004 C 
ATOM      7  C   UNL     1      -0.792  -2.298   0.632  0.00  0.00    +0.115 C 
ATOM      8  C   UNL     1      -2.606  -2.730   2.315  0.00  0.00    -0.010 C 
ATOM      9  C   UNL     1      -1.610  -2.889   3.467  0.00  0.00    -0.082 C 
ATOM     10  N   UNL     1      -1.221  -4.299   3.590  0.00  0.00    +0.379 N 
ATOM     11  C   UNL     1      -0.518  -4.731   2.376  0.00  0.00    -0.082 C 
ATOM     12  C   UNL     1      -1.468  -4.651   1.177  0.00  0.00    -0.010 C 
ATOM     13  H   UNL     1      -0.613  -4.411   4.387  0.00  0.00    -0.086 HD
ATOM     14  H   UNL     1      -2.047  -4.865   3.718  0.00  0.00    -0.086 HD
ENDROOT
BRANCH   1  20
ATOM     15  C   UNL     1      -0.530   0.588  -5.812  0.00  0.00    +0.047 C 
ATOM     16  C   UNL     1      -0.441  -0.761  -5.144  0.00  0.00    -0.014 A 
ATOM     17  C   UNL     1      -0.613  -1.912  -5.890  0.00  0.00    +0.007 A 
ATOM     18  C   UNL     1      -0.534  -3.155  -5.286  0.00  0.00    +0.021 A 
ATOM     19  C   UNL     1      -0.282  -3.254  -3.933  0.00  0.00    +0.056 A 
ATOM     20  C   UNL     1      -0.107  -2.096  -3.171  0.00  0.00    +0.091 A 
ATOM     21  C   UNL     1      -0.183  -0.843  -3.789  0.00  0.00    +0.140 A 
ATOM     22  F   UNL     1      -0.010   0.282  -3.062  0.00  0.00    -0.204 F 
ATOM     23 CL   UNL     1      -0.185  -4.815  -3.178  0.00  0.00    -0.083 Cl
ENDBRANCH   1  20
BRANCH   5  24
ATOM     24  C   UNL     1      -3.155  -4.470  -0.784  0.00  0.00    +0.218 C 
ATOM     25  O   UNL     1      -2.449  -4.809  -1.709  0.00  0.00    -0.275 OA
ATOM     26  N   UNL     1      -4.113  -5.301  -0.328  0.00  0.00    -0.317 N 
ATOM     27  H   UNL     1      -4.678  -5.030   0.412  0.00  0.00    +0.149 HD
BRANCH  26  28
ATOM     28  C   UNL     1      -4.301  -6.614  -0.951  0.00  0.00    +0.085 C 
BRANCH  28  29
ATOM     29  C   UNL     1      -5.444  -7.352  -0.251  0.00  0.00    -0.059 C 
BRANCH  29  30
ATOM     30  N   UNL     1      -5.557  -8.710  -0.798  0.00  0.00    +0.384 N 
ATOM     31  H   UNL     1      -5.648  -8.662  -1.802  0.00  0.00    -0.081 HD
BRANCH  30  32
ATOM     32  C   UNL     1      -4.355  -9.480  -0.451  0.00  0.00    -0.074 C 
ATOM     33  C   UNL     1      -4.516 -10.073   0.950  0.00  0.00    -0.014 C 
ATOM     34  C   UNL     1      -4.163 -10.610  -1.465  0.00  0.00    -0.014 C 
ENDBRANCH  30  32
BRANCH  30  35
ATOM     35  C   UNL     1      -6.741  -9.370  -0.231  0.00  0.00    -0.074 C 
ATOM     36  C   UNL     1      -7.975  -8.497  -0.471  0.00  0.00    -0.014 C 
ATOM     37  C   UNL     1      -6.939 -10.729  -0.903  0.00  0.00    -0.014 C 
ENDBRANCH  30  35
ENDBRANCH  29  30
ENDBRANCH  28  29
ENDBRANCH  26  28
ENDBRANCH   5  24
TORSDOF 7
