REMARK  Name = ZINC00902692
REMARK  10 active torsions:
REMARK  status: ('A' for Active; 'I' for Inactive)
REMARK    1  A    between atoms: N_9  and  C_10
REMARK    2  A    between atoms: C_10  and  C_11
REMARK    3  A    between atoms: N_13  and  C_14
REMARK    4  A    between atoms: N_13  and  C_24
REMARK    5  A    between atoms: C_14  and  C_15
REMARK    6  A    between atoms: C_24  and  C_26
REMARK    7  A    between atoms: C_24  and  C_34
REMARK    8  A    between atoms: C_29  and  O_33
REMARK    9  A    between atoms: C_30  and  O_32
REMARK   10  A    between atoms: N_36  and  C_37
REMARK                            x       y       z     vdW  Elec       q    Type
REMARK                         _______ _______ _______ _____ _____    ______ ____
ROOT
ATOM      1  C   UNL     1       6.116  -1.251   0.698  0.00  0.00    +0.238 C 
ATOM      2  O   UNL     1       5.792  -2.035   1.565  0.00  0.00    -0.274 OA
ATOM      3  N   UNL     1       5.984   0.074   0.905  0.00  0.00    -0.280 N 
ENDROOT
BRANCH   1   4
ATOM      4  C   UNL     1       6.665  -1.758  -0.611  0.00  0.00    +0.241 C 
BRANCH   4  13
ATOM      5  C   UNL     1       4.726  -6.614  -1.244  0.00  0.00    +0.002 A 
ATOM      6  C   UNL     1       4.066  -5.415  -1.484  0.00  0.00    +0.002 A 
ATOM      7  C   UNL     1       4.695  -4.220  -1.275  0.00  0.00    +0.029 A 
ATOM      8  C   UNL     1       6.009  -4.202  -0.817  0.00  0.00    +0.090 A 
ATOM      9  C   UNL     1       6.682  -5.411  -0.572  0.00  0.00    +0.113 A 
ATOM     10  C   UNL     1       6.014  -6.622  -0.795  0.00  0.00    +0.032 A 
ATOM     11  N   UNL     1       7.923  -5.108  -0.142  0.00  0.00    -0.129 NA
ATOM     12  N   UNL     1       8.082  -3.832  -0.098  0.00  0.00    -0.064 NA
ATOM     13  N   UNL     1       6.901  -3.200  -0.515  0.00  0.00    -0.235 N 
ENDBRANCH   4  13
ENDBRANCH   1   4
BRANCH   3  14
ATOM     14  C   UNL     1       6.260   1.017  -0.182  0.00  0.00    +0.144 C 
BRANCH  14  15
ATOM     15  C   UNL     1       5.036   1.856  -0.443  0.00  0.00    -0.026 A 
ATOM     16  C   UNL     1       3.894   1.269  -0.957  0.00  0.00    +0.009 A 
ATOM     17  C   UNL     1       2.768   2.034  -1.198  0.00  0.00    +0.050 A 
ATOM     18  C   UNL     1       2.782   3.392  -0.924  0.00  0.00    +0.166 A 
ATOM     19  C   UNL     1       3.931   3.983  -0.407  0.00  0.00    +0.167 A 
ATOM     20  C   UNL     1       5.054   3.209  -0.163  0.00  0.00    +0.054 A 
ATOM     21  O   UNL     1       3.693   5.315  -0.226  0.00  0.00    -0.453 OA
ATOM     22  C   UNL     1       2.527   5.608  -1.019  0.00  0.00    +0.466 C 
ATOM     23  O   UNL     1       1.823   4.353  -1.068  0.00  0.00    -0.453 OA
ENDBRANCH  14  15
ENDBRANCH   3  14
BRANCH   3  24
ATOM     24  C   UNL     1       5.564   0.572   2.217  0.00  0.00    +0.193 C 
BRANCH  24  25
ATOM     25  C   UNL     1       6.194  -0.268   3.298  0.00  0.00    -0.015 A 
ATOM     26  C   UNL     1       7.539  -0.579   3.235  0.00  0.00    +0.010 A 
ATOM     27  C   UNL     1       8.121  -1.350   4.224  0.00  0.00    +0.049 A 
ATOM     28  C   UNL     1       7.356  -1.812   5.282  0.00  0.00    +0.158 A 
ATOM     29  C   UNL     1       6.001  -1.499   5.346  0.00  0.00    +0.159 A 
ATOM     30  C   UNL     1       5.425  -0.722   4.354  0.00  0.00    +0.055 A 
BRANCH  29  31
ATOM     31  O   UNL     1       5.246  -1.951   6.383  0.00  0.00    -0.503 OA
ATOM     32  H   UNL     1       5.218  -1.350   7.141  0.00  0.00    +0.292 HD
ENDBRANCH  29  31
BRANCH  28  33
ATOM     33  O   UNL     1       7.927  -2.571   6.256  0.00  0.00    -0.503 OA
ATOM     34  H   UNL     1       8.283  -2.059   6.995  0.00  0.00    +0.292 HD
ENDBRANCH  28  33
ENDBRANCH  24  25
BRANCH  24  35
ATOM     35  C   UNL     1       6.004   2.005   2.375  0.00  0.00    +0.238 C 
ATOM     36  O   UNL     1       6.727   2.513   1.544  0.00  0.00    -0.273 OA
ATOM     37  N   UNL     1       5.594   2.723   3.440  0.00  0.00    -0.311 N 
ATOM     38  H   UNL     1       5.016   2.317   4.105  0.00  0.00    +0.149 HD
BRANCH  37  39
ATOM     39  C   UNL     1       6.022   4.115   3.593  0.00  0.00    +0.073 C 
ATOM     40  C   UNL     1       7.389   4.157   4.277  0.00  0.00    +0.022 C 
ATOM     41  C   UNL     1       7.836   5.611   4.438  0.00  0.00    +0.002 C 
ATOM     42  C   UNL     1       6.816   6.367   5.292  0.00  0.00    +0.000 C 
ATOM     43  C   UNL     1       5.448   6.325   4.607  0.00  0.00    +0.002 C 
ATOM     44  C   UNL     1       5.001   4.871   4.447  0.00  0.00    +0.022 C 
ENDBRANCH  37  39
ENDBRANCH  24  35
ENDBRANCH   3  24
TORSDOF 10
