REMARK  Name = ZINC21958672
REMARK  2 active torsions:
REMARK  status: ('A' for Active; 'I' for Inactive)
REMARK    1  A    between atoms: C_6  and  N_7
REMARK    2  A    between atoms: C_10  and  C_12
REMARK                            x       y       z     vdW  Elec       q    Type
REMARK                         _______ _______ _______ _____ _____    ______ ____
ROOT
ATOM      1  N   UNL     1      -1.240   2.069   0.019  0.00  0.00    -0.233 N 
ATOM      2  C   UNL     1      -1.376   3.418   0.130  0.00  0.00    +0.049 A 
ATOM      3  C   UNL     1      -2.700   3.685   0.097  0.00  0.00    +0.008 A 
ATOM      4  C   UNL     1      -3.343   2.432  -0.030  0.00  0.00    +0.177 A 
ATOM      5  N   UNL     1      -2.395   1.514  -0.070  0.00  0.00    -0.159 NA
ATOM      6  C   UNL     1      -2.942   5.171   0.210  0.00  0.00    +0.040 C 
ATOM      7  C   UNL     1      -1.615   5.750   0.754  0.00  0.00    +0.011 C 
ATOM      8  C   UNL     1      -0.589   4.701   0.271  0.00  0.00    +0.056 C 
ENDROOT
BRANCH   1  14
ATOM      9  C   UNL     1       1.023   1.829  -0.795  0.00  0.00    +0.034 A 
ATOM     10  C   UNL     1       2.230   1.156  -0.800  0.00  0.00    +0.043 A 
ATOM     11  C   UNL     1       2.405   0.039  -0.002  0.00  0.00    +0.161 A 
ATOM     12  C   UNL     1       1.369  -0.410   0.804  0.00  0.00    +0.195 A 
ATOM     13  C   UNL     1       0.158   0.261   0.811  0.00  0.00    +0.186 A 
ATOM     14  C   UNL     1      -0.017   1.384   0.010  0.00  0.00    +0.104 A 
ATOM     15  F   UNL     1      -0.851  -0.174   1.596  0.00  0.00    -0.200 F 
ATOM     16  F   UNL     1       1.542  -1.501   1.582  0.00  0.00    -0.199 F 
ATOM     17  F   UNL     1       3.587  -0.616  -0.008  0.00  0.00    -0.202 F 
ENDBRANCH   1  14
BRANCH   4  18
ATOM     18  C   UNL     1      -4.797   2.195  -0.104  0.00  0.00    +0.406 C 
ATOM     19  O   UNL     1      -5.568   3.133  -0.056  0.00  0.00    -0.239 OA
ATOM     20  O   UNL     1      -5.270   0.939  -0.225  0.00  0.00    -0.239 OA
ENDBRANCH   4  18
TORSDOF 2
