REMARK  Name = ZINC03151145
REMARK  4 active torsions:
REMARK  status: ('A' for Active; 'I' for Inactive)
REMARK    1  A    between atoms: C_3  and  N_8
REMARK    2  A    between atoms: C_9  and  C_11
REMARK    3  A    between atoms: N_13  and  N_14
REMARK    4  A    between atoms: C_15  and  C_16
REMARK                            x       y       z     vdW  Elec       q    Type
REMARK                         _______ _______ _______ _____ _____    ______ ____
ROOT
ATOM      1  C   UNL     1       1.267   1.973   0.007  0.00  0.00    +0.318 C 
ATOM      2  O   UNL     1       1.250   3.187   0.023  0.00  0.00    -0.263 OA
ATOM      3  N   UNL     1       2.443   1.315  -0.010  0.00  0.00    -0.199 N 
ATOM      4  H   UNL     1       2.456   0.346  -0.022  0.00  0.00    +0.178 HD
ENDROOT
BRANCH   1   6
ATOM      5  N   UNL     1      -1.191   1.868   0.018  0.00  0.00    -0.278 N 
ATOM      6  C   UNL     1      -0.014   1.210   0.007  0.00  0.00    +0.305 C 
ATOM      7  O   UNL     1       0.002  -0.004  -0.009  0.00  0.00    -0.265 OA
ATOM      8  H   UNL     1      -1.205   2.834   0.098  0.00  0.00    +0.155 HD
BRANCH   5  11
ATOM      9  C   UNL     1      -4.649   1.000  -0.876  0.00  0.00    +0.005 A 
ATOM     10  C   UNL     1      -3.467   1.706  -0.769  0.00  0.00    +0.023 A 
ATOM     11  C   UNL     1      -2.389   1.157  -0.086  0.00  0.00    +0.037 A 
ATOM     12  C   UNL     1      -2.508  -0.097   0.499  0.00  0.00    +0.061 A 
ATOM     13  C   UNL     1      -3.696  -0.797   0.395  0.00  0.00    +0.125 A 
ATOM     14  C   UNL     1      -4.766  -0.248  -0.293  0.00  0.00    +0.038 A 
ATOM     15  F   UNL     1      -3.813  -2.017   0.964  0.00  0.00    -0.205 F 
ENDBRANCH   5  11
ENDBRANCH   1   6
BRANCH   3  16
ATOM     16  N   UNL     1       3.647   2.033  -0.009  0.00  0.00    -0.187 NA
ATOM     17  C   UNL     1       4.780   1.399  -0.025  0.00  0.00    +0.138 C 
BRANCH  17  18
ATOM     18  C   UNL     1       6.046   2.153  -0.025  0.00  0.00    -0.005 A 
ATOM     19  C   UNL     1       6.031   3.550  -0.013  0.00  0.00    +0.010 A 
ATOM     20  C   UNL     1       7.219   4.250  -0.009  0.00  0.00    +0.016 A 
ATOM     21  C   UNL     1       8.426   3.571  -0.025  0.00  0.00    +0.018 A 
ATOM     22  C   UNL     1       8.449   2.186  -0.042  0.00  0.00    +0.016 A 
ATOM     23  C   UNL     1       7.268   1.474  -0.042  0.00  0.00    +0.010 A 
ATOM     24 BR   UNL     1      10.051   4.539  -0.026  0.00  0.00    -0.050 Br
ENDBRANCH  17  18
ENDBRANCH   3  16
TORSDOF 4
