REMARK  Name = ZINC08833075
REMARK  6 active torsions:
REMARK  status: ('A' for Active; 'I' for Inactive)
REMARK    1  A    between atoms: C_10  and  N_14
REMARK    2  A    between atoms: N_14  and  C_15
REMARK    3  A    between atoms: C_15  and  N_17
REMARK    4  A    between atoms: C_18  and  C_20
REMARK    5  A    between atoms: C_21  and  C_22
REMARK    6  A    between atoms: C_25  and  C_27
REMARK                            x       y       z     vdW  Elec       q    Type
REMARK                         _______ _______ _______ _____ _____    ______ ____
ROOT
ATOM      1  N   UNL     1       5.312   6.235   0.190  0.00  0.00    -0.264 N 
ATOM      2  C   UNL     1       6.635   6.478   0.280  0.00  0.00    +0.242 C 
ATOM      3  O   UNL     1       7.426   5.552   0.267  0.00  0.00    -0.270 OA
ATOM      4  H   UNL     1       4.682   6.973   0.200  0.00  0.00    +0.157 HD
ENDROOT
BRANCH   1   5
ATOM      5  C   UNL     1       4.865   4.968   0.085  0.00  0.00    +0.141 C 
ATOM      6  S   UNL     1       5.977   3.667   0.067  0.00  0.00    -0.018 S 
BRANCH   5   7
ATOM      7  N   UNL     1       3.542   4.726  -0.005  0.00  0.00    -0.296 N 
ATOM      8  H   UNL     1       2.916   5.465  -0.057  0.00  0.00    +0.154 HD
BRANCH   7  18
ATOM      9  C   UNL     1       1.031  -2.861  -0.284  0.00  0.00    +0.001 A 
ATOM     10  C   UNL     1       1.992  -3.242  -1.207  0.00  0.00    +0.004 A 
ATOM     11  C   UNL     1       2.908  -2.329  -1.686  0.00  0.00    +0.047 A 
ATOM     12  C   UNL     1       2.875  -1.012  -1.245  0.00  0.00    +0.136 A 
ATOM     13  C   UNL     1       1.902  -0.629  -0.311  0.00  0.00    +0.028 A 
ATOM     14  C   UNL     1       0.983  -1.558   0.166  0.00  0.00    +0.012 A 
ATOM     15  C   UNL     1       2.135   0.806  -0.057  0.00  0.00    +0.028 A 
ATOM     16  C   UNL     1       1.520   1.754   0.755  0.00  0.00    +0.014 A 
ATOM     17  C   UNL     1       1.987   3.050   0.770  0.00  0.00    +0.024 A 
ATOM     18  C   UNL     1       3.072   3.409  -0.025  0.00  0.00    +0.036 A 
ATOM     19  C   UNL     1       3.690   2.470  -0.835  0.00  0.00    +0.070 A 
ATOM     20  C   UNL     1       3.228   1.161  -0.859  0.00  0.00    +0.138 A 
ATOM     21  O   UNL     1       3.633   0.066  -1.541  0.00  0.00    -0.455 OA
ENDBRANCH   7  18
ENDBRANCH   5   7
ENDBRANCH   1   5
BRANCH   2  22
ATOM     22  C   UNL     1       7.103   7.806   0.389  0.00  0.00    +0.071 C 
ATOM     23  C   UNL     1       8.437   8.050   0.481  0.00  0.00    +0.051 C 
BRANCH  23  24
ATOM     24  C   UNL     1       8.906   9.379   0.590  0.00  0.00    +0.129 A 
ATOM     25  C   UNL     1      10.230   9.765   0.690  0.00  0.00    +0.050 A 
ATOM     26  C   UNL     1      10.238  11.159   0.777  0.00  0.00    +0.050 A 
ATOM     27  C   UNL     1       8.925  11.573   0.727  0.00  0.00    +0.137 A 
ATOM     28  O   UNL     1       8.139  10.489   0.610  0.00  0.00    -0.455 OA
BRANCH  27  29
ATOM     29  C   UNL     1       8.461  12.973   0.787  0.00  0.00    +0.036 A 
ATOM     30  C   UNL     1       8.918  13.822   1.798  0.00  0.00    +0.014 A 
ATOM     31  C   UNL     1       8.485  15.129   1.846  0.00  0.00    +0.021 A 
ATOM     32  C   UNL     1       7.587  15.600   0.900  0.00  0.00    +0.042 A 
ATOM     33  C   UNL     1       7.125  14.763  -0.101  0.00  0.00    +0.040 A 
ATOM     34  C   UNL     1       7.556  13.453  -0.164  0.00  0.00    +0.053 A 
ATOM     35 CL   UNL     1       6.975  12.405  -1.420  0.00  0.00    -0.083 Cl
ATOM     36 CL   UNL     1       7.041  17.246   0.972  0.00  0.00    -0.083 Cl
ENDBRANCH  27  29
ENDBRANCH  23  24
ENDBRANCH   2  22
TORSDOF 6
