REMARK  Name = ZINC08797241
REMARK  10 active torsions:
REMARK  status: ('A' for Active; 'I' for Inactive)
REMARK    1  A    between atoms: C_1  and  N_2
REMARK    2  A    between atoms: C_4  and  O_34
REMARK    3  A    between atoms: C_6  and  N_31
REMARK    4  A    between atoms: N_11  and  C_12
REMARK    5  A    between atoms: C_12  and  C_14
REMARK    6  A    between atoms: C_17  and  S_20
REMARK    7  A    between atoms: S_20  and  N_23
REMARK    8  A    between atoms: N_23  and  C_24
REMARK    9  A    between atoms: N_23  and  C_25
REMARK   10  A    between atoms: O_34  and  C_35
REMARK                            x       y       z     vdW  Elec       q    Type
REMARK                         _______ _______ _______ _____ _____    ______ ____
ROOT
ATOM      1  C   UNL     1       6.142   2.609   0.501  0.00  0.00    +0.269 C 
ATOM      2  O   UNL     1       6.834   2.691  -0.500  0.00  0.00    -0.268 OA
ENDROOT
BRANCH   1  13
ATOM      3  C   UNL     1       8.088   3.047   4.264  0.00  0.00    +0.151 C 
ATOM      4  N   UNL     1       8.741   3.107   2.954  0.00  0.00    -0.321 N 
ATOM      5  C   UNL     1      10.106   3.319   2.870  0.00  0.00    +0.100 A 
ATOM      6  C   UNL     1      11.028   3.499   3.919  0.00  0.00    +0.147 A 
ATOM      7  C   UNL     1      12.365   3.708   3.652  0.00  0.00    +0.080 A 
ATOM      8  C   UNL     1      12.838   3.748   2.351  0.00  0.00    +0.131 A 
ATOM      9  C   UNL     1      11.952   3.573   1.303  0.00  0.00    +0.050 A 
ATOM     10  C   UNL     1      10.617   3.365   1.566  0.00  0.00    +0.045 A 
ATOM     11  S   UNL     1       9.181   3.103   0.556  0.00  0.00    -0.052 S 
ATOM     12  C   UNL     1       8.005   2.949   1.821  0.00  0.00    +0.167 A 
ATOM     13  N   UNL     1       6.699   2.734   1.710  0.00  0.00    -0.152 NA
BRANCH   8  14
ATOM     14  N   UNL     1      14.276   3.973   2.085  0.00  0.00    +0.057 N 
ATOM     15  O   UNL     1      15.051   4.125   3.012  0.00  0.00    -0.126 OA
ATOM     16  O   UNL     1      14.685   4.006   0.938  0.00  0.00    -0.126 OA
ENDBRANCH   8  14
BRANCH   6  17
ATOM     17  O   UNL     1      10.596   3.466   5.208  0.00  0.00    -0.493 OA
ATOM     18  C   UNL     1      11.580   3.655   6.226  0.00  0.00    +0.277 C 
ENDBRANCH   6  17
ENDBRANCH   1  13
BRANCH   1  19
ATOM     19  C   UNL     1       4.686   2.369   0.377  0.00  0.00    +0.039 A 
ATOM     20  C   UNL     1       4.103   2.238  -0.883  0.00  0.00    +0.015 A 
ATOM     21  C   UNL     1       2.745   2.014  -0.992  0.00  0.00    +0.029 A 
ATOM     22  C   UNL     1       1.963   1.921   0.145  0.00  0.00    +0.109 A 
ATOM     23  C   UNL     1       2.535   2.055   1.398  0.00  0.00    +0.029 A 
ATOM     24  C   UNL     1       3.892   2.274   1.520  0.00  0.00    +0.015 A 
BRANCH  22  25
ATOM     25  S   UNL     1       0.231   1.636  -0.002  0.00  0.00    +0.074 S 
ATOM     26  O   UNL     1      -0.148   2.096  -1.292  0.00  0.00    -0.150 OA
ATOM     27  O   UNL     1      -0.365   2.132   1.188  0.00  0.00    -0.150 OA
BRANCH  25  28
ATOM     28  N   UNL     1       0.002  -0.004   0.002  0.00  0.00    -0.206 N 
ATOM     29  C   UNL     1      -0.088  -0.728   1.273  0.00  0.00    +0.157 C 
BRANCH  28  30
ATOM     30  C   UNL     1      -0.105  -0.697  -1.206  0.00  0.00    +0.051 A 
ATOM     31  C   UNL     1      -1.125  -0.389  -2.097  0.00  0.00    +0.025 A 
ATOM     32  C   UNL     1      -1.226  -1.073  -3.292  0.00  0.00    +0.002 A 
ATOM     33  C   UNL     1      -0.319  -2.071  -3.598  0.00  0.00    +0.000 A 
ATOM     34  C   UNL     1       0.695  -2.384  -2.711  0.00  0.00    +0.002 A 
ATOM     35  C   UNL     1       0.804  -1.701  -1.516  0.00  0.00    +0.025 A 
ENDBRANCH  28  30
ENDBRANCH  25  28
ENDBRANCH  22  25
ENDBRANCH   1  19
TORSDOF 7
