REMARK  Name = ZINC12895045
REMARK  11 active torsions:
REMARK  status: ('A' for Active; 'I' for Inactive)
REMARK    1  A    between atoms: C_1  and  C_2
REMARK    2  A    between atoms: C_2  and  C_3
REMARK    3  A    between atoms: C_2  and  C_4
REMARK    4  A    between atoms: C_2  and  C_5
REMARK    5  A    between atoms: C_12  and  C_14
REMARK    6  A    between atoms: N_16  and  N_17
REMARK    7  A    between atoms: N_17  and  S_18
REMARK    8  A    between atoms: S_18  and  C_21
REMARK    9  A    between atoms: C_25  and  C_27
REMARK   10  A    between atoms: C_27  and  O_29
REMARK   11  A    between atoms: O_29  and  C_30
REMARK                            x       y       z     vdW  Elec       q    Type
REMARK                         _______ _______ _______ _____ _____    ______ ____
ROOT
ATOM      1  C   UNL     1       2.548   1.320  -0.015  0.00  0.00    +0.265 C 
ATOM      2  O   UNL     1       2.776   0.124  -0.023  0.00  0.00    -0.268 OA
ATOM      3  N   UNL     1       3.568   2.200  -0.020  0.00  0.00    -0.227 N 
ATOM      4  H   UNL     1       3.387   3.153  -0.013  0.00  0.00    +0.171 HD
ENDROOT
BRANCH   1  11
ATOM      5  C   UNL     1      -3.628   2.069   0.510  0.00  0.00    -0.001 C 
ATOM      6  C   UNL     1      -3.555   3.350  -0.325  0.00  0.00    +0.009 C 
ATOM      7  C   UNL     1      -2.270   4.106   0.042  0.00  0.00    +0.043 C 
ATOM      8  C   UNL     1      -1.130   3.135   0.028  0.00  0.00    -0.006 A 
ATOM      9  C   UNL     1      -1.211   1.771   0.017  0.00  0.00    -0.036 A 
ATOM     10  C   UNL     1      -0.013   1.076   0.008  0.00  0.00    +0.024 A 
ATOM     11  C   UNL     1       1.164   1.802   0.001  0.00  0.00    +0.076 A 
ATOM     12  S   UNL     1       0.557   3.481   0.014  0.00  0.00    -0.088 S 
ATOM     13  C   UNL     1      -2.569   1.075   0.034  0.00  0.00    +0.040 C 
BRANCH   5  15
ATOM     14  C   UNL     1      -5.269   1.109  -1.111  0.00  0.00    +0.011 C 
ATOM     15  C   UNL     1      -5.017   1.444   0.360  0.00  0.00    -0.035 C 
ATOM     16  C   UNL     1      -5.092   0.163   1.195  0.00  0.00    +0.011 C 
ATOM     17  C   UNL     1      -6.077   2.433   0.848  0.00  0.00    +0.011 C 
ENDBRANCH   5  15
ENDBRANCH   1  11
BRANCH   3  18
ATOM     18  N   UNL     1       4.891   1.739  -0.035  0.00  0.00    -0.108 NA
ATOM     19  H   UNL     1       5.197   1.121   0.647  0.00  0.00    +0.172 HD
BRANCH  18  20
ATOM     20  S   UNL     1       5.933   2.250  -1.217  0.00  0.00    +0.074 S 
ATOM     21  O   UNL     1       7.213   1.732  -0.882  0.00  0.00    -0.152 OA
ATOM     22  O   UNL     1       5.302   1.975  -2.460  0.00  0.00    -0.152 OA
BRANCH  20  23
ATOM     23  C   UNL     1       6.049   4.003  -1.087  0.00  0.00    +0.108 A 
ATOM     24  C   UNL     1       5.178   4.807  -1.801  0.00  0.00    +0.028 A 
ATOM     25  C   UNL     1       5.259   6.185  -1.700  0.00  0.00    +0.003 A 
ATOM     26  C   UNL     1       6.217   6.766  -0.895  0.00  0.00    +0.015 A 
ATOM     27  C   UNL     1       7.103   5.960  -0.177  0.00  0.00    +0.061 A 
ATOM     28  C   UNL     1       7.012   4.571  -0.279  0.00  0.00    +0.043 A 
BRANCH  27  29
ATOM     29  C   UNL     1       8.132   6.576   0.686  0.00  0.00    +0.339 C 
ATOM     30  O   UNL     1       8.901   5.872   1.310  0.00  0.00    -0.245 OA
BRANCH  29  31
ATOM     31  O   UNL     1       8.216   7.917   0.782  0.00  0.00    -0.464 OA
ATOM     32  C   UNL     1       9.251   8.451   1.649  0.00  0.00    +0.280 C 
ENDBRANCH  29  31
ENDBRANCH  27  29
ENDBRANCH  20  23
ENDBRANCH  18  20
ENDBRANCH   3  18
TORSDOF 7
