REMARK  Name = ZINC36188486
REMARK  7 active torsions:
REMARK  status: ('A' for Active; 'I' for Inactive)
REMARK    1  A    between atoms: C_1  and  C_2
REMARK    2  A    between atoms: C_9  and  N_15
REMARK    3  A    between atoms: C_10  and  C_11
REMARK    4  A    between atoms: C_11  and  O_13
REMARK    5  A    between atoms: O_13  and  C_14
REMARK    6  A    between atoms: C_16  and  C_18
REMARK    7  A    between atoms: C_18  and  N_19
REMARK                            x       y       z     vdW  Elec       q    Type
REMARK                         _______ _______ _______ _____ _____    ______ ____
ROOT
ATOM      1  C   UNL     1      -0.019   1.526   0.010  0.00  0.00    +0.008 C 
ATOM      2  C   UNL     1       0.002  -0.004   0.002  0.00  0.00    -0.009 C 
ATOM      3  C   UNL     1       0.724  -0.500  -1.254  0.00  0.00    +0.008 C 
ATOM      4  C   UNL     1       0.537  -2.012  -1.399  0.00  0.00    +0.037 C 
ATOM      5  C   UNL     1       0.935  -2.680  -0.091  0.00  0.00    -0.021 A 
ATOM      6  C   UNL     1       1.020  -1.977   1.059  0.00  0.00    -0.004 A 
ATOM      7  S   UNL     1       1.507  -3.164   2.276  0.00  0.00    -0.077 S 
ATOM      8  C   UNL     1       1.598  -4.539   1.316  0.00  0.00    +0.086 A 
ATOM      9  C   UNL     1       1.254  -4.091   0.050  0.00  0.00    +0.091 A 
ATOM     10  C   UNL     1       0.750  -0.515   1.242  0.00  0.00    +0.046 C 
ENDROOT
BRANCH   8  11
ATOM     11  N   UNL     1       1.940  -5.826   1.701  0.00  0.00    -0.278 N 
ATOM     12  C   UNL     1       2.250  -6.085   2.987  0.00  0.00    +0.239 C 
ATOM     13  O   UNL     1       2.229  -5.192   3.808  0.00  0.00    -0.273 OA
ATOM     14  H   UNL     1       1.957  -6.540   1.045  0.00  0.00    +0.155 HD
BRANCH  12  15
ATOM     15  C   UNL     1       2.621  -7.484   3.406  0.00  0.00    +0.243 C 
BRANCH  15  16
ATOM     16  N   UNL     1       2.912  -7.504   4.841  0.00  0.00    -0.219 N 
ATOM     17  C   UNL     1       1.912  -7.751   5.709  0.00  0.00    +0.288 A 
ATOM     18  O   UNL     1       0.779  -7.956   5.303  0.00  0.00    -0.265 OA
ATOM     19  C   UNL     1       2.188  -7.771   7.093  0.00  0.00    +0.126 A 
ATOM     20  C   UNL     1       3.476  -7.535   7.491  0.00  0.00    +0.084 A 
ATOM     21  C   UNL     1       4.443  -7.287   6.501  0.00  0.00    +0.154 A 
ATOM     22  N   UNL     1       4.113  -7.290   5.239  0.00  0.00    -0.175 NA
ATOM     23 CL   UNL     1       3.904  -7.540   9.173  0.00  0.00    -0.080 Cl
ATOM     24 CL   UNL     1       0.934  -8.084   8.253  0.00  0.00    -0.076 Cl
ENDBRANCH  15  16
ENDBRANCH  12  15
ENDBRANCH   8  11
BRANCH   9  25
ATOM     25  C   UNL     1       1.213  -5.001  -1.097  0.00  0.00    +0.342 C 
ATOM     26  O   UNL     1       2.208  -5.170  -1.774  0.00  0.00    -0.245 OA
BRANCH  25  27
ATOM     27  O   UNL     1       0.071  -5.651  -1.401  0.00  0.00    -0.464 OA
ATOM     28  C   UNL     1       0.103  -6.523  -2.533  0.00  0.00    +0.280 C 
ENDBRANCH  25  27
ENDBRANCH   9  25
TORSDOF 5
