REMARK  Name = ZINC16162047
REMARK  14 active torsions:
REMARK  status: ('A' for Active; 'I' for Inactive)
REMARK    1  A    between atoms: C_1  and  C_2
REMARK    2  A    between atoms: C_2  and  C_3
REMARK    3  A    between atoms: C_6  and  S_9
REMARK    4  A    between atoms: S_9  and  N_12
REMARK    5  A    between atoms: N_12  and  C_13
REMARK    6  A    between atoms: C_13  and  C_14
REMARK    7  A    between atoms: C_14  and  C_35
REMARK    8  A    between atoms: C_16  and  N_23
REMARK    9  A    between atoms: C_19  and  C_21
REMARK   10  A    between atoms: C_19  and  C_22
REMARK   11  A    between atoms: N_23  and  S_24
REMARK   12  A    between atoms: S_24  and  C_27
REMARK   13  A    between atoms: C_30  and  C_33
REMARK   14  A    between atoms: C_33  and  C_34
REMARK                            x       y       z     vdW  Elec       q    Type
REMARK                         _______ _______ _______ _____ _____    ______ ____
ROOT
ATOM      1  C   UNL     1       1.153   1.696   3.012  0.00  0.00    -0.016 C 
ATOM      2  C   UNL     1       1.191   3.197   3.242  0.00  0.00    +0.028 C 
ATOM      3  C   UNL     1       0.784   4.015   2.032  0.00  0.00    +0.078 C 
ATOM      4  C   UNL     1      -0.536   3.557   1.441  0.00  0.00    +0.026 C 
ATOM      5  C   UNL     1      -0.607   2.062   1.177  0.00  0.00    -0.033 C 
ATOM      6  C   UNL     1      -0.125   1.226   2.346  0.00  0.00    +0.014 C 
ATOM      7  C   UNL     1       0.144   1.701  -0.108  0.00  0.00    +0.011 C 
ATOM      8  C   UNL     1      -2.096   1.709   0.937  0.00  0.00    +0.011 C 
ATOM      9  C   UNL     1       2.386   1.234   2.230  0.00  0.00    +0.012 C 
ENDROOT
BRANCH   3  10
ATOM     10  N   UNL     1       1.843   4.066   1.027  0.00  0.00    -0.187 NA
ATOM     11  H   UNL     1       2.416   3.295   0.887  0.00  0.00    +0.148 HD
BRANCH  10  12
ATOM     12  S   UNL     1       2.065   5.438   0.127  0.00  0.00    +0.059 S 
ATOM     13  O   UNL     1       3.171   5.187  -0.729  0.00  0.00    -0.153 OA
ATOM     14  O   UNL     1       0.787   5.810  -0.369  0.00  0.00    -0.153 OA
BRANCH  12  15
ATOM     15  C   UNL     1       2.566   6.712   1.235  0.00  0.00    +0.105 A 
ATOM     16  C   UNL     1       1.617   7.516   1.839  0.00  0.00    +0.029 A 
ATOM     17  C   UNL     1       2.009   8.513   2.712  0.00  0.00    +0.005 A 
ATOM     18  C   UNL     1       3.352   8.713   2.974  0.00  0.00    -0.048 A 
ATOM     19  C   UNL     1       4.301   7.913   2.366  0.00  0.00    +0.005 A 
ATOM     20  C   UNL     1       3.909   6.913   1.497  0.00  0.00    +0.029 A 
BRANCH  18  21
ATOM     21  C   UNL     1       3.780   9.804   3.921  0.00  0.00    +0.032 C 
ATOM     22  C   UNL     1       4.001  11.101   3.140  0.00  0.00    +0.009 C 
ENDBRANCH  18  21
ENDBRANCH  12  15
ENDBRANCH  10  12
ENDBRANCH   3  10
BRANCH   1  23
ATOM     23  C   UNL     1       1.228   1.016   4.402  0.00  0.00    +0.112 C 
BRANCH  23  24
ATOM     24  N   UNL     1       2.451   1.439   5.088  0.00  0.00    -0.189 NA
ATOM     25  H   UNL     1       3.162   1.872   4.589  0.00  0.00    +0.148 HD
BRANCH  24  26
ATOM     26  S   UNL     1       2.622   1.178   6.714  0.00  0.00    +0.058 S 
ATOM     27  O   UNL     1       3.907   1.668   7.072  0.00  0.00    -0.153 OA
ATOM     28  O   UNL     1       1.429   1.648   7.328  0.00  0.00    -0.153 OA
BRANCH  26  32
ATOM     29  C   UNL     1       2.724  -3.303   7.348  0.00  0.00    -0.048 A 
ATOM     30  C   UNL     1       3.899  -2.609   7.127  0.00  0.00    +0.005 A 
ATOM     31  C   UNL     1       3.868  -1.241   6.934  0.00  0.00    +0.029 A 
ATOM     32  C   UNL     1       2.661  -0.566   6.960  0.00  0.00    +0.105 A 
ATOM     33  C   UNL     1       1.487  -1.259   7.186  0.00  0.00    +0.029 A 
ATOM     34  C   UNL     1       1.517  -2.628   7.375  0.00  0.00    +0.005 A 
BRANCH  29  36
ATOM     35  C   UNL     1       2.915  -5.097   9.049  0.00  0.00    +0.009 C 
ATOM     36  C   UNL     1       2.758  -4.795   7.557  0.00  0.00    +0.032 C 
ENDBRANCH  29  36
ENDBRANCH  26  32
ENDBRANCH  24  26
ENDBRANCH  23  24
ENDBRANCH   1  23
TORSDOF 9
