REMARK  Name = ZINC58961077
REMARK  10 active torsions:
REMARK  status: ('A' for Active; 'I' for Inactive)
REMARK    1  A    between atoms: C_1  and  C_2
REMARK    2  A    between atoms: C_2  and  C_4
REMARK    3  A    between atoms: C_2  and  S_19
REMARK    4  A    between atoms: C_4  and  O_6
REMARK    5  A    between atoms: O_6  and  N_7
REMARK    6  A    between atoms: C_8  and  C_9
REMARK    7  A    between atoms: C_8  and  C_10
REMARK    8  A    between atoms: S_19  and  C_20
REMARK    9  A    between atoms: C_22  and  C_30
REMARK   10  A    between atoms: C_24  and  C_26
REMARK                            x       y       z     vdW  Elec       q    Type
REMARK                         _______ _______ _______ _____ _____    ______ ____
ROOT
ATOM      1  S   UNL     1       0.851  -0.589  -1.490  0.00  0.00    -0.071 S 
ENDROOT
BRANCH   1   2
ATOM      2  C   UNL     1      -0.189  -0.057  -2.809  0.00  0.00    +0.190 A 
ATOM      3  N   UNL     1       0.155  -0.338  -4.057  0.00  0.00    -0.222 NA
ATOM      4  C   UNL     1      -0.610   0.050  -5.074  0.00  0.00    +0.076 A 
ATOM      5  C   UNL     1      -1.784   0.760  -4.807  0.00  0.00    +0.060 A 
ATOM      6  C   UNL     1      -2.105   1.031  -3.490  0.00  0.00    +0.148 A 
ATOM      7  N   UNL     1      -1.300   0.610  -2.527  0.00  0.00    -0.218 NA
BRANCH   4   8
ATOM      8  C   UNL     1      -0.222  -0.266  -6.470  0.00  0.00    +0.001 A 
ATOM      9  C   UNL     1      -1.027   0.149  -7.530  0.00  0.00    +0.013 A 
ATOM     10  C   UNL     1      -0.662  -0.146  -8.827  0.00  0.00    +0.039 A 
ATOM     11  C   UNL     1       0.502  -0.855  -9.077  0.00  0.00    +0.123 A 
ATOM     12  C   UNL     1       1.305  -1.271  -8.027  0.00  0.00    +0.039 A 
ATOM     13  C   UNL     1       0.951  -0.974  -6.727  0.00  0.00    +0.013 A 
ATOM     14  F   UNL     1       0.855  -1.143 -10.349  0.00  0.00    -0.205 F 
ENDBRANCH   4   8
BRANCH   6  15
ATOM     15  C   UNL     1      -3.361   1.794  -3.153  0.00  0.00    +0.434 C 
ATOM     16  F   UNL     1      -4.419   0.895  -2.978  0.00  0.00    -0.164 F 
ATOM     17  F   UNL     1      -3.164   2.518  -1.973  0.00  0.00    -0.164 F 
ATOM     18  F   UNL     1      -3.665   2.675  -4.196  0.00  0.00    -0.164 F 
ENDBRANCH   6  15
ENDBRANCH   1   2
BRANCH   1  20
ATOM     19  C   UNL     1      -0.019   1.526   0.010  0.00  0.00    +0.031 C 
ATOM     20  C   UNL     1       0.002  -0.004   0.002  0.00  0.00    +0.162 C 
BRANCH  20  21
ATOM     21  C   UNL     1       0.731  -0.503   1.223  0.00  0.00    +0.349 C 
ATOM     22  O   UNL     1       1.910  -0.775   1.156  0.00  0.00    -0.247 OA
BRANCH  21  23
ATOM     23  O   UNL     1       0.074  -0.647   2.384  0.00  0.00    -0.316 OA
BRANCH  23  24
ATOM     24  N   UNL     1       0.880  -1.123   3.446  0.00  0.00    -0.079 NA
ATOM     25  C   UNL     1       0.364  -1.304   4.620  0.00  0.00    +0.085 C 
ATOM     26  C   UNL     1      -1.094  -1.008   4.855  0.00  0.00    +0.070 C 
BRANCH  25  27
ATOM     27  C   UNL     1       1.204  -1.801   5.726  0.00  0.00    +0.003 A 
ATOM     28  C   UNL     1       0.647  -2.002   6.992  0.00  0.00    +0.013 A 
ATOM     29  C   UNL     1       1.434  -2.467   8.024  0.00  0.00    +0.050 A 
ATOM     30  C   UNL     1       2.779  -2.735   7.812  0.00  0.00    +0.166 A 
ATOM     31  C   UNL     1       3.341  -2.536   6.551  0.00  0.00    +0.167 A 
ATOM     32  C   UNL     1       2.556  -2.076   5.510  0.00  0.00    +0.059 A 
ATOM     33  O   UNL     1       4.663  -2.870   6.605  0.00  0.00    -0.453 OA
ATOM     34  C   UNL     1       4.998  -2.884   8.006  0.00  0.00    +0.466 C 
ATOM     35  O   UNL     1       3.750  -3.194   8.653  0.00  0.00    -0.453 OA
ENDBRANCH  25  27
ENDBRANCH  23  24
ENDBRANCH  21  23
ENDBRANCH  20  21
ENDBRANCH   1  20
TORSDOF 8
