REMARK  Name = ZINC39675848
REMARK  13 active torsions:
REMARK  status: ('A' for Active; 'I' for Inactive)
REMARK    1  A    between atoms: C_1  and  C_2
REMARK    2  A    between atoms: C_2  and  C_3
REMARK    3  A    between atoms: C_3  and  C_4
REMARK    4  A    between atoms: C_4  and  C_5
REMARK    5  A    between atoms: C_5  and  C_7
REMARK    6  A    between atoms: C_5  and  C_8
REMARK    7  A    between atoms: C_12  and  C_21
REMARK    8  A    between atoms: N_23  and  C_24
REMARK    9  A    between atoms: C_24  and  C_25
REMARK   10  A    between atoms: C_25  and  C_27
REMARK   11  A    between atoms: C_25  and  N_33
REMARK   12  A    between atoms: N_33  and  C_34
REMARK   13  A    between atoms: N_33  and  C_35
REMARK                            x       y       z     vdW  Elec       q    Type
REMARK                         _______ _______ _______ _____ _____    ______ ____
ROOT
ATOM      1  C   UNL     1       1.787  -4.306   2.972  0.00  0.00    +0.218 C 
ATOM      2  O   UNL     1       1.558  -5.015   2.015  0.00  0.00    -0.275 OA
ATOM      3  N   UNL     1       2.360  -4.828   4.075  0.00  0.00    -0.300 N 
ATOM      4  C   UNL     1       2.628  -4.151   5.366  0.00  0.00    +0.121 C 
ATOM      5  C   UNL     1       2.306  -5.215   6.439  0.00  0.00    +0.100 C 
ATOM      6  C   UNL     1       2.463  -6.562   5.715  0.00  0.00    -0.004 C 
ATOM      7  C   UNL     1       2.857  -6.210   4.273  0.00  0.00    +0.115 C 
ATOM      8  C   UNL     1       3.560  -7.392   6.376  0.00  0.00    -0.010 C 
ATOM      9  C   UNL     1       3.659  -8.750   5.676  0.00  0.00    -0.082 C 
ATOM     10  N   UNL     1       2.369  -9.445   5.768  0.00  0.00    +0.379 N 
ATOM     11  C   UNL     1       1.338  -8.686   5.050  0.00  0.00    -0.082 C 
ATOM     12  C   UNL     1       1.142  -7.325   5.724  0.00  0.00    -0.010 C 
ATOM     13  H   UNL     1       2.454 -10.364   5.360  0.00  0.00    -0.086 HD
ATOM     14  H   UNL     1       2.105  -9.534   6.738  0.00  0.00    -0.086 HD
ENDROOT
BRANCH   5  15
ATOM     15  C   UNL     1       0.893  -5.046   6.937  0.00  0.00    +0.218 C 
ATOM     16  O   UNL     1       0.056  -4.533   6.225  0.00  0.00    -0.275 OA
ATOM     17  N   UNL     1       0.560  -5.466   8.174  0.00  0.00    -0.316 N 
ATOM     18  H   UNL     1       1.230  -5.876   8.743  0.00  0.00    +0.149 HD
BRANCH  17  19
ATOM     19  C   UNL     1      -0.813  -5.302   8.658  0.00  0.00    +0.093 C 
BRANCH  19  20
ATOM     20  C   UNL     1      -0.892  -5.737  10.123  0.00  0.00    -0.021 C 
BRANCH  20  21
ATOM     21  C   UNL     1      -0.033  -4.828  10.964  0.00  0.00    -0.059 A 
ATOM     22  C   UNL     1      -0.508  -3.588  11.348  0.00  0.00    +0.002 A 
ATOM     23  C   UNL     1       0.280  -2.755  12.119  0.00  0.00    +0.000 A 
ATOM     24  C   UNL     1       1.543  -3.162  12.507  0.00  0.00    +0.000 A 
ATOM     25  C   UNL     1       2.018  -4.402  12.124  0.00  0.00    +0.000 A 
ATOM     26  C   UNL     1       1.228  -5.237  11.356  0.00  0.00    +0.002 A 
ENDBRANCH  20  21
BRANCH  20  27
ATOM     27  N   UNL     1      -2.285  -5.657  10.582  0.00  0.00    +0.382 N 
ATOM     28  C   UNL     1      -3.108  -6.603   9.816  0.00  0.00    -0.096 C 
ATOM     29  C   UNL     1      -2.350  -5.997  12.010  0.00  0.00    -0.096 C 
ATOM     30  H   UNL     1      -2.632  -4.720  10.443  0.00  0.00    -0.082 HD
ENDBRANCH  20  27
ENDBRANCH  19  20
ENDBRANCH  17  19
ENDBRANCH   5  15
BRANCH   1  31
ATOM     31  C   UNL     1       1.433  -2.842   2.928  0.00  0.00    +0.072 C 
ATOM     32  C   UNL     1       0.155  -2.652   2.107  0.00  0.00    +0.017 C 
BRANCH  31  33
ATOM     33  C   UNL     1       2.576  -2.060   2.280  0.00  0.00    +0.012 C 
BRANCH  33  34
ATOM     34  C   UNL     1       2.272  -0.562   2.347  0.00  0.00    +0.000 C 
BRANCH  34  36
ATOM     35  C   UNL     1       3.111   1.719   1.767  0.00  0.00    +0.004 C 
ATOM     36  C   UNL     1       3.416   0.221   1.699  0.00  0.00    -0.003 C 
ENDBRANCH  34  36
ENDBRANCH  33  34
ENDBRANCH  31  33
ENDBRANCH   1  31
TORSDOF 9
