REMARK  Name = ZINC03212426
REMARK  6 active torsions:
REMARK  status: ('A' for Active; 'I' for Inactive)
REMARK    1  A    between atoms: C_4  and  O_7
REMARK    2  A    between atoms: O_7  and  C_8
REMARK    3  A    between atoms: C_8  and  C_9
REMARK    4  A    between atoms: N_11  and  N_12
REMARK    5  A    between atoms: C_13  and  C_14
REMARK    6  A    between atoms: C_15  and  O_27
REMARK                            x       y       z     vdW  Elec       q    Type
REMARK                         _______ _______ _______ _____ _____    ______ ____
ROOT
ATOM      1  C   UNL     1       0.170   0.101   3.213  0.00  0.00    +0.047 A 
ATOM      2  C   UNL     1       0.010  -0.062   4.600  0.00  0.00    +0.126 A 
ATOM      3  C   UNL     1      -0.866   0.731   5.324  0.00  0.00    +0.049 A 
ATOM      4  C   UNL     1      -1.631   1.724   4.733  0.00  0.00    +0.050 A 
ATOM      5  C   UNL     1      -1.496   1.911   3.360  0.00  0.00    +0.136 A 
ATOM      6  C   UNL     1      -0.606   1.109   2.606  0.00  0.00    +0.036 A 
ATOM      7  C   UNL     1      -0.725   1.575   1.242  0.00  0.00    +0.002 A 
ATOM      8  C   UNL     1      -1.636   2.575   1.252  0.00  0.00    +0.109 A 
ATOM      9  O   UNL     1      -2.088   2.766   2.505  0.00  0.00    -0.459 OA
ATOM     10  C   UNL     1      -2.052   3.342   0.018  0.00  0.00    +0.075 C 
ATOM     11  C   UNL     1      -1.012   3.101  -1.081  0.00  0.00    +0.008 C 
ATOM     12  C   UNL     1      -0.762   1.598  -1.228  0.00  0.00    +0.005 C 
ATOM     13  C   UNL     1      -0.013   1.086   0.008  0.00  0.00    +0.039 C 
ENDROOT
BRANCH   1  15
ATOM     14  N   UNL     1       1.796  -1.655   3.033  0.00  0.00    -0.187 NA
ATOM     15  C   UNL     1       1.097  -0.736   2.437  0.00  0.00    +0.142 C 
BRANCH  14  18
ATOM     16  C   UNL     1       3.404  -3.407   2.911  0.00  0.00    +0.270 C 
ATOM     17  O   UNL     1       3.291  -3.575   4.107  0.00  0.00    -0.270 OA
ATOM     18  N   UNL     1       2.679  -2.453   2.293  0.00  0.00    -0.204 N 
ATOM     19  H   UNL     1       2.769  -2.319   1.337  0.00  0.00    +0.177 HD
BRANCH  16  20
ATOM     20  C   UNL     1       4.354  -4.265   2.116  0.00  0.00    +0.326 C 
BRANCH  20  21
ATOM     21  O   UNL     1       5.000  -5.194   2.988  0.00  0.00    -0.483 OA
BRANCH  21  25
ATOM     22  C   UNL     1       7.718  -7.786   1.280  0.00  0.00    +0.000 A 
ATOM     23  C   UNL     1       7.469  -7.844   2.639  0.00  0.00    +0.004 A 
ATOM     24  C   UNL     1       6.559  -6.977   3.214  0.00  0.00    +0.045 A 
ATOM     25  C   UNL     1       5.895  -6.048   2.425  0.00  0.00    +0.121 A 
ATOM     26  C   UNL     1       6.142  -5.996   1.061  0.00  0.00    +0.045 A 
ATOM     27  C   UNL     1       7.056  -6.862   0.493  0.00  0.00    +0.004 A 
ENDBRANCH  21  25
ENDBRANCH  20  21
ENDBRANCH  16  20
ENDBRANCH  14  18
ENDBRANCH   1  15
BRANCH   2  28
ATOM     28  O   UNL     1       0.729  -1.017   5.245  0.00  0.00    -0.506 OA
ATOM     29  H   UNL     1       1.585  -0.710   5.574  0.00  0.00    +0.292 HD
ENDBRANCH   2  28
TORSDOF 6
