REMARK  Name = ZINC03052303
REMARK  6 active torsions:
REMARK  status: ('A' for Active; 'I' for Inactive)
REMARK    1  A    between atoms: C_4  and  N_7
REMARK    2  A    between atoms: C_13  and  C_27
REMARK    3  A    between atoms: C_17  and  S_18
REMARK    4  A    between atoms: S_18  and  C_19
REMARK    5  A    between atoms: C_19  and  C_20
REMARK    6  A    between atoms: C_32  and  C_35
REMARK                            x       y       z     vdW  Elec       q    Type
REMARK                         _______ _______ _______ _____ _____    ______ ____
ROOT
ATOM      1  N   UNL     1      -0.813   4.974   2.612  0.00  0.00    -0.255 N 
ATOM      2  C   UNL     1      -1.495   5.836   1.822  0.00  0.00    +0.267 A 
ATOM      3  O   UNL     1      -2.627   6.186   2.101  0.00  0.00    -0.267 OA
ATOM      4  C   UNL     1      -0.818   6.334   0.614  0.00  0.00    +0.065 A 
ATOM      5  C   UNL     1      -1.442   7.224  -0.259  0.00  0.00    +0.016 A 
ATOM      6  C   UNL     1      -0.780   7.663  -1.370  0.00  0.00    +0.014 A 
ATOM      7  C   UNL     1       0.522   7.227  -1.643  0.00  0.00    +0.039 A 
ATOM      8  C   UNL     1       1.163   6.340  -0.787  0.00  0.00    +0.041 A 
ATOM      9  C   UNL     1       0.496   5.884   0.354  0.00  0.00    +0.080 A 
ATOM     10  N   UNL     1       1.083   5.023   1.218  0.00  0.00    -0.223 NA
ATOM     11  C   UNL     1       0.458   4.590   2.285  0.00  0.00    +0.177 A 
ENDROOT
BRANCH   7  12
ATOM     12  C   UNL     1       1.222   7.714  -2.853  0.00  0.00    +0.247 C 
ATOM     13  O   UNL     1       1.992   6.984  -3.446  0.00  0.00    -0.270 OA
ATOM     14  N   UNL     1       1.005   8.967  -3.299  0.00  0.00    -0.297 N 
ATOM     15  C   UNL     1       0.173   9.902  -2.528  0.00  0.00    +0.109 C 
ATOM     16  C   UNL     1      -0.924  10.456  -3.435  0.00  0.00    +0.032 C 
ATOM     17  C   UNL     1      -0.289  11.065  -4.687  0.00  0.00    +0.078 C 
ATOM     18  C   UNL     1       0.473   9.981  -5.454  0.00  0.00    +0.032 C 
ATOM     19  C   UNL     1       1.591   9.423  -4.567  0.00  0.00    +0.109 C 
BRANCH  17  20
ATOM     20  C   UNL     1      -1.367  11.639  -5.569  0.00  0.00    +0.214 C 
ATOM     21  O   UNL     1      -1.513  11.223  -6.699  0.00  0.00    -0.276 OA
ATOM     22  N   UNL     1      -2.171  12.615  -5.102  0.00  0.00    -0.329 N 
ATOM     23  H   UNL     1      -2.054  12.948  -4.199  0.00  0.00    +0.145 HD
ATOM     24  H   UNL     1      -2.865  12.985  -5.670  0.00  0.00    +0.145 HD
ENDBRANCH  17  20
ENDBRANCH   7  12
BRANCH   1  28
ATOM     25  C   UNL     1      -2.602   3.479   6.066  0.00  0.00    +0.000 A 
ATOM     26  C   UNL     1      -1.869   4.650   6.120  0.00  0.00    +0.002 A 
ATOM     27  C   UNL     1      -1.275   5.148   4.977  0.00  0.00    +0.026 A 
ATOM     28  C   UNL     1      -1.415   4.472   3.773  0.00  0.00    +0.052 A 
ATOM     29  C   UNL     1      -2.156   3.299   3.720  0.00  0.00    +0.026 A 
ATOM     30  C   UNL     1      -2.743   2.803   4.868  0.00  0.00    +0.002 A 
ENDBRANCH   1  28
BRANCH  11  31
ATOM     31  S   UNL     1       1.296   3.466   3.352  0.00  0.00    -0.083 S 
BRANCH  31  32
ATOM     32  C   UNL     1       2.870   3.312   2.472  0.00  0.00    +0.112 C 
BRANCH  32  33
ATOM     33  C   UNL     1       3.776   2.370   3.223  0.00  0.00    -0.034 A 
ATOM     34  C   UNL     1       3.752   1.017   2.942  0.00  0.00    +0.004 A 
ATOM     35  C   UNL     1       4.582   0.152   3.630  0.00  0.00    +0.003 A 
ATOM     36  C   UNL     1       5.437   0.639   4.600  0.00  0.00    +0.038 A 
ATOM     37  C   UNL     1       5.462   1.994   4.882  0.00  0.00    +0.124 A 
ATOM     38  C   UNL     1       4.634   2.861   4.188  0.00  0.00    +0.042 A 
ATOM     39  F   UNL     1       6.298   2.472   5.830  0.00  0.00    -0.205 F 
ENDBRANCH  32  33
ENDBRANCH  31  32
ENDBRANCH  11  31
TORSDOF 6
