REMARK  Name = ZINC41151499
REMARK  7 active torsions:
REMARK  status: ('A' for Active; 'I' for Inactive)
REMARK    1  A    between atoms: C_1  and  C_2
REMARK    2  A    between atoms: C_2  and  C_3
REMARK    3  A    between atoms: C_3  and  C_4
REMARK    4  A    between atoms: C_3  and  C_6
REMARK    5  A    between atoms: C_3  and  N_19
REMARK    6  A    between atoms: C_4  and  C_5
REMARK    7  A    between atoms: C_8  and  C_11
REMARK                            x       y       z     vdW  Elec       q    Type
REMARK                         _______ _______ _______ _____ _____    ______ ____
ROOT
ATOM      1  C   UNL     1      -1.414  -2.036   0.129  0.00  0.00    +0.161 A 
ATOM      2  N   UNL     1      -1.971  -2.744   1.113  0.00  0.00    -0.193 NA
ATOM      3  C   UNL     1      -1.772  -4.027   0.912  0.00  0.00    +0.260 A 
ATOM      4  O   UNL     1      -1.070  -4.165  -0.226  0.00  0.00    -0.333 OA
ATOM      5  N   UNL     1      -0.855  -2.852  -0.720  0.00  0.00    -0.062 NA
ENDROOT
BRANCH   3   6
ATOM      6  C   UNL     1      -2.237  -5.126   1.784  0.00  0.00    +0.056 A 
ATOM      7  C   UNL     1      -2.965  -4.842   2.941  0.00  0.00    +0.052 A 
ATOM      8  C   UNL     1      -3.398  -5.874   3.751  0.00  0.00    +0.124 A 
ATOM      9  C   UNL     1      -3.109  -7.188   3.418  0.00  0.00    +0.039 A 
ATOM     10  C   UNL     1      -2.388  -7.475   2.274  0.00  0.00    +0.019 A 
ATOM     11  C   UNL     1      -1.955  -6.453   1.452  0.00  0.00    +0.030 A 
ATOM     12 BR   UNL     1      -0.976  -6.849  -0.116  0.00  0.00    -0.050 Br
ATOM     13  F   UNL     1      -4.103  -5.601   4.871  0.00  0.00    -0.205 F 
ENDBRANCH   3   6
BRANCH   1  14
ATOM     14  C   UNL     1      -1.433  -0.534   0.013  0.00  0.00    -0.007 C 
BRANCH  14  15
ATOM     15  N   UNL     1      -2.157   0.036   1.157  0.00  0.00    +0.387 N 
ATOM     16  H   UNL     1      -2.170   1.042   1.080  0.00  0.00    -0.089 HD
ATOM     17  H   UNL     1      -3.103  -0.313   1.165  0.00  0.00    -0.089 HD
ATOM     18  H   UNL     1      -1.694  -0.229   2.014  0.00  0.00    -0.089 HD
ENDBRANCH  14  15
BRANCH  14  20
ATOM     19  C   UNL     1      -0.019   1.526   0.010  0.00  0.00    +0.003 C 
ATOM     20  C   UNL     1       0.002  -0.004   0.002  0.00  0.00    -0.009 C 
ENDBRANCH  14  20
BRANCH  14  21
ATOM     21  C   UNL     1      -2.135  -0.131  -1.286  0.00  0.00    -0.009 C 
ATOM     22  C   UNL     1      -1.382  -0.725  -2.478  0.00  0.00    +0.003 C 
ENDBRANCH  14  21
ENDBRANCH   1  14
TORSDOF 5
