REMARK  Name = ZINC63426716
REMARK  12 active torsions:
REMARK  status: ('A' for Active; 'I' for Inactive)
REMARK    1  A    between atoms: C_1  and  C_2
REMARK    2  A    between atoms: C_2  and  C_3
REMARK    3  A    between atoms: C_2  and  C_4
REMARK    4  A    between atoms: C_2  and  O_5
REMARK    5  A    between atoms: O_5  and  C_6
REMARK    6  A    between atoms: N_8  and  C_9
REMARK    7  A    between atoms: C_9  and  C_11
REMARK    8  A    between atoms: C_9  and  C_21
REMARK    9  A    between atoms: C_11  and  C_12
REMARK   10  A    between atoms: C_25  and  S_28
REMARK   11  A    between atoms: S_28  and  C_29
REMARK   12  A    between atoms: C_29  and  C_30
REMARK                            x       y       z     vdW  Elec       q    Type
REMARK                         _______ _______ _______ _____ _____    ______ ____
ROOT
ATOM      1  C   UNL     1       4.001   0.022  -3.177  0.00  0.00    +0.133 C 
ENDROOT
BRANCH   1   2
ATOM      2  C   UNL     1       4.952  -0.555  -2.127  0.00  0.00    +0.280 C 
ATOM      3  N   UNL     1       6.263   0.103  -2.210  0.00  0.00    -0.155 NA
ATOM      4  N   UNL     1       6.669   0.386  -1.075  0.00  0.00    -0.146 NA
ATOM      5  C   UNL     1       5.690  -0.041  -0.067  0.00  0.00    +0.319 C 
ATOM      6  O   UNL     1       4.466  -0.268  -0.799  0.00  0.00    -0.316 OA
BRANCH   5   7
ATOM      7  S   UNL     1       5.454   1.261   1.173  0.00  0.00    -0.100 S 
BRANCH   7   8
ATOM      8  C   UNL     1       4.758   2.645   0.229  0.00  0.00    +0.110 C 
BRANCH   8   9
ATOM      9  C   UNL     1       4.630   3.850   1.125  0.00  0.00    -0.019 A 
ATOM     10  C   UNL     1       3.510   4.004   1.921  0.00  0.00    +0.006 A 
ATOM     11  C   UNL     1       3.392   5.109   2.743  0.00  0.00    +0.000 A 
ATOM     12  C   UNL     1       4.394   6.061   2.769  0.00  0.00    +0.001 A 
ATOM     13  C   UNL     1       5.514   5.909   1.974  0.00  0.00    +0.020 A 
ATOM     14  C   UNL     1       5.635   4.800   1.155  0.00  0.00    +0.045 A 
ATOM     15 CL   UNL     1       7.045   4.604   0.161  0.00  0.00    -0.083 Cl
ENDBRANCH   8   9
ENDBRANCH   7   8
ENDBRANCH   5   7
ENDBRANCH   1   2
BRANCH   1  18
ATOM     16  C   UNL     1       2.423  -1.798  -3.544  0.00  0.00    +0.401 C 
ATOM     17  O   UNL     1       3.264  -2.353  -4.223  0.00  0.00    -0.226 OA
ATOM     18  N   UNL     1       2.676  -0.582  -3.020  0.00  0.00    -0.274 N 
ATOM     19  H   UNL     1       1.980  -0.107  -2.539  0.00  0.00    +0.152 HD
BRANCH  16  20
ATOM     20  O   UNL     1       1.239  -2.396  -3.316  0.00  0.00    -0.445 OA
BRANCH  20  22
ATOM     21  C   UNL     1       2.145  -4.636  -3.312  0.00  0.00    +0.055 C 
ATOM     22  C   UNL     1       1.060  -3.707  -3.857  0.00  0.00    +0.107 C 
ATOM     23  C   UNL     1       1.159  -3.647  -5.383  0.00  0.00    +0.055 C 
ATOM     24  C   UNL     1      -0.317  -4.240  -3.456  0.00  0.00    +0.055 C 
ENDBRANCH  20  22
ENDBRANCH  16  20
ENDBRANCH   1  18
BRANCH   1  25
ATOM     25  C   UNL     1       3.896   1.538  -2.992  0.00  0.00    +0.060 C 
BRANCH  25  26
ATOM     26  C   UNL     1       3.058   2.122  -4.100  0.00  0.00    -0.040 C 
ATOM     27  C   UNL     1       1.733   2.393  -4.060  0.00  0.00    -0.001 A 
ATOM     28  C   UNL     1       0.716   2.232  -3.015  0.00  0.00    +0.010 A 
ATOM     29  C   UNL     1      -0.559   2.602  -3.277  0.00  0.00    +0.001 A 
ATOM     30  C   UNL     1      -0.931   3.134  -4.519  0.00  0.00    +0.002 A 
ATOM     31  C   UNL     1      -0.053   3.313  -5.529  0.00  0.00    +0.026 A 
ATOM     32  C   UNL     1       1.315   2.958  -5.363  0.00  0.00    +0.043 A 
ATOM     33  N   UNL     1       2.340   3.033  -6.176  0.00  0.00    -0.380 N 
ATOM     34  C   UNL     1       3.528   2.529  -5.478  0.00  0.00    +0.144 C 
ATOM     35  H   UNL     1       2.318   3.369  -7.086  0.00  0.00    +0.160 HD
ENDBRANCH  25  26
ENDBRANCH   1  25
TORSDOF 9
