REMARK  Name = ZINC51394365
REMARK  3 active torsions:
REMARK  status: ('A' for Active; 'I' for Inactive)
REMARK    1  A    between atoms: C_3  and  C_10
REMARK    2  A    between atoms: C_6  and  C_8
REMARK    3  A    between atoms: C_8  and  S_9
REMARK                            x       y       z     vdW  Elec       q    Type
REMARK                         _______ _______ _______ _____ _____    ______ ____
ROOT
ATOM      1  C   UNL     1      -0.019   1.545   0.011  0.00  0.00    +0.035 C 
ATOM      2  C   UNL     1       1.502   1.861  -0.002  0.00  0.00    +0.046 C 
ATOM      3  C   UNL     1       2.084   0.700   0.833  0.00  0.00    +0.231 C 
ATOM      4  O   UNL     1       1.130  -0.368   0.813  0.00  0.00    -0.361 OA
ATOM      5  C   UNL     1       0.002  -0.004   0.002  0.00  0.00    +0.129 C 
ENDROOT
BRANCH   3   6
ATOM      6  C   UNL     1       3.385   0.238   0.228  0.00  0.00    +0.384 C 
ATOM      7  O   UNL     1       4.346   0.987   0.204  0.00  0.00    -0.243 OA
ATOM      8  O   UNL     1       3.475  -0.885  -0.238  0.00  0.00    -0.243 OA
ENDBRANCH   3   6
BRANCH   5   9
ATOM      9  C   UNL     1      -1.289  -0.556   0.610  0.00  0.00    +0.097 C 
BRANCH   9  10
ATOM     10  S   UNL     1      -1.240  -2.369   0.588  0.00  0.00    -0.176 S 
ATOM     11  H   UNL     1      -2.412  -2.733   1.140  0.00  0.00    +0.102 HD
ENDBRANCH   9  10
ENDBRANCH   5   9
TORSDOF 3
