REMARK  Name = ZINC08469140
REMARK  10 active torsions:
REMARK  status: ('A' for Active; 'I' for Inactive)
REMARK    1  A    between atoms: C_1  and  O_2
REMARK    2  A    between atoms: O_2  and  C_3
REMARK    3  A    between atoms: C_7  and  O_9
REMARK    4  A    between atoms: O_9  and  C_10
REMARK    5  A    between atoms: C_10  and  C_11
REMARK    6  A    between atoms: C_11  and  N_12
REMARK    7  A    between atoms: C_14  and  C_21
REMARK    8  A    between atoms: C_31  and  S_33
REMARK    9  A    between atoms: S_33  and  C_34
REMARK   10  A    between atoms: C_34  and  C_35
REMARK                            x       y       z     vdW  Elec       q    Type
REMARK                         _______ _______ _______ _____ _____    ______ ____
ROOT
ATOM      1  C   UNL     1       7.897   9.631   1.591  0.00  0.00    +0.026 C 
ATOM      2  C   UNL     1       7.961   9.216   2.908  0.00  0.00    +0.081 C 
ATOM      3  C   UNL     1       8.914   9.823   3.876  0.00  0.00    +0.153 C 
ATOM      4  N   UNL     1      10.097  10.267   3.536  0.00  0.00    -0.283 NA
ATOM      5  N   UNL     1       8.418   9.874   5.195  0.00  0.00    -0.151 N 
ATOM      6  C   UNL     1       7.417   8.992   5.534  0.00  0.00    +0.181 C 
ATOM      7  N   UNL     1       6.804   8.141   4.750  0.00  0.00    -0.152 NA
ATOM      8  C   UNL     1       7.081   8.146   3.432  0.00  0.00    +0.273 C 
ATOM      9  O   UNL     1       6.622   7.289   2.693  0.00  0.00    -0.268 OA
ATOM     10  S   UNL     1       7.168   9.347   7.253  0.00  0.00    -0.027 S 
ATOM     11  C   UNL     1       8.373  10.659   7.400  0.00  0.00    +0.156 C 
ATOM     12  N   UNL     1       8.863  10.722   6.187  0.00  0.00    -0.158 NA
ATOM     13  H   UNL     1      10.680  10.655   4.207  0.00  0.00    +0.188 HD
ENDROOT
BRANCH   1  16
ATOM     14  N   UNL     1       4.887   8.423   0.030  0.00  0.00    -0.343 N 
ATOM     15  C   UNL     1       5.569   8.854   1.110  0.00  0.00    +0.095 A 
ATOM     16  C   UNL     1       6.869   9.152   0.747  0.00  0.00    +0.001 A 
ATOM     17  C   UNL     1       6.967   8.867  -0.698  0.00  0.00    +0.007 A 
ATOM     18  C   UNL     1       5.698   8.410  -1.087  0.00  0.00    +0.050 A 
ATOM     19  C   UNL     1       5.480   8.052  -2.413  0.00  0.00    +0.026 A 
ATOM     20  C   UNL     1       6.506   8.145  -3.328  0.00  0.00    +0.002 A 
ATOM     21  C   UNL     1       7.760   8.593  -2.942  0.00  0.00    +0.001 A 
ATOM     22  C   UNL     1       7.993   8.961  -1.633  0.00  0.00    +0.010 A 
BRANCH  14  23
ATOM     23  C   UNL     1       3.479   8.018   0.042  0.00  0.00    +0.163 C 
BRANCH  23  24
ATOM     24  C   UNL     1       3.386   6.501   0.216  0.00  0.00    +0.250 C 
BRANCH  24  25
ATOM     25  O   UNL     1       2.013   6.106   0.227  0.00  0.00    -0.490 OA
BRANCH  25  30
ATOM     26  C   UNL     1       0.182   2.975   0.545  0.00  0.00    +0.124 A 
ATOM     27  C   UNL     1       1.232   2.077   0.681  0.00  0.00    +0.046 A 
ATOM     28  C   UNL     1       2.537   2.530   0.656  0.00  0.00    +0.007 A 
ATOM     29  C   UNL     1       2.800   3.878   0.506  0.00  0.00    +0.046 A 
ATOM     30  C   UNL     1       1.754   4.780   0.375  0.00  0.00    +0.124 A 
ATOM     31  C   UNL     1       0.443   4.328   0.395  0.00  0.00    +0.091 A 
BRANCH  26  33
ATOM     32  C   UNL     1      -1.297   1.121   0.723  0.00  0.00    +0.277 C 
ATOM     33  O   UNL     1      -1.102   2.528   0.565  0.00  0.00    -0.495 OA
ENDBRANCH  26  33
ENDBRANCH  25  30
ENDBRANCH  24  25
ENDBRANCH  23  24
ENDBRANCH  14  23
ENDBRANCH   1  16
BRANCH  11  34
ATOM     34  S   UNL     1       8.796  11.620   8.816  0.00  0.00    -0.092 S 
BRANCH  34  35
ATOM     35  C   UNL     1      10.071  12.687   8.102  0.00  0.00    +0.111 C 
BRANCH  35  36
ATOM     36  C   UNL     1      10.595  13.622   9.161  0.00  0.00    -0.037 A 
ATOM     37  C   UNL     1      10.001  14.856   9.348  0.00  0.00    +0.004 A 
ATOM     38  C   UNL     1      10.478  15.713  10.323  0.00  0.00    +0.000 A 
ATOM     39  C   UNL     1      11.555  15.338  11.105  0.00  0.00    +0.000 A 
ATOM     40  C   UNL     1      12.152  14.106  10.915  0.00  0.00    +0.000 A 
ATOM     41  C   UNL     1      11.672  13.248   9.943  0.00  0.00    +0.004 A 
ENDBRANCH  35  36
ENDBRANCH  34  35
ENDBRANCH  11  34
TORSDOF 9
