REMARK  Name = ZINC15452112
REMARK  14 active torsions:
REMARK  status: ('A' for Active; 'I' for Inactive)
REMARK    1  A    between atoms: C_1  and  C_2
REMARK    2  A    between atoms: C_2  and  C_3
REMARK    3  A    between atoms: C_3  and  C_4
REMARK    4  A    between atoms: C_4  and  N_5
REMARK    5  A    between atoms: C_6  and  N_34
REMARK    6  A    between atoms: C_7  and  N_14
REMARK    7  A    between atoms: N_14  and  C_15
REMARK    8  A    between atoms: C_20  and  C_22
REMARK    9  A    between atoms: C_22  and  S_23
REMARK   10  A    between atoms: S_23  and  C_24
REMARK   11  A    between atoms: C_27  and  C_30
REMARK   12  A    between atoms: C_30  and  C_31
REMARK   13  A    between atoms: C_30  and  C_32
REMARK   14  A    between atoms: C_30  and  C_33
REMARK                            x       y       z     vdW  Elec       q    Type
REMARK                         _______ _______ _______ _____ _____    ______ ____
ROOT
ATOM      1  N   UNL     1       4.374  -4.880   0.269  0.00  0.00    -0.260 N 
ATOM      2  C   UNL     1       3.125  -4.378   0.361  0.00  0.00    +0.230 C 
ATOM      3  O   UNL     1       2.959  -3.180   0.466  0.00  0.00    -0.274 OA
ENDROOT
BRANCH   1   6
ATOM      4  N   UNL     1       4.400  -8.388  -0.826  0.00  0.00    -0.280 N 
ATOM      5  C   UNL     1       4.192  -7.028  -0.840  0.00  0.00    +0.127 A 
ATOM      6  C   UNL     1       4.573  -6.277   0.253  0.00  0.00    +0.140 A 
ATOM      7  C   UNL     1       5.168  -6.928   1.350  0.00  0.00    +0.277 A 
ATOM      8  O   UNL     1       5.518  -6.288   2.328  0.00  0.00    -0.266 OA
ATOM      9  N   UNL     1       5.344  -8.263   1.316  0.00  0.00    -0.273 N 
ATOM     10  H   UNL     1       5.760  -8.727   2.098  0.00  0.00    +0.173 HD
ATOM     11  C   UNL     1       4.967  -8.979   0.241  0.00  0.00    +0.331 A 
ATOM     12  O   UNL     1       5.141 -10.182   0.235  0.00  0.00    -0.246 OA
BRANCH   5  13
ATOM     13  N   UNL     1       3.613  -6.424  -1.931  0.00  0.00    -0.343 N 
ATOM     14  H   UNL     1       3.548  -5.457  -1.972  0.00  0.00    +0.144 HD
ATOM     15  H   UNL     1       3.270  -6.965  -2.659  0.00  0.00    +0.144 HD
ENDBRANCH   5  13
BRANCH   4  16
ATOM     16  C   UNL     1       4.000  -9.197  -1.980  0.00  0.00    +0.128 C 
BRANCH  16  17
ATOM     17  C   UNL     1       5.165  -9.286  -2.968  0.00  0.00    +0.021 C 
BRANCH  17  19
ATOM     18  C   UNL     1       5.912 -10.221  -5.161  0.00  0.00    +0.004 C 
ATOM     19  C   UNL     1       4.747 -10.132  -4.173  0.00  0.00    -0.002 C 
ENDBRANCH  17  19
ENDBRANCH  16  17
ENDBRANCH   4  16
ENDBRANCH   1   6
BRANCH   1  20
ATOM     20  C   UNL     1       5.524  -3.976   0.185  0.00  0.00    +0.082 C 
ATOM     21  C   UNL     1       5.612  -3.115   1.462  0.00  0.00    +0.023 C 
ATOM     22  C   UNL     1       6.085  -1.730   0.954  0.00  0.00    +0.002 C 
ATOM     23  C   UNL     1       5.327  -1.581  -0.389  0.00  0.00    +0.002 C 
ATOM     24  C   UNL     1       5.343  -3.001  -0.992  0.00  0.00    +0.023 C 
ENDBRANCH   1  20
BRANCH   2  25
ATOM     25  C   UNL     1       1.936  -5.303   0.333  0.00  0.00    +0.170 C 
BRANCH  25  26
ATOM     26  S   UNL     1       0.409  -4.328   0.401  0.00  0.00    -0.116 S 
BRANCH  26  27
ATOM     27  C   UNL     1      -0.867  -5.539   0.504  0.00  0.00    +0.008 A 
ATOM     28  C   UNL     1      -2.185  -5.147   0.703  0.00  0.00    +0.015 A 
ATOM     29  C   UNL     1      -3.182  -6.099   0.783  0.00  0.00    +0.005 A 
ATOM     30  C   UNL     1      -2.869  -7.442   0.666  0.00  0.00    -0.042 A 
ATOM     31  C   UNL     1      -1.558  -7.835   0.469  0.00  0.00    +0.005 A 
ATOM     32  C   UNL     1      -0.556  -6.889   0.388  0.00  0.00    +0.015 A 
BRANCH  30  33
ATOM     33  C   UNL     1      -3.960  -8.478   0.754  0.00  0.00    -0.013 C 
ATOM     34  C   UNL     1      -4.983  -8.237  -0.358  0.00  0.00    +0.015 C 
ATOM     35  C   UNL     1      -3.352  -9.873   0.595  0.00  0.00    +0.015 C 
ATOM     36  C   UNL     1      -4.652  -8.375   2.115  0.00  0.00    +0.015 C 
ENDBRANCH  30  33
ENDBRANCH  26  27
ENDBRANCH  25  26
ENDBRANCH   2  25
TORSDOF 10
