REMARK  Name = ZINC13496670
REMARK  9 active torsions:
REMARK  status: ('A' for Active; 'I' for Inactive)
REMARK    1  A    between atoms: C_4  and  C_7
REMARK    2  A    between atoms: C_7  and  C_8
REMARK    3  A    between atoms: C_8  and  N_9
REMARK    4  A    between atoms: N_9  and  C_10
REMARK    5  A    between atoms: C_10  and  C_12
REMARK    6  A    between atoms: C_10  and  C_19
REMARK    7  A    between atoms: N_21  and  C_22
REMARK    8  A    between atoms: C_27  and  C_29
REMARK    9  A    between atoms: C_29  and  C_30
REMARK                            x       y       z     vdW  Elec       q    Type
REMARK                         _______ _______ _______ _____ _____    ______ ____
ROOT
ATOM      1  N   UNL     1      -0.006   1.407  -1.169  0.00  0.00    -0.285 N 
ATOM      2  C   UNL     1       1.147   2.063  -1.410  0.00  0.00    +0.221 C 
ATOM      3  O   UNL     1       2.144   1.791  -0.776  0.00  0.00    -0.275 OA
ENDROOT
BRANCH   1   4
ATOM      4  C   UNL     1      -1.209   1.732  -1.939  0.00  0.00    +0.113 C 
BRANCH   4   5
ATOM      5  C   UNL     1      -1.895   2.953  -1.323  0.00  0.00    +0.054 C 
BRANCH   5   9
ATOM      6  C   UNL     1      -5.392   3.913  -3.580  0.00  0.00    +0.000 A 
ATOM      7  C   UNL     1      -5.476   3.038  -2.513  0.00  0.00    +0.000 A 
ATOM      8  C   UNL     1      -4.345   2.727  -1.783  0.00  0.00    +0.004 A 
ATOM      9  C   UNL     1      -3.128   3.292  -2.119  0.00  0.00    -0.046 A 
ATOM     10  C   UNL     1      -3.045   4.171  -3.183  0.00  0.00    +0.004 A 
ATOM     11  C   UNL     1      -4.176   4.477  -3.917  0.00  0.00    +0.000 A 
ENDBRANCH   5   9
ENDBRANCH   4   5
ENDBRANCH   1   4
BRANCH   1  12
ATOM     12  C   UNL     1      -0.054   0.364  -0.141  0.00  0.00    +0.192 C 
BRANCH  12  13
ATOM     13  C   UNL     1       0.275   0.966   1.201  0.00  0.00    -0.018 A 
ATOM     14  C   UNL     1      -0.285   2.175   1.571  0.00  0.00    +0.009 A 
ATOM     15  C   UNL     1       0.011   2.725   2.804  0.00  0.00    +0.038 A 
ATOM     16  C   UNL     1       0.878   2.071   3.663  0.00  0.00    +0.123 A 
ATOM     17  C   UNL     1       1.442   0.864   3.289  0.00  0.00    +0.038 A 
ATOM     18  C   UNL     1       1.140   0.312   2.058  0.00  0.00    +0.009 A 
ATOM     19  F   UNL     1       1.173   2.611   4.866  0.00  0.00    -0.205 F 
ENDBRANCH  12  13
BRANCH  12  20
ATOM     20  C   UNL     1      -1.435  -0.236  -0.098  0.00  0.00    +0.238 C 
ATOM     21  O   UNL     1      -2.410   0.486  -0.102  0.00  0.00    -0.273 OA
ATOM     22  N   UNL     1      -1.588  -1.574  -0.055  0.00  0.00    -0.311 N 
ATOM     23  H   UNL     1      -0.808  -2.151  -0.052  0.00  0.00    +0.149 HD
BRANCH  22  24
ATOM     24  C   UNL     1      -2.931  -2.157  -0.013  0.00  0.00    +0.073 C 
ATOM     25  C   UNL     1      -3.411  -2.273   1.448  0.00  0.00    +0.022 C 
ATOM     26  C   UNL     1      -4.201  -3.606   1.484  0.00  0.00    +0.002 C 
ATOM     27  C   UNL     1      -3.367  -4.522   0.554  0.00  0.00    +0.002 C 
ATOM     28  C   UNL     1      -2.903  -3.587  -0.582  0.00  0.00    +0.022 C 
ENDBRANCH  22  24
ENDBRANCH  12  20
ENDBRANCH   1  12
BRANCH   2  29
ATOM     29  C   UNL     1       1.196   3.136  -2.467  0.00  0.00    +0.133 C 
BRANCH  29  30
ATOM     30  C   UNL     1       2.588   3.709  -2.537  0.00  0.00    -0.014 A 
ATOM     31  C   UNL     1       3.030   4.811  -1.912  0.00  0.00    +0.087 A 
ATOM     32  N   UNL     1       4.349   5.020  -2.211  0.00  0.00    -0.360 N 
ATOM     33  H   UNL     1       4.888   5.753  -1.874  0.00  0.00    +0.165 HD
ATOM     34  C   UNL     1       4.797   4.036  -3.064  0.00  0.00    +0.047 A 
ATOM     35  C   UNL     1       3.713   3.172  -3.306  0.00  0.00    +0.003 A 
ATOM     36  C   UNL     1       3.876   2.069  -4.146  0.00  0.00    +0.010 A 
ATOM     37  C   UNL     1       5.090   1.833  -4.729  0.00  0.00    +0.001 A 
ATOM     38  C   UNL     1       6.162   2.683  -4.494  0.00  0.00    +0.002 A 
ATOM     39  C   UNL     1       6.023   3.778  -3.668  0.00  0.00    +0.026 A 
ENDBRANCH  29  30
ENDBRANCH   2  29
TORSDOF 9
