REMARK  Name = ZINC41586527
REMARK  9 active torsions:
REMARK  status: ('A' for Active; 'I' for Inactive)
REMARK    1  A    between atoms: C_1  and  C_2
REMARK    2  A    between atoms: C_2  and  O_3
REMARK    3  A    between atoms: O_3  and  C_4
REMARK    4  A    between atoms: C_4  and  C_6
REMARK    5  A    between atoms: N_11  and  C_13
REMARK    6  A    between atoms: C_13  and  C_14
REMARK    7  A    between atoms: C_15  and  O_35
REMARK    8  A    between atoms: C_22  and  C_23
REMARK    9  A    between atoms: N_25  and  C_32
REMARK                            x       y       z     vdW  Elec       q    Type
REMARK                         _______ _______ _______ _____ _____    ______ ____
ROOT
ATOM      1  C   UNL     1      -5.410  -6.590  -0.182  0.00  0.00    +0.020 A 
ATOM      2  C   UNL     1      -6.120  -6.931   0.958  0.00  0.00    +0.122 A 
ATOM      3  C   UNL     1      -7.397  -7.478   0.859  0.00  0.00    +0.046 A 
ATOM      4  C   UNL     1      -7.963  -7.685  -0.367  0.00  0.00    +0.019 A 
ATOM      5  C   UNL     1      -7.260  -7.346  -1.523  0.00  0.00    +0.068 A 
ATOM      6  C   UNL     1      -5.974  -6.789  -1.434  0.00  0.00    +0.144 A 
ATOM      7  O   UNL     1      -5.517  -6.548  -2.682  0.00  0.00    -0.451 OA
ATOM      8  C   UNL     1      -6.427  -6.906  -3.620  0.00  0.00    +0.176 C 
ATOM      9  C   UNL     1      -6.268  -6.790  -4.968  0.00  0.00    +0.060 C 
ATOM     10  C   UNL     1      -7.568  -7.436  -2.961  0.00  0.00    +0.231 C 
ATOM     11  O   UNL     1      -8.589  -7.862  -3.475  0.00  0.00    -0.283 OA
ENDROOT
BRANCH   9  12
ATOM     12  C   UNL     1      -5.030  -6.236  -5.513  0.00  0.00    +0.004 A 
ATOM     13  C   UNL     1      -3.936  -5.796  -4.799  0.00  0.00    +0.094 A 
ATOM     14  N   UNL     1      -2.985  -5.353  -5.657  0.00  0.00    -0.349 N 
ATOM     15  C   UNL     1      -3.412  -5.482  -6.963  0.00  0.00    +0.049 A 
ATOM     16  C   UNL     1      -4.699  -6.043  -6.938  0.00  0.00    +0.007 A 
ATOM     17  C   UNL     1      -5.376  -6.292  -8.128  0.00  0.00    +0.010 A 
ATOM     18  C   UNL     1      -4.775  -5.990  -9.332  0.00  0.00    +0.001 A 
ATOM     19  C   UNL     1      -3.502  -5.440  -9.359  0.00  0.00    +0.002 A 
ATOM     20  C   UNL     1      -2.824  -5.180  -8.187  0.00  0.00    +0.026 A 
ATOM     21  C   UNL     1      -1.684  -4.811  -5.254  0.00  0.00    +0.149 C 
ENDBRANCH   9  12
BRANCH   2  22
ATOM     22  O   UNL     1      -5.567  -6.730   2.181  0.00  0.00    -0.506 OA
ATOM     23  H   UNL     1      -5.756  -5.861   2.560  0.00  0.00    +0.292 HD
ENDBRANCH   2  22
BRANCH   1  24
ATOM     24  C   UNL     1      -4.029  -5.999  -0.061  0.00  0.00    -0.036 C 
BRANCH  24  29
ATOM     25  C   UNL     1      -2.881  -2.427   0.017  0.00  0.00    +0.081 C 
ATOM     26  C   UNL     1      -3.623  -1.974   1.277  0.00  0.00    +0.011 C 
ATOM     27  C   UNL     1      -4.999  -2.646   1.317  0.00  0.00    -0.018 C 
ATOM     28  C   UNL     1      -4.820  -4.164   1.263  0.00  0.00    -0.078 C 
ATOM     29  N   UNL     1      -4.128  -4.536   0.023  0.00  0.00    +0.383 N 
ATOM     30  C   UNL     1      -2.781  -3.954   0.010  0.00  0.00    -0.064 C 
ATOM     31  H   UNL     1      -4.650  -4.190  -0.768  0.00  0.00    -0.081 HD
BRANCH  25  32
ATOM     32  C   UNL     1      -1.496  -1.832   0.006  0.00  0.00    +0.308 C 
ATOM     33  O   UNL     1      -0.528  -2.555  -0.007  0.00  0.00    -0.251 OA
BRANCH  32  34
ATOM     34  O   UNL     1      -1.339  -0.499   0.012  0.00  0.00    -0.465 OA
BRANCH  34  36
ATOM     35  C   UNL     1      -0.019   1.526   0.010  0.00  0.00    +0.048 C 
ATOM     36  C   UNL     1       0.002  -0.004   0.002  0.00  0.00    +0.229 C 
ENDBRANCH  34  36
ENDBRANCH  32  34
ENDBRANCH  25  32
ENDBRANCH  24  29
ENDBRANCH   1  24
TORSDOF 7
