REMARK  Name = ZINC09323465
REMARK  9 active torsions:
REMARK  status: ('A' for Active; 'I' for Inactive)
REMARK    1  A    between atoms: C_1  and  C_2
REMARK    2  A    between atoms: C_2  and  C_3
REMARK    3  A    between atoms: C_3  and  C_5
REMARK    4  A    between atoms: C_3  and  O_6
REMARK    5  A    between atoms: O_6  and  C_7
REMARK    6  A    between atoms: C_10  and  C_14
REMARK    7  A    between atoms: N_18  and  C_22
REMARK    8  A    between atoms: C_22  and  C_23
REMARK    9  A    between atoms: C_26  and  N_29
REMARK                            x       y       z     vdW  Elec       q    Type
REMARK                         _______ _______ _______ _____ _____    ______ ____
ROOT
ATOM      1  C   UNL     1      -7.666   0.330  -1.257  0.00  0.00    +0.036 C 
ATOM      2  C   UNL     1      -8.362   0.288  -0.093  0.00  0.00    +0.098 C 
ATOM      3  C   UNL     1      -7.835   0.021   1.254  0.00  0.00    +0.269 C 
ATOM      4  O   UNL     1      -6.678  -0.209   1.554  0.00  0.00    -0.268 OA
ATOM      5  N   UNL     1      -8.892   0.083   2.090  0.00  0.00    -0.216 N 
ATOM      6  C   UNL     1     -10.006   0.359   1.395  0.00  0.00    +0.313 C 
ATOM      7  O   UNL     1     -11.113   0.476   1.887  0.00  0.00    -0.252 OA
ATOM      8  N   UNL     1      -9.737   0.496   0.085  0.00  0.00    -0.265 N 
ATOM      9  H   UNL     1     -10.380   0.699  -0.613  0.00  0.00    +0.157 HD
ENDROOT
BRANCH   1  13
ATOM     10  C   UNL     1      -3.598  -0.865  -1.337  0.00  0.00    +0.139 A 
ATOM     11  C   UNL     1      -4.521  -1.600  -0.603  0.00  0.00    +0.048 A 
ATOM     12  C   UNL     1      -5.842  -1.214  -0.569  0.00  0.00    +0.011 A 
ATOM     13  C   UNL     1      -6.258  -0.084  -1.285  0.00  0.00    -0.022 A 
ATOM     14  C   UNL     1      -5.325   0.650  -2.028  0.00  0.00    +0.031 A 
ATOM     15  C   UNL     1      -4.004   0.258  -2.050  0.00  0.00    +0.083 A 
ATOM     16 CL   UNL     1      -2.846   1.166  -2.970  0.00  0.00    -0.080 Cl
BRANCH  10  17
ATOM     17  O   UNL     1      -2.295  -1.247  -1.361  0.00  0.00    -0.488 OA
BRANCH  17  18
ATOM     18  C   UNL     1      -1.923  -2.339  -0.518  0.00  0.00    +0.170 C 
ATOM     19  C   UNL     1      -2.204  -3.659  -1.239  0.00  0.00    +0.052 C 
BRANCH  18  21
ATOM     20  C   UNL     1      -0.171  -0.986   0.640  0.00  0.00    +0.007 C 
ATOM     21  C   UNL     1      -0.432  -2.245  -0.189  0.00  0.00    +0.041 C 
ENDBRANCH  18  21
ENDBRANCH  17  18
ENDBRANCH  10  17
ENDBRANCH   1  13
BRANCH   5  22
ATOM     22  C   UNL     1      -8.832  -0.121   3.539  0.00  0.00    +0.153 C 
BRANCH  22  23
ATOM     23  C   UNL     1      -8.583   1.199   4.223  0.00  0.00    -0.029 A 
ATOM     24  C   UNL     1      -7.288   1.617   4.466  0.00  0.00    +0.007 A 
ATOM     25  C   UNL     1      -7.059   2.830   5.089  0.00  0.00    +0.033 A 
ATOM     26  C   UNL     1      -8.125   3.620   5.477  0.00  0.00    +0.126 A 
ATOM     27  C   UNL     1      -9.420   3.199   5.238  0.00  0.00    +0.033 A 
ATOM     28  C   UNL     1      -9.649   1.988   4.611  0.00  0.00    +0.007 A 
BRANCH  26  29
ATOM     29  N   UNL     1      -7.880   4.917   6.147  0.00  0.00    +0.056 N 
ATOM     30  O   UNL     1      -8.820   5.613   6.488  0.00  0.00    -0.126 OA
ATOM     31  O   UNL     1      -6.739   5.288   6.358  0.00  0.00    -0.126 OA
ENDBRANCH  26  29
ENDBRANCH  22  23
ENDBRANCH   5  22
TORSDOF 7
