REMARK  Name = ZINC33810007
REMARK  4 active torsions:
REMARK  status: ('A' for Active; 'I' for Inactive)
REMARK    1  A    between atoms: C_2  and  C_3
REMARK    2  A    between atoms: C_3  and  S_4
REMARK    3  A    between atoms: S_4  and  C_5
REMARK    4  A    between atoms: C_12  and  C_22
REMARK                            x       y       z     vdW  Elec       q    Type
REMARK                         _______ _______ _______ _____ _____    ______ ____
ROOT
ATOM      1  C   UNL     1      -0.419   1.728   5.973  0.00  0.00    +0.171 A 
ATOM      2  N   UNL     1       0.179   1.679   4.750  0.00  0.00    -0.208 NA
ATOM      3  C   UNL     1      -0.566   1.848   3.614  0.00  0.00    +0.135 A 
ATOM      4  C   UNL     1      -1.904   2.067   3.721  0.00  0.00    +0.069 A 
ATOM      5  C   UNL     1      -2.487   2.108   5.006  0.00  0.00    +0.258 A 
ATOM      6  O   UNL     1      -3.688   2.298   5.131  0.00  0.00    -0.267 OA
ATOM      7  N   UNL     1      -1.714   1.936   6.090  0.00  0.00    -0.302 N 
ATOM      8  C   UNL     1      -2.754   2.265   2.500  0.00  0.00    +0.093 C 
ATOM      9  C   UNL     1      -2.051   1.778   1.258  0.00  0.00    +0.024 C 
ATOM     10  C   UNL     1      -0.718   1.572   1.250  0.00  0.00    +0.017 C 
ATOM     11  N   UNL     1       0.030   1.797   2.375  0.00  0.00    -0.302 N 
ATOM     12  C   UNL     1      -0.013   1.086   0.008  0.00  0.00    +0.051 C 
ATOM     13  C   UNL     1      -0.752   1.592  -1.233  0.00  0.00    +0.014 C 
ATOM     14  C   UNL     1      -2.197   1.085  -1.177  0.00  0.00    +0.080 C 
ATOM     15  C   UNL     1      -2.827   1.546   0.109  0.00  0.00    +0.162 C 
ATOM     16  O   UNL     1      -4.028   1.722   0.155  0.00  0.00    -0.292 OA
ATOM     17  H   UNL     1       1.117   1.938   2.281  0.00  0.00    +0.153 HD
ATOM     18  H   UNL     1      -2.178   1.972   7.087  0.00  0.00    +0.171 HD
ENDROOT
BRANCH   8  19
ATOM     19  C   UNL     1      -3.065   3.731   2.348  0.00  0.00    -0.032 A 
ATOM     20  C   UNL     1      -2.039   4.638   2.160  0.00  0.00    +0.008 A 
ATOM     21  C   UNL     1      -2.320   5.985   2.020  0.00  0.00    +0.050 A 
ATOM     22  C   UNL     1      -3.631   6.428   2.067  0.00  0.00    +0.166 A 
ATOM     23  C   UNL     1      -4.665   5.515   2.257  0.00  0.00    +0.167 A 
ATOM     24  C   UNL     1      -4.377   4.166   2.391  0.00  0.00    +0.054 A 
ATOM     25  O   UNL     1      -5.850   6.192   2.267  0.00  0.00    -0.453 OA
ATOM     26  C   UNL     1      -5.502   7.571   2.491  0.00  0.00    +0.466 C 
ATOM     27  O   UNL     1      -4.168   7.678   1.959  0.00  0.00    -0.453 OA
ENDBRANCH   8  19
BRANCH   1  28
ATOM     28  S   UNL     1       0.556   1.509   7.424  0.00  0.00    -0.084 S 
BRANCH  28  29
ATOM     29  C   UNL     1      -0.725   1.669   8.692  0.00  0.00    +0.104 C 
BRANCH  29  31
ATOM     30  C   UNL     1      -0.098   2.520  10.893  0.00  0.00    +0.005 C 
ATOM     31  C   UNL     1      -0.105   1.512  10.056  0.00  0.00    -0.023 C 
ENDBRANCH  29  31
ENDBRANCH  28  29
ENDBRANCH   1  28
TORSDOF 4
