REMARK  Name = ZINC38966420
REMARK  8 active torsions:
REMARK  status: ('A' for Active; 'I' for Inactive)
REMARK    1  A    between atoms: C_1  and  C_2
REMARK    2  A    between atoms: C_2  and  C_3
REMARK    3  A    between atoms: C_8  and  N_9
REMARK    4  A    between atoms: N_9  and  C_10
REMARK    5  A    between atoms: N_13  and  S_14
REMARK    6  A    between atoms: S_14  and  C_17
REMARK    7  A    between atoms: C_20  and  O_23
REMARK    8  A    between atoms: O_23  and  C_24
REMARK                            x       y       z     vdW  Elec       q    Type
REMARK                         _______ _______ _______ _____ _____    ______ ____
ROOT
ATOM      1  C   UNL     1      -2.204  -0.561  -3.654  0.00  0.00    +0.237 C 
ATOM      2  C   UNL     1      -1.285  -1.373  -4.538  0.00  0.00    +0.192 C 
ATOM      3  N   UNL     1      -0.834  -2.526  -4.139  0.00  0.00    -0.110 NA
ATOM      4  N   UNL     1      -0.941  -0.887  -5.741  0.00  0.00    -0.226 NA
ATOM      5  C   UNL     1      -1.385   0.277  -6.168  0.00  0.00    +0.089 A 
ATOM      6  C   UNL     1      -1.001   0.759  -7.445  0.00  0.00    +0.030 A 
ATOM      7  C   UNL     1      -1.453   1.953  -7.888  0.00  0.00    +0.002 A 
ATOM      8  C   UNL     1      -2.309   2.770  -7.131  0.00  0.00    +0.002 A 
ATOM      9  C   UNL     1      -2.735   2.406  -5.901  0.00  0.00    +0.027 A 
ATOM     10  C   UNL     1      -2.289   1.119  -5.347  0.00  0.00    +0.063 A 
ATOM     11  N   UNL     1      -2.679   0.735  -4.164  0.00  0.00    -0.359 N 
ATOM     12  H   UNL     1      -3.271   1.290  -3.633  0.00  0.00    +0.162 HD
ENDROOT
BRANCH   3  13
ATOM     13  S   UNL     1       0.172  -3.405  -5.117  0.00  0.00    +0.100 S 
ATOM     14  O   UNL     1      -0.596  -3.789  -6.250  0.00  0.00    -0.146 OA
ATOM     15  O   UNL     1       1.379  -2.663  -5.230  0.00  0.00    -0.146 OA
BRANCH  13  16
ATOM     16  C   UNL     1       0.572  -4.889  -4.254  0.00  0.00    +0.113 A 
ATOM     17  C   UNL     1       1.675  -4.927  -3.421  0.00  0.00    +0.032 A 
ATOM     18  C   UNL     1       1.990  -6.088  -2.744  0.00  0.00    +0.047 A 
ATOM     19  C   UNL     1       1.200  -7.218  -2.900  0.00  0.00    +0.120 A 
ATOM     20  C   UNL     1       0.093  -7.177  -3.735  0.00  0.00    +0.047 A 
ATOM     21  C   UNL     1      -0.222  -6.011  -4.406  0.00  0.00    +0.032 A 
BRANCH  19  22
ATOM     22  O   UNL     1       1.508  -8.362  -2.235  0.00  0.00    -0.495 OA
ATOM     23  C   UNL     1       0.650  -9.485  -2.443  0.00  0.00    +0.277 C 
ENDBRANCH  19  22
ENDBRANCH  13  16
ENDBRANCH   3  13
BRANCH   1  24
ATOM     24  N   UNL     1      -1.507  -0.315  -2.390  0.00  0.00    -0.318 N 
ATOM     25  H   UNL     1      -0.610   0.055  -2.394  0.00  0.00    +0.148 HD
BRANCH  24  31
ATOM     26  C   UNL     1      -1.426  -0.512   0.014  0.00  0.00    -0.027 A 
ATOM     27  C   UNL     1      -2.050  -0.802   1.212  0.00  0.00    +0.005 A 
ATOM     28  C   UNL     1      -3.374  -1.198   1.226  0.00  0.00    +0.000 A 
ATOM     29  C   UNL     1      -4.079  -1.306   0.041  0.00  0.00    +0.002 A 
ATOM     30  C   UNL     1      -3.462  -1.017  -1.161  0.00  0.00    +0.023 A 
ATOM     31  C   UNL     1      -2.133  -0.613  -1.177  0.00  0.00    +0.032 A 
BRANCH  26  33
ATOM     32  C   UNL     1       0.093   1.448  -0.003  0.00  0.00    +0.009 C 
ATOM     33  C   UNL     1       0.018  -0.080   0.001  0.00  0.00    +0.033 C 
ENDBRANCH  26  33
ENDBRANCH  24  31
ENDBRANCH   1  24
TORSDOF 6
