REMARK  Name = ZINC39469605
REMARK  7 active torsions:
REMARK  status: ('A' for Active; 'I' for Inactive)
REMARK    1  A    between atoms: C_1  and  O_2
REMARK    2  A    between atoms: O_2  and  C_3
REMARK    3  A    between atoms: C_15  and  C_16
REMARK    4  A    between atoms: C_16  and  C_17
REMARK    5  A    between atoms: P_25  and  S_28
REMARK    6  A    between atoms: S_28  and  O_31
REMARK    7  A    between atoms: O_31  and  C_32
REMARK                            x       y       z     vdW  Elec       q    Type
REMARK                         _______ _______ _______ _____ _____    ______ ____
ROOT
ATOM      1  C   UNL     1      -1.200  -0.637   0.010  0.00  0.00    +0.120 C 
ATOM      2  C   UNL     1      -2.336   0.073   0.019  0.00  0.00    +0.021 C 
ATOM      3  C   UNL     1      -3.647  -0.663   0.015  0.00  0.00    +0.008 C 
ATOM      4  C   UNL     1      -4.778   0.206  -0.523  0.00  0.00    -0.046 C 
ATOM      5  N   UNL     1      -6.048  -0.540  -0.469  0.00  0.00    +0.398 N 
ATOM      6  C   UNL     1      -5.986  -1.760  -1.273  0.00  0.00    -0.020 C 
ATOM      7  C   UNL     1      -4.834  -2.667  -0.818  0.00  0.00    -0.003 C 
ATOM      8  C   UNL     1      -3.522  -1.893  -0.894  0.00  0.00    +0.016 C 
ATOM      9  C   UNL     1      -2.362  -2.727  -0.426  0.00  0.00    -0.016 C 
ATOM     10  C   UNL     1      -1.262  -2.112   0.003  0.00  0.00    -0.005 C 
ATOM     11  C   UNL     1      -7.271  -2.587  -1.138  0.00  0.00    +0.158 C 
ATOM     12  O   UNL     1      -8.387  -1.818  -1.624  0.00  0.00    -0.301 OA
ATOM     13  P   UNL     1      -8.564  -0.301  -1.060  0.00  0.00    +0.431 P 
ATOM     14  O   UNL     1      -9.208  -0.321   0.272  0.00  0.00    -0.246 OA
ATOM     15  N   UNL     1      -7.017   0.310  -0.958  0.00  0.00    -0.271 NA
ATOM     16  H   UNL     1      -6.803   1.222  -1.213  0.00  0.00    +0.113 HD
ATOM     17  H   UNL     1      -6.259  -0.776   0.489  0.00  0.00    -0.055 HD
ENDROOT
BRANCH  13  18
ATOM     18  S   UNL     1      -9.714   0.856  -2.414  0.00  0.00    +0.209 S 
ATOM     19  O   UNL     1      -9.941   2.110  -1.785  0.00  0.00    -0.126 OA
ATOM     20  O   UNL     1      -9.082   0.744  -3.682  0.00  0.00    -0.126 OA
BRANCH  18  21
ATOM     21  O   UNL     1     -11.072   0.181  -2.542  0.00  0.00    -0.339 OA
BRANCH  21  22
ATOM     22  C   UNL     1     -11.884   0.366  -1.469  0.00  0.00    +0.157 A 
ATOM     23  C   UNL     1     -11.851  -0.529  -0.410  0.00  0.00    +0.048 A 
ATOM     24  C   UNL     1     -12.678  -0.339   0.680  0.00  0.00    +0.004 A 
ATOM     25  C   UNL     1     -13.539   0.742   0.716  0.00  0.00    +0.000 A 
ATOM     26  C   UNL     1     -13.575   1.635  -0.339  0.00  0.00    +0.004 A 
ATOM     27  C   UNL     1     -12.745   1.453  -1.429  0.00  0.00    +0.048 A 
ENDBRANCH  21  22
ENDBRANCH  18  21
ENDBRANCH  13  18
BRANCH   1  29
ATOM     28  C   UNL     1      -0.017   1.425   0.010  0.00  0.00    +0.277 C 
ATOM     29  O   UNL     1       0.002  -0.004   0.002  0.00  0.00    -0.495 OA
ENDBRANCH   1  29
BRANCH  10  30
ATOM     30  C   UNL     1      -0.086  -2.922   0.484  0.00  0.00    +0.073 C 
BRANCH  30  31
ATOM     31  C   UNL     1       0.895  -3.103  -0.645  0.00  0.00    -0.043 A 
ATOM     32  C   UNL     1       0.782  -4.190  -1.492  0.00  0.00    +0.004 A 
ATOM     33  C   UNL     1       1.682  -4.356  -2.528  0.00  0.00    +0.000 A 
ATOM     34  C   UNL     1       2.695  -3.434  -2.718  0.00  0.00    +0.000 A 
ATOM     35  C   UNL     1       2.808  -2.346  -1.872  0.00  0.00    +0.000 A 
ATOM     36  C   UNL     1       1.905  -2.178  -0.839  0.00  0.00    +0.004 A 
ENDBRANCH  30  31
ENDBRANCH  10  30
TORSDOF 6
