REMARK  Name = ZINC04974271
REMARK  9 active torsions:
REMARK  status: ('A' for Active; 'I' for Inactive)
REMARK    1  A    between atoms: C_4  and  C_7
REMARK    2  A    between atoms: C_7  and  C_8
REMARK    3  A    between atoms: C_7  and  C_14
REMARK    4  A    between atoms: C_7  and  O_20
REMARK    5  A    between atoms: O_20  and  C_21
REMARK    6  A    between atoms: C_21  and  C_22
REMARK    7  A    between atoms: C_24  and  O_41
REMARK    8  A    between atoms: C_26  and  O_40
REMARK    9  A    between atoms: C_28  and  N_31
REMARK                            x       y       z     vdW  Elec       q    Type
REMARK                         _______ _______ _______ _____ _____    ______ ____
ROOT
ATOM      1  O   UNL     1       6.009   1.646   2.615  0.00  0.00    -0.357 OA
ENDROOT
BRANCH   1   2
ATOM      2  C   UNL     1       6.474   2.506   3.658  0.00  0.00    +0.144 C 
BRANCH   2   6
ATOM      3  C   UNL     1       4.397   1.604   7.280  0.00  0.00    +0.000 A 
ATOM      4  C   UNL     1       3.858   1.230   6.063  0.00  0.00    +0.000 A 
ATOM      5  C   UNL     1       4.530   1.522   4.891  0.00  0.00    +0.007 A 
ATOM      6  C   UNL     1       5.741   2.188   4.935  0.00  0.00    -0.007 A 
ATOM      7  C   UNL     1       6.282   2.557   6.153  0.00  0.00    +0.007 A 
ATOM      8  C   UNL     1       5.608   2.269   7.325  0.00  0.00    +0.000 A 
ENDBRANCH   2   6
BRANCH   2   9
ATOM      9  C   UNL     1       7.952   2.296   3.861  0.00  0.00    -0.007 A 
ATOM     10  C   UNL     1       8.861   3.127   3.234  0.00  0.00    +0.007 A 
ATOM     11  C   UNL     1      10.217   2.937   3.424  0.00  0.00    +0.000 A 
ATOM     12  C   UNL     1      10.664   1.909   4.232  0.00  0.00    +0.000 A 
ATOM     13  C   UNL     1       9.755   1.074   4.855  0.00  0.00    +0.000 A 
ATOM     14  C   UNL     1       8.399   1.267   4.669  0.00  0.00    +0.007 A 
ENDBRANCH   2   9
BRANCH   2  15
ATOM     15  C   UNL     1       6.218   3.942   3.276  0.00  0.00    -0.007 A 
ATOM     16  C   UNL     1       6.537   4.958   4.157  0.00  0.00    +0.007 A 
ATOM     17  C   UNL     1       6.307   6.275   3.805  0.00  0.00    +0.000 A 
ATOM     18  C   UNL     1       5.750   6.575   2.576  0.00  0.00    +0.000 A 
ATOM     19  C   UNL     1       5.426   5.558   1.697  0.00  0.00    +0.000 A 
ATOM     20  C   UNL     1       5.661   4.241   2.047  0.00  0.00    +0.007 A 
ENDBRANCH   2  15
ENDBRANCH   1   2
BRANCH   1  21
ATOM     21  C   UNL     1       6.290   0.263   2.834  0.00  0.00    +0.196 C 
BRANCH  21  22
ATOM     22  C   UNL     1       5.618  -0.574   1.744  0.00  0.00    +0.178 C 
ATOM     23  C   UNL     1       5.871  -2.078   1.987  0.00  0.00    +0.178 C 
ATOM     24  C   UNL     1       6.051  -2.663   0.566  0.00  0.00    +0.195 C 
ATOM     25  C   UNL     1       5.889  -1.441  -0.364  0.00  0.00    +0.255 C 
ATOM     26  O   UNL     1       6.218  -0.301   0.459  0.00  0.00    -0.346 OA
BRANCH  25  27
ATOM     27  N   UNL     1       6.813  -1.536  -1.497  0.00  0.00    -0.271 N 
ATOM     28  C   UNL     1       8.163  -1.518  -1.274  0.00  0.00    +0.098 A 
ATOM     29  C   UNL     1       9.015  -1.605  -2.317  0.00  0.00    +0.088 A 
ATOM     30  C   UNL     1       8.490  -1.714  -3.628  0.00  0.00    +0.254 A 
ATOM     31  O   UNL     1       9.239  -1.795  -4.585  0.00  0.00    -0.268 OA
ATOM     32  N   UNL     1       7.154  -1.735  -3.805  0.00  0.00    -0.275 N 
ATOM     33  H   UNL     1       6.775  -1.820  -4.727  0.00  0.00    +0.173 HD
ATOM     34  C   UNL     1       6.327  -1.641  -2.747  0.00  0.00    +0.331 A 
ATOM     35  O   UNL     1       5.124  -1.655  -2.923  0.00  0.00    -0.246 OA
ENDBRANCH  25  27
BRANCH  24  36
ATOM     36  O   UNL     1       7.354  -3.233   0.422  0.00  0.00    -0.385 OA
ATOM     37  H   UNL     1       7.510  -4.005   0.984  0.00  0.00    +0.210 HD
ENDBRANCH  24  36
BRANCH  23  38
ATOM     38  O   UNL     1       4.746  -2.677   2.634  0.00  0.00    -0.386 OA
ATOM     39  H   UNL     1       4.851  -3.622   2.810  0.00  0.00    +0.210 HD
ENDBRANCH  23  38
ENDBRANCH  21  22
ENDBRANCH   1  21
TORSDOF 9
