REMARK  Name = ZINC66267621
REMARK  6 active torsions:
REMARK  status: ('A' for Active; 'I' for Inactive)
REMARK    1  A    between atoms: C_1  and  C_2
REMARK    2  A    between atoms: C_2  and  C_4
REMARK    3  A    between atoms: C_2  and  N_17
REMARK    4  A    between atoms: C_4  and  C_5
REMARK    5  A    between atoms: N_7  and  C_8
REMARK    6  A    between atoms: C_18  and  C_20
REMARK                            x       y       z     vdW  Elec       q    Type
REMARK                         _______ _______ _______ _____ _____    ______ ____
ROOT
ATOM      1  C   UNL     1      -1.435  -0.532  -0.003  0.00  0.00    +0.118 C 
ENDROOT
BRANCH   1   2
ATOM      2  C   UNL     1      -1.416  -2.034  -0.123  0.00  0.00    +0.219 C 
ATOM      3  O   UNL     1      -0.359  -2.623  -0.210  0.00  0.00    -0.275 OA
ATOM      4  N   UNL     1      -2.574  -2.724  -0.133  0.00  0.00    -0.283 N 
ATOM      5  H   UNL     1      -3.414  -2.263   0.017  0.00  0.00    +0.155 HD
BRANCH   4   6
ATOM      6  C   UNL     1      -2.565  -4.106  -0.361  0.00  0.00    +0.072 A 
ATOM      7  C   UNL     1      -1.517  -4.688  -1.062  0.00  0.00    +0.029 A 
ATOM      8  C   UNL     1      -1.509  -6.051  -1.287  0.00  0.00    +0.043 A 
ATOM      9  C   UNL     1      -2.543  -6.839  -0.813  0.00  0.00    +0.161 A 
ATOM     10  C   UNL     1      -3.591  -6.263  -0.112  0.00  0.00    +0.195 A 
ATOM     11  C   UNL     1      -3.601  -4.898   0.120  0.00  0.00    +0.182 A 
ATOM     12  F   UNL     1      -4.619  -4.336   0.808  0.00  0.00    -0.200 F 
ATOM     13  F   UNL     1      -4.601  -7.034   0.349  0.00  0.00    -0.199 F 
ATOM     14  F   UNL     1      -2.532  -8.172  -1.034  0.00  0.00    -0.202 F 
ENDBRANCH   4   6
ENDBRANCH   1   2
BRANCH   1  16
ATOM     15  C   UNL     1      -0.021   1.528  -0.020  0.00  0.00    +0.028 C 
ATOM     16  C   UNL     1       0.001  -0.002  -0.016  0.00  0.00    +0.079 C 
BRANCH  16  17
ATOM     17  N   UNL     1       0.708  -0.477   1.176  0.00  0.00    -0.312 N 
ATOM     18  C   UNL     1       2.051  -0.587   1.164  0.00  0.00    +0.216 C 
ATOM     19  O   UNL     1       2.674  -0.293   0.166  0.00  0.00    -0.276 OA
ATOM     20  H   UNL     1       0.209  -0.713   1.974  0.00  0.00    +0.149 HD
BRANCH  18  21
ATOM     21  C   UNL     1       2.778  -1.076   2.390  0.00  0.00    +0.075 C 
ATOM     22  C   UNL     1       2.495  -0.133   3.561  0.00  0.00    +0.013 C 
ATOM     23  C   UNL     1       3.233  -0.630   4.805  0.00  0.00    +0.001 C 
ATOM     24  C   UNL     1       4.738  -0.661   4.527  0.00  0.00    +0.000 C 
ATOM     25  C   UNL     1       5.021  -1.604   3.356  0.00  0.00    +0.001 C 
ATOM     26  C   UNL     1       4.282  -1.107   2.112  0.00  0.00    +0.013 C 
ENDBRANCH  18  21
ENDBRANCH  16  17
ENDBRANCH   1  16
TORSDOF 5
