REMARK  Name = ZINC06193687
REMARK  13 active torsions:
REMARK  status: ('A' for Active; 'I' for Inactive)
REMARK    1  A    between atoms: C_1  and  C_2
REMARK    2  A    between atoms: C_2  and  N_65
REMARK    3  A    between atoms: C_3  and  C_4
REMARK    4  A    between atoms: C_3  and  N_65
REMARK    5  A    between atoms: C_10  and  C_12
REMARK    6  A    between atoms: C_10  and  C_26
REMARK    7  A    between atoms: C_10  and  N_65
REMARK    8  A    between atoms: C_15  and  C_25
REMARK    9  A    between atoms: C_17  and  C_24
REMARK   10  A    between atoms: N_30  and  C_31
REMARK   11  A    between atoms: C_31  and  C_32
REMARK   12  A    between atoms: C_31  and  C_33
REMARK   13  A    between atoms: C_31  and  C_34
REMARK                            x       y       z     vdW  Elec       q    Type
REMARK                         _______ _______ _______ _____ _____    ______ ____
ROOT
ATOM      1  C   UNL     1       2.151  -0.308   0.979  0.00  0.00    +0.039 C 
ENDROOT
BRANCH   1   2
ATOM      2  C   UNL     1       2.215   1.198   1.002  0.00  0.00    +0.011 A 
ATOM      3  C   UNL     1       3.160   1.823   1.747  0.00  0.00    +0.018 A 
ATOM      4  C   UNL     1       3.196   3.286   1.747  0.00  0.00    +0.002 A 
ATOM      5  C   UNL     1       4.147   3.987   2.496  0.00  0.00    -0.041 A 
ATOM      6  C   UNL     1       4.154   5.352   2.475  0.00  0.00    +0.007 A 
ATOM      7  C   UNL     1       3.224   6.052   1.717  0.00  0.00    -0.048 A 
ATOM      8  C   UNL     1       2.277   5.383   0.973  0.00  0.00    +0.029 A 
ATOM      9  C   UNL     1       2.252   3.992   0.978  0.00  0.00    +0.050 A 
ATOM     10  N   UNL     1       1.316   3.297   0.241  0.00  0.00    -0.322 N 
ATOM     11  H   UNL     1       0.644   3.800  -0.302  0.00  0.00    +0.169 HD
ATOM     12  C   UNL     1       1.295   1.952   0.243  0.00  0.00    +0.251 A 
ATOM     13  O   UNL     1       0.457   1.371  -0.424  0.00  0.00    -0.268 OA
ATOM     14  C   UNL     1       3.251   7.559   1.710  0.00  0.00    +0.044 C 
ATOM     15  C   UNL     1       5.161   3.238   3.322  0.00  0.00    +0.044 C 
ENDBRANCH   1   2
BRANCH   1  16
ATOM     16  C   UNL     1       2.443  -0.802  -0.415  0.00  0.00    +0.143 A 
ATOM     17  N   UNL     1       1.667  -0.687  -1.465  0.00  0.00    -0.115 NA
ATOM     18  N   UNL     1       2.268  -1.231  -2.466  0.00  0.00    -0.023 NA
ATOM     19  N   UNL     1       3.405  -1.696  -2.080  0.00  0.00    -0.043 NA
ATOM     20  N   UNL     1       3.550  -1.452  -0.822  0.00  0.00    -0.225 N 
BRANCH  20  21
ATOM     21  C   UNL     1       4.702  -1.813   0.008  0.00  0.00    +0.059 C 
ATOM     22  C   UNL     1       4.258  -2.789   1.100  0.00  0.00    +0.036 C 
ATOM     23  C   UNL     1       5.771  -2.474  -0.864  0.00  0.00    +0.036 C 
ATOM     24  C   UNL     1       5.279  -0.552   0.655  0.00  0.00    +0.036 C 
ENDBRANCH  20  21
ENDBRANCH   1  16
BRANCH   1  25
ATOM     25  N   UNL     1       0.791  -0.742   1.361  0.00  0.00    +0.392 N 
ATOM     26  H   UNL     1       0.149  -0.549   0.583  0.00  0.00    -0.080 HD
BRANCH  25  28
ATOM     27  C   UNL     1       0.847  -2.950   0.314  0.00  0.00    -0.017 C 
ATOM     28  C   UNL     1       0.784  -2.193   1.642  0.00  0.00    -0.080 C 
ENDBRANCH  25  28
BRANCH  25  29
ATOM     29  C   UNL     1       0.339   0.006   2.553  0.00  0.00    -0.042 C 
BRANCH  29  30
ATOM     30  C   UNL     1      -1.147  -0.190   2.712  0.00  0.00    -0.064 A 
ATOM     31  C   UNL     1      -2.028   0.678   2.096  0.00  0.00    +0.002 A 
ATOM     32  C   UNL     1      -3.391   0.496   2.238  0.00  0.00    +0.000 A 
ATOM     33  C   UNL     1      -3.872  -0.548   3.005  0.00  0.00    +0.000 A 
ATOM     34  C   UNL     1      -2.991  -1.413   3.627  0.00  0.00    +0.000 A 
ATOM     35  C   UNL     1      -1.628  -1.234   3.480  0.00  0.00    +0.002 A 
ENDBRANCH  29  30
ENDBRANCH  25  29
ENDBRANCH   1  25
TORSDOF 7
