REMARK  Name = ZINC09521754
REMARK  7 active torsions:
REMARK  status: ('A' for Active; 'I' for Inactive)
REMARK    1  A    between atoms: C_1  and  C_2
REMARK    2  A    between atoms: C_6  and  N_9
REMARK    3  A    between atoms: C_7  and  C_8
REMARK    4  A    between atoms: C_14  and  O_25
REMARK    5  A    between atoms: C_16  and  S_18
REMARK    6  A    between atoms: S_18  and  C_19
REMARK    7  A    between atoms: C_19  and  C_20
REMARK                            x       y       z     vdW  Elec       q    Type
REMARK                         _______ _______ _______ _____ _____    ______ ____
ROOT
ATOM      1  N   UNL     1       1.295  -2.027  -0.541  0.00  0.00    -0.214 N 
ATOM      2  C   UNL     1       2.430  -2.768  -0.711  0.00  0.00    +0.171 A 
ATOM      3  C   UNL     1       2.012  -4.091  -0.959  0.00  0.00    +0.100 A 
ATOM      4  C   UNL     1       0.600  -4.091  -0.926  0.00  0.00    +0.150 A 
ATOM      5  N   UNL     1       0.192  -2.880  -0.675  0.00  0.00    -0.172 NA
ATOM      6  C   UNL     1       2.995  -5.075  -1.173  0.00  0.00    +0.227 A 
ATOM      7  N   UNL     1       4.270  -4.715  -1.133  0.00  0.00    -0.187 NA
ATOM      8  C   UNL     1       4.622  -3.456  -0.897  0.00  0.00    +0.194 A 
ATOM      9  N   UNL     1       3.733  -2.499  -0.690  0.00  0.00    -0.202 NA
ENDROOT
BRANCH   1  15
ATOM     10  C   UNL     1      -1.339   1.971   0.578  0.00  0.00    +0.044 C 
ATOM     11  C   UNL     1      -0.020   1.309   0.276  0.00  0.00    -0.046 A 
ATOM     12  C   UNL     1       1.142   2.060   0.259  0.00  0.00    +0.004 A 
ATOM     13  C   UNL     1       2.354   1.457  -0.023  0.00  0.00    +0.002 A 
ATOM     14  C   UNL     1       2.408   0.102  -0.288  0.00  0.00    +0.028 A 
ATOM     15  C   UNL     1       1.244  -0.654  -0.272  0.00  0.00    +0.071 A 
ATOM     16  C   UNL     1       0.028  -0.045   0.012  0.00  0.00    -0.022 A 
ATOM     17  C   UNL     1      -1.238  -0.862   0.030  0.00  0.00    +0.046 C 
ENDBRANCH   1  15
BRANCH   6  18
ATOM     18  O   UNL     1       2.646  -6.360  -1.415  0.00  0.00    -0.492 OA
ATOM     19  H   UNL     1       2.565  -6.902  -0.618  0.00  0.00    +0.294 HD
ENDBRANCH   6  18
BRANCH   8  20
ATOM     20  S   UNL     1       6.335  -3.047  -0.858  0.00  0.00    -0.081 S 
BRANCH  20  21
ATOM     21  C   UNL     1       7.055  -4.674  -1.191  0.00  0.00    +0.138 C 
BRANCH  21  22
ATOM     22  C   UNL     1       8.581  -4.564  -1.206  0.00  0.00    +0.260 C 
ATOM     23  O   UNL     1       9.041  -4.065   0.061  0.00  0.00    -0.348 OA
ATOM     24  C   UNL     1      10.174  -3.226  -0.259  0.00  0.00    +0.191 C 
ATOM     25  C   UNL     1       9.722  -2.587  -1.595  0.00  0.00    +0.191 C 
ATOM     26  O   UNL     1       8.988  -3.651  -2.234  0.00  0.00    -0.348 OA
ENDBRANCH  21  22
ENDBRANCH  20  21
ENDBRANCH   8  20
TORSDOF 5
