REMARK  Name = ZINC39653216
REMARK  14 active torsions:
REMARK  status: ('A' for Active; 'I' for Inactive)
REMARK    1  A    between atoms: C_1  and  C_2
REMARK    2  A    between atoms: C_2  and  O_3
REMARK    3  A    between atoms: O_3  and  C_4
REMARK    4  A    between atoms: C_6  and  C_12
REMARK    5  A    between atoms: C_9  and  O_10
REMARK    6  A    between atoms: O_10  and  C_11
REMARK    7  A    between atoms: C_12  and  C_13
REMARK    8  A    between atoms: C_13  and  N_14
REMARK    9  A    between atoms: C_15  and  C_17
REMARK   10  A    between atoms: C_28  and  C_30
REMARK   11  A    between atoms: C_32  and  O_38
REMARK   12  A    between atoms: C_34  and  O_36
REMARK   13  A    between atoms: O_36  and  C_37
REMARK   14  A    between atoms: O_38  and  C_39
REMARK                            x       y       z     vdW  Elec       q    Type
REMARK                         _______ _______ _______ _____ _____    ______ ____
ROOT
ATOM      1  C   UNL     1       0.854  -7.714  -4.236  0.00  0.00    +0.100 C 
ATOM      2  C   UNL     1       0.303  -9.103  -3.839  0.00  0.00    +0.121 C 
ATOM      3  N   UNL     1       0.619  -9.974  -4.996  0.00  0.00    -0.296 N 
ATOM      4  C   UNL     1       1.969  -9.540  -5.428  0.00  0.00    +0.115 C 
ATOM      5  C   UNL     1       1.947  -8.005  -5.277  0.00  0.00    -0.004 C 
ATOM      6  C   UNL     1       3.299  -7.505  -4.778  0.00  0.00    -0.010 C 
ATOM      7  C   UNL     1       4.359  -7.753  -5.855  0.00  0.00    -0.082 C 
ATOM      8  N   UNL     1       3.980  -7.052  -7.088  0.00  0.00    +0.379 N 
ATOM      9  C   UNL     1       2.725  -7.603  -7.612  0.00  0.00    -0.082 C 
ATOM     10  C   UNL     1       1.596  -7.349  -6.609  0.00  0.00    -0.010 C 
ATOM     11  C   UNL     1      -0.149 -10.943  -5.533  0.00  0.00    +0.247 C 
ATOM     12  O   UNL     1      -1.291 -11.098  -5.148  0.00  0.00    -0.270 OA
ATOM     13  H   UNL     1       3.858  -6.070  -6.891  0.00  0.00    -0.086 HD
ATOM     14  H   UNL     1       4.709  -7.166  -7.776  0.00  0.00    -0.086 HD
ENDROOT
BRANCH  11  15
ATOM     15  C   UNL     1       0.399 -11.818  -6.592  0.00  0.00    +0.044 A 
ATOM     16  C   UNL     1       1.780 -11.955  -6.742  0.00  0.00    +0.059 A 
ATOM     17  C   UNL     1       2.289 -12.776  -7.735  0.00  0.00    +0.124 A 
ATOM     18  C   UNL     1       1.428 -13.461  -8.580  0.00  0.00    +0.091 A 
ATOM     19  C   UNL     1       0.055 -13.327  -8.435  0.00  0.00    +0.124 A 
ATOM     20  C   UNL     1      -0.463 -12.513  -7.441  0.00  0.00    +0.059 A 
BRANCH  19  21
ATOM     21  O   UNL     1      -0.784 -14.001  -9.265  0.00  0.00    -0.495 OA
ATOM     22  C   UNL     1      -0.183 -14.827 -10.264  0.00  0.00    +0.277 C 
ENDBRANCH  19  21
BRANCH  17  23
ATOM     23  O   UNL     1       3.633 -12.910  -7.881  0.00  0.00    -0.495 OA
ATOM     24  C   UNL     1       4.089 -13.772  -8.925  0.00  0.00    +0.277 C 
ENDBRANCH  17  23
ENDBRANCH  11  15
BRANCH   1  26
ATOM     25  N   UNL     1       1.426  -5.676  -2.956  0.00  0.00    -0.315 N 
ATOM     26  C   UNL     1       1.444  -7.022  -3.034  0.00  0.00    +0.218 C 
ATOM     27  O   UNL     1       1.936  -7.675  -2.139  0.00  0.00    -0.275 OA
ATOM     28  H   UNL     1       1.033  -5.154  -3.672  0.00  0.00    +0.149 HD
BRANCH  25  29
ATOM     29  C   UNL     1       2.000  -5.003  -1.788  0.00  0.00    +0.109 C 
BRANCH  29  30
ATOM     30  C   UNL     1       1.851  -3.489  -1.948  0.00  0.00    +0.054 C 
BRANCH  30  33
ATOM     31  C   UNL     1       4.321  -1.796   0.356  0.00  0.00    +0.162 A 
ATOM     32  C   UNL     1       3.776  -2.433  -0.747  0.00  0.00    +0.053 A 
ATOM     33  C   UNL     1       2.442  -2.796  -0.747  0.00  0.00    -0.042 A 
ATOM     34  C   UNL     1       1.649  -2.526   0.353  0.00  0.00    +0.007 A 
ATOM     35  C   UNL     1       2.186  -1.890   1.457  0.00  0.00    +0.049 A 
ATOM     36  C   UNL     1       3.524  -1.529   1.465  0.00  0.00    +0.162 A 
BRANCH  36  37
ATOM     37  O   UNL     1       4.055  -0.909   2.553  0.00  0.00    -0.491 OA
ATOM     38  C   UNL     1       3.178  -0.667   3.655  0.00  0.00    +0.277 C 
ENDBRANCH  36  37
BRANCH  31  39
ATOM     39  O   UNL     1       5.633  -1.438   0.358  0.00  0.00    -0.489 OA
BRANCH  39  41
ATOM     40  C   UNL     1       7.832  -1.270  -0.628  0.00  0.00    +0.048 C 
ATOM     41  C   UNL     1       6.390  -1.744  -0.815  0.00  0.00    +0.226 C 
ENDBRANCH  39  41
ENDBRANCH  31  39
ENDBRANCH  30  33
ENDBRANCH  29  30
ENDBRANCH  25  29
ENDBRANCH   1  26
TORSDOF 10
