REMARK  Name = ZINC03523239
REMARK  12 active torsions:
REMARK  status: ('A' for Active; 'I' for Inactive)
REMARK    1  A    between atoms: C_1  and  C_2
REMARK    2  A    between atoms: C_2  and  C_3
REMARK    3  A    between atoms: C_4  and  C_33
REMARK    4  A    between atoms: C_9  and  S_21
REMARK    5  A    between atoms: N_10  and  C_13
REMARK    6  A    between atoms: C_13  and  C_14
REMARK    7  A    between atoms: C_17  and  C_20
REMARK    8  A    between atoms: S_21  and  C_22
REMARK    9  A    between atoms: C_22  and  C_24
REMARK   10  A    between atoms: C_22  and  C_25
REMARK   11  A    between atoms: N_30  and  C_31
REMARK   12  A    between atoms: C_31  and  C_32
REMARK                            x       y       z     vdW  Elec       q    Type
REMARK                         _______ _______ _______ _____ _____    ______ ____
ROOT
ATOM      1  C   UNL     1       0.331  -8.859   0.138  0.00  0.00    -0.005 A 
ATOM      2  C   UNL     1       1.549  -8.585   0.628  0.00  0.00    -0.026 A 
ATOM      3  C   UNL     1       1.988  -7.202   0.705  0.00  0.00    +0.075 A 
ATOM      4  C   UNL     1       1.055  -6.256   0.238  0.00  0.00    +0.117 A 
ATOM      5  S   UNL     1      -0.326  -7.252  -0.265  0.00  0.00    -0.073 S 
ATOM      6  N   UNL     1       1.308  -4.953   0.248  0.00  0.00    -0.216 NA
ATOM      7  C   UNL     1       2.459  -4.491   0.691  0.00  0.00    +0.174 A 
ATOM      8  N   UNL     1       3.420  -5.338   1.162  0.00  0.00    -0.283 N 
ATOM      9  C   UNL     1       3.226  -6.670   1.184  0.00  0.00    +0.264 A 
ATOM     10  O   UNL     1       4.094  -7.413   1.608  0.00  0.00    -0.267 OA
ATOM     11  C   UNL     1       2.452  -9.698   1.095  0.00  0.00    +0.045 C 
ENDROOT
BRANCH   1  13
ATOM     12  C   UNL     1      -1.105 -10.558   1.235  0.00  0.00    +0.009 C 
ATOM     13  C   UNL     1      -0.324 -10.206  -0.033  0.00  0.00    +0.039 C 
ENDBRANCH   1  13
BRANCH   8  14
ATOM     14  C   UNL     1       4.686  -4.788   1.651  0.00  0.00    +0.162 C 
BRANCH  14  15
ATOM     15  C   UNL     1       4.571  -4.497   3.126  0.00  0.00    -0.028 A 
ATOM     16  C   UNL     1       4.139  -3.256   3.553  0.00  0.00    +0.005 A 
ATOM     17  C   UNL     1       4.029  -2.990   4.905  0.00  0.00    +0.004 A 
ATOM     18  C   UNL     1       4.360  -3.963   5.830  0.00  0.00    -0.050 A 
ATOM     19  C   UNL     1       4.797  -5.202   5.402  0.00  0.00    +0.004 A 
ATOM     20  C   UNL     1       4.903  -5.470   4.050  0.00  0.00    +0.005 A 
ATOM     21  C   UNL     1       4.244  -3.672   7.304  0.00  0.00    +0.044 C 
ENDBRANCH  14  15
ENDBRANCH   8  14
BRANCH   7  22
ATOM     22  S   UNL     1       2.760  -2.755   0.682  0.00  0.00    -0.075 S 
BRANCH  22  23
ATOM     23  C   UNL     1       1.199  -2.169  -0.021  0.00  0.00    +0.137 C 
ATOM     24  C   UNL     1       1.066  -2.673  -1.460  0.00  0.00    +0.029 C 
BRANCH  23  25
ATOM     25  C   UNL     1       1.178  -0.662  -0.013  0.00  0.00    +0.233 C 
ATOM     26  O   UNL     1       2.220  -0.042  -0.019  0.00  0.00    -0.274 OA
ATOM     27  N   UNL     1       0.002  -0.004   0.002  0.00  0.00    -0.239 N 
ATOM     28  C   UNL     1      -0.016   1.344   0.009  0.00  0.00    +0.306 C 
ATOM     29  O   UNL     1       1.028   1.966   0.003  0.00  0.00    -0.252 OA
ATOM     30  N   UNL     1      -1.192   2.002   0.019  0.00  0.00    -0.299 N 
ATOM     31  H   UNL     1      -0.943  -0.567   0.008  0.00  0.00    +0.159 HD
ATOM     32  H   UNL     1      -2.138   1.439   0.020  0.00  0.00    +0.150 HD
BRANCH  30  33
ATOM     33  C   UNL     1      -1.212   3.466   0.027  0.00  0.00    +0.102 C 
ATOM     34  C   UNL     1      -2.662   3.957   0.036  0.00  0.00    +0.024 C 
ENDBRANCH  30  33
ENDBRANCH  23  25
ENDBRANCH  22  23
ENDBRANCH   7  22
TORSDOF 7
