REMARK  Name = ZINC39686598
REMARK  9 active torsions:
REMARK  status: ('A' for Active; 'I' for Inactive)
REMARK    1  A    between atoms: C_1  and  C_2
REMARK    2  A    between atoms: C_2  and  C_4
REMARK    3  A    between atoms: C_2  and  N_13
REMARK    4  A    between atoms: C_4  and  C_5
REMARK    5  A    between atoms: C_10  and  O_11
REMARK    6  A    between atoms: O_11  and  C_12
REMARK    7  A    between atoms: C_14  and  C_16
REMARK    8  A    between atoms: C_27  and  C_29
REMARK    9  A    between atoms: N_33  and  C_34
REMARK                            x       y       z     vdW  Elec       q    Type
REMARK                         _______ _______ _______ _____ _____    ______ ____
ROOT
ATOM      1  C   UNL     1       2.430  -1.775  -1.746  0.00  0.00    +0.100 C 
ATOM      2  C   UNL     1       2.346  -3.227  -2.266  0.00  0.00    +0.121 C 
ATOM      3  N   UNL     1       3.621  -3.439  -2.992  0.00  0.00    -0.295 N 
ATOM      4  C   UNL     1       4.637  -2.750  -2.161  0.00  0.00    +0.115 C 
ATOM      5  C   UNL     1       3.935  -1.465  -1.678  0.00  0.00    -0.004 C 
ATOM      6  C   UNL     1       4.345  -1.148  -0.243  0.00  0.00    -0.010 C 
ATOM      7  C   UNL     1       5.833  -0.787  -0.210  0.00  0.00    -0.082 C 
ATOM      8  N   UNL     1       6.076   0.372  -1.077  0.00  0.00    +0.379 N 
ATOM      9  C   UNL     1       5.767   0.028  -2.470  0.00  0.00    -0.082 C 
ATOM     10  C   UNL     1       4.277  -0.298  -2.599  0.00  0.00    -0.010 C 
ATOM     11  C   UNL     1       3.813  -4.107  -4.146  0.00  0.00    +0.263 C 
ATOM     12  O   UNL     1       4.942  -4.364  -4.521  0.00  0.00    -0.268 OA
ATOM     13  H   UNL     1       5.490   1.139  -0.783  0.00  0.00    -0.086 HD
ATOM     14  H   UNL     1       7.045   0.645  -1.006  0.00  0.00    -0.086 HD
ENDROOT
BRANCH  11  15
ATOM     15  C   UNL     1       2.660  -4.524  -4.952  0.00  0.00    +0.104 A 
ATOM     16  C   UNL     1       1.378  -4.025  -4.861  0.00  0.00    +0.032 A 
ATOM     17  C   UNL     1       0.606  -4.702  -5.809  0.00  0.00    +0.020 A 
ATOM     18  C   UNL     1       1.411  -5.583  -6.450  0.00  0.00    +0.086 A 
ATOM     19  N   UNL     1       2.663  -5.481  -5.942  0.00  0.00    -0.346 N 
ATOM     20  C   UNL     1       3.826  -6.261  -6.373  0.00  0.00    +0.149 C 
ENDBRANCH  11  15
BRANCH   1  22
ATOM     21  N   UNL     1       1.341  -0.486   0.063  0.00  0.00    -0.312 N 
ATOM     22  C   UNL     1       1.810  -1.671  -0.376  0.00  0.00    +0.218 C 
ATOM     23  O   UNL     1       1.734  -2.653   0.331  0.00  0.00    -0.275 OA
ATOM     24  H   UNL     1       1.401   0.299  -0.503  0.00  0.00    +0.149 HD
BRANCH  21  26
ATOM     25  C   UNL     1       1.838  -0.170   2.437  0.00  0.00    +0.028 C 
ATOM     26  C   UNL     1       0.738  -0.386   1.395  0.00  0.00    +0.074 C 
BRANCH  26  27
ATOM     27  C   UNL     1      -0.234   0.795   1.426  0.00  0.00    +0.060 C 
BRANCH  27  28
ATOM     28  C   UNL     1      -1.382   0.526   0.489  0.00  0.00    -0.004 A 
ATOM     29  C   UNL     1      -1.347   1.010  -0.805  0.00  0.00    +0.007 A 
ATOM     30  C   UNL     1      -2.400   0.764  -1.666  0.00  0.00    +0.000 A 
ATOM     31  C   UNL     1      -3.492   0.033  -1.234  0.00  0.00    +0.004 A 
ATOM     32  C   UNL     1      -3.532  -0.453   0.058  0.00  0.00    +0.046 A 
ATOM     33  C   UNL     1      -2.474  -0.212   0.922  0.00  0.00    +0.123 A 
BRANCH  33  34
ATOM     34  O   UNL     1      -2.509  -0.694   2.192  0.00  0.00    -0.495 OA
ATOM     35  C   UNL     1      -3.664  -1.445   2.570  0.00  0.00    +0.277 C 
ENDBRANCH  33  34
ENDBRANCH  27  28
ENDBRANCH  26  27
ENDBRANCH  21  26
ENDBRANCH   1  22
TORSDOF 6
