REMARK  Name = ZINC49016120
REMARK  3 active torsions:
REMARK  status: ('A' for Active; 'I' for Inactive)
REMARK    1  A    between atoms: C_6  and  C_7
REMARK    2  A    between atoms: C_7  and  O_9
REMARK    3  A    between atoms: O_9  and  C_10
REMARK                            x       y       z     vdW  Elec       q    Type
REMARK                         _______ _______ _______ _____ _____    ______ ____
ROOT
ATOM      1  C   UNL     1      -0.017   1.393   0.010  0.00  0.00    +0.018 A 
ATOM      2  C   UNL     1       1.166   2.101   0.002  0.00  0.00    +0.048 A 
ATOM      3  C   UNL     1       2.379   1.428  -0.013  0.00  0.00    +0.142 A 
ATOM      4  C   UNL     1       2.405   0.031  -0.021  0.00  0.00    +0.076 A 
ATOM      5  C   UNL     1       1.224  -0.684  -0.013  0.00  0.00    +0.042 A 
ATOM      6  C   UNL     1       0.002  -0.004   0.002  0.00  0.00    +0.061 A 
ATOM      7  N   UNL     1       3.641  -0.631  -0.038  0.00  0.00    -0.280 N 
ATOM      8  C   UNL     1       4.759   0.062   0.270  0.00  0.00    +0.255 C 
ATOM      9  O   UNL     1       5.843  -0.481   0.233  0.00  0.00    -0.272 OA
ATOM     10  C   UNL     1       4.654   1.515   0.660  0.00  0.00    +0.325 C 
ATOM     11  O   UNL     1       3.549   2.116  -0.021  0.00  0.00    -0.481 OA
ATOM     12  H   UNL     1       3.693  -1.572  -0.268  0.00  0.00    +0.155 HD
ENDROOT
BRANCH   6  13
ATOM     13  C   UNL     1      -1.264  -0.760   0.010  0.00  0.00    +0.340 C 
ATOM     14  O   UNL     1      -1.246  -1.975   0.004  0.00  0.00    -0.245 OA
BRANCH  13  15
ATOM     15  O   UNL     1      -2.441  -0.104   0.025  0.00  0.00    -0.458 OA
BRANCH  15  16
ATOM     16  C   UNL     1      -3.628  -0.899   0.033  0.00  0.00    +0.177 C 
ATOM     17  C   UNL     1      -4.121  -1.126  -1.411  0.00  0.00    +0.044 C 
ATOM     18  C   UNL     1      -5.665  -1.077  -1.298  0.00  0.00    +0.004 C 
ATOM     19  C   UNL     1      -5.894   0.041  -0.251  0.00  0.00    +0.004 C 
ATOM     20  C   UNL     1      -4.756  -0.157   0.770  0.00  0.00    +0.044 C 
ENDBRANCH  15  16
ENDBRANCH  13  15
ENDBRANCH   6  13
TORSDOF 3
