REMARK  Name = ZINC32988849
REMARK  10 active torsions:
REMARK  status: ('A' for Active; 'I' for Inactive)
REMARK    1  A    between atoms: C_1  and  C_2
REMARK    2  A    between atoms: C_7  and  C_8
REMARK    3  A    between atoms: C_8  and  C_9
REMARK    4  A    between atoms: C_8  and  C_10
REMARK    5  A    between atoms: C_11  and  C_14
REMARK    6  A    between atoms: C_14  and  C_15
REMARK    7  A    between atoms: N_17  and  C_18
REMARK    8  A    between atoms: C_18  and  C_19
REMARK    9  A    between atoms: C_22  and  S_24
REMARK   10  A    between atoms: S_24  and  N_27
REMARK                            x       y       z     vdW  Elec       q    Type
REMARK                         _______ _______ _______ _____ _____    ______ ____
ROOT
ATOM      1  C   UNL     1       1.496   2.049   0.380  0.00  0.00    +0.218 C 
ATOM      2  O   UNL     1       2.625   1.608   0.438  0.00  0.00    -0.275 OA
ATOM      3  N   UNL     1       0.442   1.219   0.498  0.00  0.00    -0.310 N 
ATOM      4  H   UNL     1      -0.582   1.619   0.445  0.00  0.00    +0.149 HD
ENDROOT
BRANCH   1   5
ATOM      5  C   UNL     1       1.274   3.526   0.176  0.00  0.00    +0.134 C 
BRANCH   5  13
ATOM      6  C   UNL     1       6.473   5.361  -3.963  0.00  0.00    +0.044 C 
ATOM      7  C   UNL     1       5.402   5.019  -2.959  0.00  0.00    -0.044 A 
ATOM      8  C   UNL     1       5.548   5.412  -1.646  0.00  0.00    +0.050 A 
ATOM      9  C   UNL     1       4.565   5.100  -0.716  0.00  0.00    +0.135 A 
ATOM     10  C   UNL     1       3.432   4.379  -1.128  0.00  0.00    +0.024 A 
ATOM     11  C   UNL     1       3.294   3.993  -2.460  0.00  0.00    +0.016 A 
ATOM     12  C   UNL     1       4.280   4.313  -3.367  0.00  0.00    -0.041 A 
ATOM     13  C   UNL     1       2.605   4.225   0.075  0.00  0.00    +0.007 A 
ATOM     14  C   UNL     1       3.275   4.826   1.068  0.00  0.00    +0.200 A 
ATOM     15  O   UNL     1       4.427   5.341   0.604  0.00  0.00    -0.463 OA
BRANCH  12  16
ATOM     16  C   UNL     1       4.141   3.893  -4.808  0.00  0.00    +0.013 C 
ATOM     17  C   UNL     1       3.898   2.384  -4.878  0.00  0.00    +0.012 C 
ATOM     18  C   UNL     1       2.958   4.629  -5.441  0.00  0.00    +0.012 C 
ENDBRANCH  12  16
ENDBRANCH   5  13
ENDBRANCH   1   5
BRANCH   3  19
ATOM     19  C   UNL     1       0.657  -0.217   0.697  0.00  0.00    +0.146 C 
BRANCH  19  20
ATOM     20  C   UNL     1      -0.674  -0.916   0.797  0.00  0.00    +0.009 A 
ATOM     21  C   UNL     1      -1.430  -1.456  -0.189  0.00  0.00    +0.015 A 
ATOM     22  C   UNL     1      -2.632  -2.056   0.140  0.00  0.00    +0.036 A 
ATOM     23  C   UNL     1      -3.018  -2.085   1.439  0.00  0.00    +0.142 A 
ATOM     24  S   UNL     1      -1.659  -1.254   2.247  0.00  0.00    -0.072 S 
BRANCH  23  25
ATOM     25  S   UNL     1      -4.478  -2.771   2.148  0.00  0.00    +0.062 S 
ATOM     26  O   UNL     1      -4.692  -2.088   3.376  0.00  0.00    -0.153 OA
ATOM     27  O   UNL     1      -5.453  -2.805   1.115  0.00  0.00    -0.153 OA
BRANCH  25  28
ATOM     28  N   UNL     1      -4.141  -4.346   2.534  0.00  0.00    -0.203 NA
ATOM     29  H   UNL     1      -5.031  -4.812   2.982  0.00  0.00    +0.144 HD
ATOM     30  H   UNL     1      -3.310  -4.377   3.254  0.00  0.00    +0.144 HD
ENDBRANCH  25  28
ENDBRANCH  23  25
ENDBRANCH  19  20
ENDBRANCH   3  19
TORSDOF 7
