REMARK  Name = ZINC08895341
REMARK  9 active torsions:
REMARK  status: ('A' for Active; 'I' for Inactive)
REMARK    1  A    between atoms: C_1  and  C_2
REMARK    2  A    between atoms: C_15  and  C_17
REMARK    3  A    between atoms: C_17  and  S_18
REMARK    4  A    between atoms: S_18  and  C_19
REMARK    5  A    between atoms: C_22  and  C_28
REMARK    6  A    between atoms: N_23  and  C_24
REMARK    7  A    between atoms: C_24  and  C_25
REMARK    8  A    between atoms: C_25  and  O_26
REMARK    9  A    between atoms: O_26  and  C_27
REMARK                            x       y       z     vdW  Elec       q    Type
REMARK                         _______ _______ _______ _____ _____    ______ ____
ROOT
ATOM      1  C   UNL     1       0.427   4.295   0.080  0.00  0.00    +0.173 C 
ENDROOT
BRANCH   1  15
ATOM      2  C   UNL     1      -0.207   8.692  -1.228  0.00  0.00    +0.029 C 
ATOM      3  C   UNL     1       0.028   8.105   0.165  0.00  0.00    +0.087 C 
ATOM      4  C   UNL     1      -0.889   8.803   1.172  0.00  0.00    +0.118 C 
ATOM      5  C   UNL     1      -0.970   7.999   2.442  0.00  0.00    +0.219 C 
ATOM      6  O   UNL     1      -0.369   8.369   3.429  0.00  0.00    -0.275 OA
ATOM      7  N   UNL     1      -1.708   6.867   2.493  0.00  0.00    -0.284 N 
ATOM      8  C   UNL     1      -2.338   6.376   1.343  0.00  0.00    +0.055 A 
ATOM      9  C   UNL     1      -3.673   6.009   1.363  0.00  0.00    +0.025 A 
ATOM     10  C   UNL     1      -4.262   5.496   0.204  0.00  0.00    +0.002 A 
ATOM     11  C   UNL     1      -3.518   5.353  -0.953  0.00  0.00    +0.002 A 
ATOM     12  C   UNL     1      -2.188   5.731  -0.979  0.00  0.00    +0.025 A 
ATOM     13  C   UNL     1      -1.598   6.253   0.161  0.00  0.00    +0.058 A 
ATOM     14  N   UNL     1      -0.260   6.670   0.143  0.00  0.00    -0.266 N 
ATOM     15  C   UNL     1       0.741   5.769   0.102  0.00  0.00    +0.230 C 
ATOM     16  O   UNL     1       1.894   6.144   0.083  0.00  0.00    -0.274 OA
ATOM     17  H   UNL     1      -1.802   6.391   3.333  0.00  0.00    +0.155 HD
ENDBRANCH   1  15
BRANCH   1  18
ATOM     18  S   UNL     1       1.970   3.350   0.025  0.00  0.00    -0.077 S 
BRANCH  18  19
ATOM     19  C   UNL     1       1.325   1.711   0.008  0.00  0.00    +0.192 A 
ATOM     20  N   UNL     1       0.055   1.373   0.030  0.00  0.00    -0.122 NA
ATOM     21  N   UNL     1      -0.061   0.093   0.008  0.00  0.00    -0.128 NA
ATOM     22  C   UNL     1       1.127  -0.465  -0.030  0.00  0.00    +0.165 A 
ATOM     23  N   UNL     1       2.051   0.555  -0.031  0.00  0.00    -0.300 N 
BRANCH  22  24
ATOM     24  C   UNL     1       1.416  -1.914  -0.065  0.00  0.00    +0.019 A 
ATOM     25  C   UNL     1       2.660  -2.369  -0.505  0.00  0.00    +0.013 A 
ATOM     26  C   UNL     1       2.927  -3.722  -0.530  0.00  0.00    +0.021 A 
ATOM     27  C   UNL     1       1.960  -4.629  -0.130  0.00  0.00    +0.041 A 
ATOM     28  C   UNL     1       0.722  -4.183   0.303  0.00  0.00    +0.021 A 
ATOM     29  C   UNL     1       0.445  -2.832   0.337  0.00  0.00    +0.013 A 
ATOM     30 CL   UNL     1       2.300  -6.330  -0.170  0.00  0.00    -0.084 Cl
ENDBRANCH  22  24
BRANCH  23  31
ATOM     31  C   UNL     1       3.510   0.426  -0.068  0.00  0.00    +0.154 C 
BRANCH  31  32
ATOM     32  C   UNL     1       3.995   0.523  -1.515  0.00  0.00    +0.181 C 
BRANCH  32  33
ATOM     33  O   UNL     1       5.418   0.398  -1.551  0.00  0.00    -0.381 OA
ATOM     34  C   UNL     1       5.976   0.475  -2.864  0.00  0.00    +0.194 C 
ENDBRANCH  32  33
ENDBRANCH  31  32
ENDBRANCH  23  31
ENDBRANCH  18  19
ENDBRANCH   1  18
TORSDOF 7
