REMARK  Name = ZINC35781354
REMARK  15 active torsions:
REMARK  status: ('A' for Active; 'I' for Inactive)
REMARK    1  A    between atoms: C_1  and  C_2
REMARK    2  A    between atoms: C_2  and  C_3
REMARK    3  A    between atoms: C_3  and  C_4
REMARK    4  A    between atoms: C_4  and  C_5
REMARK    5  A    between atoms: C_5  and  C_7
REMARK    6  A    between atoms: C_5  and  O_36
REMARK    7  A    between atoms: C_7  and  N_8
REMARK    8  A    between atoms: N_8  and  C_9
REMARK    9  A    between atoms: N_8  and  C_15
REMARK   10  A    between atoms: C_9  and  C_10
REMARK   11  A    between atoms: C_15  and  C_16
REMARK   12  A    between atoms: C_17  and  C_35
REMARK   13  A    between atoms: N_19  and  C_29
REMARK   14  A    between atoms: C_20  and  O_21
REMARK   15  A    between atoms: O_21  and  C_22
REMARK                            x       y       z     vdW  Elec       q    Type
REMARK                         _______ _______ _______ _____ _____    ______ ____
ROOT
ATOM      1  C   UNL     1       3.367  -7.020  -5.200  0.00  0.00    +0.021 A 
ATOM      2  C   UNL     1       3.359  -7.056  -6.597  0.00  0.00    +0.065 A 
ATOM      3  N   UNL     1       4.591  -7.200  -7.014  0.00  0.00    -0.168 NA
ATOM      4  N   UNL     1       5.432  -7.263  -5.896  0.00  0.00    -0.200 N 
ATOM      5  C   UNL     1       4.656  -7.144  -4.785  0.00  0.00    +0.225 A 
ATOM      6  C   UNL     1       2.139  -6.946  -7.475  0.00  0.00    +0.068 C 
ENDROOT
BRANCH   4   7
ATOM      7  C   UNL     1       6.825  -7.415  -5.917  0.00  0.00    +0.069 A 
ATOM      8  C   UNL     1       7.618  -6.686  -5.041  0.00  0.00    +0.028 A 
ATOM      9  C   UNL     1       8.991  -6.838  -5.064  0.00  0.00    +0.002 A 
ATOM     10  C   UNL     1       9.575  -7.715  -5.959  0.00  0.00    +0.000 A 
ATOM     11  C   UNL     1       8.789  -8.442  -6.834  0.00  0.00    +0.002 A 
ATOM     12  C   UNL     1       7.415  -8.298  -6.812  0.00  0.00    +0.028 A 
ENDBRANCH   4   7
BRANCH   1  13
ATOM     13  C   UNL     1       2.160  -6.866  -4.310  0.00  0.00    -0.035 C 
BRANCH  13  14
ATOM     14  N   UNL     1       2.004  -5.454  -3.937  0.00  0.00    +0.389 N 
ATOM     15  H   UNL     1       2.864  -5.116  -3.531  0.00  0.00    -0.081 HD
BRANCH  14  16
ATOM     16  C   UNL     1       1.684  -4.664  -5.133  0.00  0.00    -0.046 C 
BRANCH  16  17
ATOM     17  C   UNL     1       1.644  -3.179  -4.768  0.00  0.00    +0.098 C 
BRANCH  17  18
ATOM     18  O   UNL     1       2.948  -2.751  -4.370  0.00  0.00    -0.394 OA
ATOM     19  H   UNL     1       3.623  -2.858  -5.054  0.00  0.00    +0.210 HD
ENDBRANCH  17  18
BRANCH  17  20
ATOM     20  C   UNL     1       1.189  -2.367  -5.982  0.00  0.00    +0.029 C 
BRANCH  20  21
ATOM     21  C   UNL     1       1.029  -0.898  -5.583  0.00  0.00    +0.002 C 
BRANCH  21  23
ATOM     22  C   UNL     1       0.415   1.382  -6.398  0.00  0.00    +0.004 C 
ATOM     23  C   UNL     1       0.574  -0.086  -6.797  0.00  0.00    -0.003 C 
ENDBRANCH  21  23
ENDBRANCH  20  21
ENDBRANCH  17  20
ENDBRANCH  16  17
ENDBRANCH  14  16
BRANCH  14  24
ATOM     24  C   UNL     1       0.916  -5.324  -2.958  0.00  0.00    -0.003 C 
BRANCH  24  25
ATOM     25  C   UNL     1       1.305  -6.019  -1.679  0.00  0.00    +0.089 A 
ATOM     26  C   UNL     1       1.889  -5.440  -0.615  0.00  0.00    +0.042 A 
ATOM     27  C   UNL     1       2.074  -6.453   0.353  0.00  0.00    +0.041 A 
ATOM     28  C   UNL     1       1.592  -7.591  -0.177  0.00  0.00    +0.195 A 
ATOM     29  O   UNL     1       1.122  -7.321  -1.406  0.00  0.00    -0.470 OA
ENDBRANCH  24  25
ENDBRANCH  14  24
ENDBRANCH  13  14
ENDBRANCH   1  13
BRANCH   5  30
ATOM     30  O   UNL     1       5.089  -7.150  -3.499  0.00  0.00    -0.438 OA
BRANCH  30  31
ATOM     31  C   UNL     1       5.251  -8.352  -2.886  0.00  0.00    +0.130 A 
ATOM     32  C   UNL     1       5.085  -9.527  -3.606  0.00  0.00    +0.048 A 
ATOM     33  C   UNL     1       5.251 -10.747  -2.981  0.00  0.00    +0.023 A 
ATOM     34  C   UNL     1       5.583 -10.799  -1.639  0.00  0.00    +0.041 A 
ATOM     35  C   UNL     1       5.749  -9.629  -0.919  0.00  0.00    +0.023 A 
ATOM     36  C   UNL     1       5.589  -8.406  -1.542  0.00  0.00    +0.048 A 
ATOM     37 CL   UNL     1       5.791 -12.335  -0.856  0.00  0.00    -0.084 Cl
ENDBRANCH  30  31
ENDBRANCH   5  30
TORSDOF 13
