REMARK  Name = ZINC19453139
REMARK  8 active torsions:
REMARK  status: ('A' for Active; 'I' for Inactive)
REMARK    1  A    between atoms: C_1  and  C_2
REMARK    2  A    between atoms: C_2  and  C_3
REMARK    3  A    between atoms: C_2  and  C_4
REMARK    4  A    between atoms: C_7  and  C_12
REMARK    5  A    between atoms: C_18  and  C_20
REMARK    6  A    between atoms: C_20  and  C_21
REMARK    7  A    between atoms: C_24  and  O_27
REMARK    8  A    between atoms: O_27  and  C_28
REMARK                            x       y       z     vdW  Elec       q    Type
REMARK                         _______ _______ _______ _____ _____    ______ ____
ROOT
ATOM      1  C   UNL     1       2.662  -1.836  -4.729  0.00  0.00    +0.255 C 
ATOM      2  O   UNL     1       3.711  -2.447  -4.651  0.00  0.00    -0.270 OA
ATOM      3  N   UNL     1       2.119  -1.581  -5.936  0.00  0.00    -0.261 N 
ATOM      4  C   UNL     1       2.698  -2.107  -7.083  0.00  0.00    +0.165 A 
ATOM      5  N   UNL     1       3.764  -2.871  -7.185  0.00  0.00    -0.233 NA
ATOM      6  C   UNL     1       4.192  -3.292  -8.361  0.00  0.00    +0.124 A 
ATOM      7  C   UNL     1       3.485  -2.902  -9.450  0.00  0.00    +0.015 A 
ATOM      8  S   UNL     1       2.203  -1.926  -8.682  0.00  0.00    -0.057 S 
ATOM      9  H   UNL     1       1.323  -1.030  -6.002  0.00  0.00    +0.157 HD
ENDROOT
BRANCH   1  13
ATOM     10  C   UNL     1       0.702  -0.499  -1.237  0.00  0.00    +0.022 A 
ATOM     11  C   UNL     1       1.806  -1.280  -1.113  0.00  0.00    +0.022 A 
ATOM     12  C   UNL     1       2.472  -1.736  -2.251  0.00  0.00    +0.020 A 
ATOM     13  C   UNL     1       1.987  -1.376  -3.506  0.00  0.00    +0.101 A 
ATOM     14  C   UNL     1       0.831  -0.558  -3.585  0.00  0.00    +0.261 A 
ATOM     15  O   UNL     1       0.386  -0.229  -4.671  0.00  0.00    -0.267 OA
ATOM     16  N   UNL     1       0.222  -0.150  -2.455  0.00  0.00    -0.325 N 
ATOM     17  H   UNL     1      -0.571   0.406  -2.514  0.00  0.00    +0.169 HD
BRANCH  10  19
ATOM     18  C   UNL     1      -0.011   1.514   0.023  0.00  0.00    +0.013 C 
ATOM     19  C   UNL     1      -0.005  -0.016   0.003  0.00  0.00    +0.029 C 
ATOM     20  C   UNL     1      -1.445  -0.532   0.002  0.00  0.00    +0.013 C 
ENDBRANCH  10  19
ENDBRANCH   1  13
BRANCH   7  21
ATOM     21  C   UNL     1       3.715  -3.212 -10.906  0.00  0.00    +0.079 C 
BRANCH  21  22
ATOM     22  C   UNL     1       2.974  -4.471 -11.276  0.00  0.00    -0.042 A 
ATOM     23  C   UNL     1       3.595  -5.699 -11.149  0.00  0.00    +0.007 A 
ATOM     24  C   UNL     1       2.917  -6.855 -11.487  0.00  0.00    +0.046 A 
ATOM     25  C   UNL     1       1.613  -6.782 -11.954  0.00  0.00    +0.120 A 
ATOM     26  C   UNL     1       0.992  -5.547 -12.080  0.00  0.00    +0.046 A 
ATOM     27  C   UNL     1       1.672  -4.395 -11.735  0.00  0.00    +0.007 A 
BRANCH  25  28
ATOM     28  O   UNL     1       0.945  -7.917 -12.288  0.00  0.00    -0.495 OA
ATOM     29  C   UNL     1      -0.395  -7.766 -12.761  0.00  0.00    +0.277 C 
ENDBRANCH  25  28
ENDBRANCH  21  22
ENDBRANCH   7  21
TORSDOF 5
