REMARK  Name = ZINC36818921
REMARK  10 active torsions:
REMARK  status: ('A' for Active; 'I' for Inactive)
REMARK    1  A    between atoms: C_1  and  C_2
REMARK    2  A    between atoms: C_11  and  N_32
REMARK    3  A    between atoms: C_13  and  S_15
REMARK    4  A    between atoms: S_15  and  C_16
REMARK    5  A    between atoms: C_16  and  C_17
REMARK    6  A    between atoms: N_19  and  C_20
REMARK    7  A    between atoms: C_24  and  S_26
REMARK    8  A    between atoms: S_26  and  N_29
REMARK    9  A    between atoms: N_29  and  C_30
REMARK   10  A    between atoms: N_29  and  C_31
REMARK                            x       y       z     vdW  Elec       q    Type
REMARK                         _______ _______ _______ _____ _____    ______ ____
ROOT
ATOM      1  S   UNL     1      -0.071  -7.449   2.362  0.00  0.00    -0.077 S 
ENDROOT
BRANCH   1  13
ATOM      2  C   UNL     1       0.316   2.512   0.216  0.00  0.00    +0.008 C 
ATOM      3  C   UNL     1       0.313   0.983   0.185  0.00  0.00    -0.009 C 
ATOM      4  C   UNL     1      -1.130   0.471   0.204  0.00  0.00    +0.008 C 
ATOM      5  C   UNL     1      -1.151  -1.032  -0.075  0.00  0.00    +0.037 C 
ATOM      6  C   UNL     1      -0.197  -1.728   0.893  0.00  0.00    -0.025 A 
ATOM      7  C   UNL     1       0.763  -1.026   1.535  0.00  0.00    -0.004 A 
ATOM      8  S   UNL     1       1.620  -2.214   2.538  0.00  0.00    -0.073 S 
ATOM      9  C   UNL     1       0.692  -3.649   2.099  0.00  0.00    +0.115 A 
ATOM     10  C   UNL     1      -0.264  -3.153   1.176  0.00  0.00    +0.051 A 
ATOM     11  C   UNL     1      -1.182  -4.095   0.628  0.00  0.00    +0.129 A 
ATOM     12  N   UNL     1      -1.044  -5.352   1.043  0.00  0.00    -0.207 NA
ATOM     13  C   UNL     1      -0.124  -5.747   1.911  0.00  0.00    +0.191 A 
ATOM     14  N   UNL     1       0.763  -4.914   2.460  0.00  0.00    -0.214 NA
ATOM     15  C   UNL     1       1.046   0.441   1.421  0.00  0.00    +0.046 C 
BRANCH  11  16
ATOM     16  N   UNL     1      -2.157  -3.725  -0.280  0.00  0.00    -0.343 N 
ATOM     17  H   UNL     1      -2.034  -2.935  -0.828  0.00  0.00    +0.144 HD
ATOM     18  H   UNL     1      -2.963  -4.257  -0.369  0.00  0.00    +0.144 HD
ENDBRANCH  11  16
ENDBRANCH   1  13
BRANCH   1  19
ATOM     19  C   UNL     1      -1.418  -8.199   1.407  0.00  0.00    +0.173 C 
BRANCH  19  20
ATOM     20  C   UNL     1      -1.483  -9.675   1.704  0.00  0.00    +0.227 C 
ATOM     21  O   UNL     1      -0.698 -10.172   2.483  0.00  0.00    -0.275 OA
ATOM     22  N   UNL     1      -2.414 -10.443   1.104  0.00  0.00    -0.285 N 
ATOM     23  H   UNL     1      -2.990 -10.063   0.422  0.00  0.00    +0.155 HD
BRANCH  22  24
ATOM     24  C   UNL     1      -2.550 -11.788   1.464  0.00  0.00    +0.035 A 
ATOM     25  C   UNL     1      -2.344 -12.180   2.780  0.00  0.00    +0.023 A 
ATOM     26  C   UNL     1      -2.479 -13.509   3.132  0.00  0.00    +0.004 A 
ATOM     27  C   UNL     1      -2.818 -14.448   2.176  0.00  0.00    +0.028 A 
ATOM     28  C   UNL     1      -3.024 -14.061   0.865  0.00  0.00    +0.107 A 
ATOM     29  C   UNL     1      -2.897 -12.733   0.507  0.00  0.00    +0.051 A 
BRANCH  28  30
ATOM     30  S   UNL     1      -3.456 -15.262  -0.350  0.00  0.00    +0.060 S 
ATOM     31  O   UNL     1      -3.060 -14.729  -1.606  0.00  0.00    -0.153 OA
ATOM     32  O   UNL     1      -2.984 -16.513   0.130  0.00  0.00    -0.153 OA
BRANCH  30  33
ATOM     33  N   UNL     1      -5.109 -15.358  -0.377  0.00  0.00    -0.183 NA
ATOM     34  C   UNL     1      -5.879 -14.492  -1.273  0.00  0.00    +0.131 C 
ATOM     35  C   UNL     1      -5.802 -16.310   0.496  0.00  0.00    +0.131 C 
ENDBRANCH  30  33
ENDBRANCH  28  30
ENDBRANCH  22  24
ENDBRANCH  19  20
ENDBRANCH   1  19
TORSDOF 7
