REMARK  Name = ZINC00709501
REMARK  3 active torsions:
REMARK  status: ('A' for Active; 'I' for Inactive)
REMARK    1  A    between atoms: C_4  and  C_7
REMARK    2  A    between atoms: C_12  and  C_22
REMARK    3  A    between atoms: C_25  and  C_28
REMARK                            x       y       z     vdW  Elec       q    Type
REMARK                         _______ _______ _______ _____ _____    ______ ____
ROOT
ATOM      1  C   UNL     1      -1.863  -1.000  -4.243  0.00  0.00    +0.032 C 
ATOM      2  C   UNL     1      -2.183  -2.295  -3.498  0.00  0.00    +0.059 C 
ATOM      3  C   UNL     1      -1.715  -2.195  -2.057  0.00  0.00    +0.017 C 
ATOM      4  C   UNL     1      -1.718  -1.011  -1.418  0.00  0.00    +0.036 C 
ATOM      5  C   UNL     1      -1.293  -0.775   0.011  0.00  0.00    +0.136 C 
ATOM      6  N   UNL     1      -1.103  -1.980   0.790  0.00  0.00    -0.331 N 
ATOM      7  C   UNL     1      -0.098  -2.891   0.468  0.00  0.00    +0.049 A 
ATOM      8  C   UNL     1       0.963  -3.133   1.326  0.00  0.00    +0.025 A 
ATOM      9  C   UNL     1       1.962  -4.010   0.941  0.00  0.00    +0.002 A 
ATOM     10  C   UNL     1       1.905  -4.640  -0.289  0.00  0.00    +0.002 A 
ATOM     11  C   UNL     1       0.837  -4.414  -1.141  0.00  0.00    +0.025 A 
ATOM     12  C   UNL     1      -0.173  -3.554  -0.748  0.00  0.00    +0.052 A 
ATOM     13  N   UNL     1      -1.327  -3.370  -1.501  0.00  0.00    -0.316 N 
ATOM     14  C   UNL     1      -2.145   0.159  -2.090  0.00  0.00    +0.163 C 
ATOM     15  O   UNL     1      -2.155   1.212  -1.483  0.00  0.00    -0.292 OA
ATOM     16  C   UNL     1      -2.585   0.144  -3.523  0.00  0.00    +0.088 C 
ATOM     17  H   UNL     1      -1.683  -2.156   1.547  0.00  0.00    +0.147 HD
ATOM     18  H   UNL     1      -1.899  -4.142  -1.639  0.00  0.00    +0.152 HD
ENDROOT
BRANCH   1  22
ATOM     19  C   UNL     1      -3.243  -1.271  -8.277  0.00  0.00    +0.000 A 
ATOM     20  C   UNL     1      -1.900  -1.067  -8.018  0.00  0.00    +0.000 A 
ATOM     21  C   UNL     1      -1.454  -0.979  -6.713  0.00  0.00    +0.004 A 
ATOM     22  C   UNL     1      -2.350  -1.096  -5.666  0.00  0.00    -0.044 A 
ATOM     23  C   UNL     1      -3.691  -1.306  -5.925  0.00  0.00    +0.004 A 
ATOM     24  C   UNL     1      -4.138  -1.389  -7.231  0.00  0.00    +0.000 A 
ENDBRANCH   1  22
BRANCH   5  25
ATOM     25  C   UNL     1       0.002  -0.004   0.002  0.00  0.00    -0.023 A 
ATOM     26  C   UNL     1       1.147  -0.582  -0.513  0.00  0.00    +0.006 A 
ATOM     27  C   UNL     1       2.335   0.126  -0.522  0.00  0.00    +0.013 A 
ATOM     28  C   UNL     1       2.377   1.411  -0.014  0.00  0.00    +0.055 A 
ATOM     29  C   UNL     1       1.232   1.989   0.501  0.00  0.00    +0.013 A 
ATOM     30  C   UNL     1       0.044   1.281   0.509  0.00  0.00    +0.006 A 
BRANCH  28  31
ATOM     31  C   UNL     1       3.672   2.182  -0.023  0.00  0.00    +0.417 C 
ATOM     32  F   UNL     1       4.367   1.942   1.167  0.00  0.00    -0.166 F 
ATOM     33  F   UNL     1       4.452   1.771  -1.109  0.00  0.00    -0.166 F 
ATOM     34  F   UNL     1       3.399   3.550  -0.137  0.00  0.00    -0.166 F 
ENDBRANCH  28  31
ENDBRANCH   5  25
TORSDOF 3
