REMARK  Name = ZINC63478478
REMARK  6 active torsions:
REMARK  status: ('A' for Active; 'I' for Inactive)
REMARK    1  A    between atoms: C_1  and  O_2
REMARK    2  A    between atoms: O_2  and  C_3
REMARK    3  A    between atoms: C_3  and  C_4
REMARK    4  A    between atoms: C_4  and  N_5
REMARK    5  A    between atoms: C_10  and  C_28
REMARK    6  A    between atoms: C_28  and  C_29
REMARK                            x       y       z     vdW  Elec       q    Type
REMARK                         _______ _______ _______ _____ _____    ______ ____
ROOT
ATOM      1  N   UNL     1      -0.515  -2.565   1.245  0.00  0.00    -0.239 N 
ATOM      2  C   UNL     1       0.811  -2.680   1.376  0.00  0.00    +0.227 C 
ATOM      3  O   UNL     1       1.624  -2.446   0.507  0.00  0.00    -0.275 OA
ATOM      4  C   UNL     1       1.139  -3.146   2.776  0.00  0.00    +0.107 C 
ATOM      5  C   UNL     1       1.725  -4.572   2.716  0.00  0.00    +0.072 C 
ATOM      6  N   UNL     1       0.543  -5.473   2.746  0.00  0.00    -0.295 NA
ATOM      7  C   UNL     1      -0.383  -4.822   3.693  0.00  0.00    +0.136 C 
ATOM      8  C   UNL     1      -0.258  -3.299   3.440  0.00  0.00    +0.122 C 
ATOM      9  C   UNL     1      -1.211  -2.879   2.344  0.00  0.00    +0.228 C 
ATOM     10  O   UNL     1      -2.419  -2.836   2.444  0.00  0.00    -0.275 OA
ATOM     11  C   UNL     1      -1.793  -5.301   3.500  0.00  0.00    +0.006 A 
ATOM     12  C   UNL     1      -2.664  -5.279   2.433  0.00  0.00    +0.046 A 
ATOM     13  C   UNL     1      -3.935  -5.815   2.566  0.00  0.00    +0.124 A 
ATOM     14  C   UNL     1      -4.326  -6.370   3.773  0.00  0.00    +0.040 A 
ATOM     15  C   UNL     1      -3.455  -6.393   4.843  0.00  0.00    +0.026 A 
ATOM     16  C   UNL     1      -2.176  -5.856   4.717  0.00  0.00    +0.039 A 
ATOM     17  N   UNL     1      -1.132  -5.761   5.641  0.00  0.00    -0.283 N 
ATOM     18  C   UNL     1      -0.043  -5.166   5.117  0.00  0.00    +0.243 C 
ATOM     19  O   UNL     1       1.007  -4.949   5.684  0.00  0.00    -0.273 OA
ATOM     20  F   UNL     1      -4.791  -5.794   1.521  0.00  0.00    -0.205 F 
ATOM     21  H   UNL     1       0.126  -5.554   1.831  0.00  0.00    +0.124 HD
ATOM     22  H   UNL     1      -1.185  -6.085   6.554  0.00  0.00    +0.155 HD
ENDROOT
BRANCH   1  23
ATOM     23  C   UNL     1      -1.154  -2.126   0.002  0.00  0.00    +0.144 C 
BRANCH  23  24
ATOM     24  C   UNL     1      -1.295  -0.603   0.011  0.00  0.00    +0.179 C 
BRANCH  24  26
ATOM     25  C   UNL     1      -0.017   1.425   0.010  0.00  0.00    +0.194 C 
ATOM     26  O   UNL     1       0.002  -0.004   0.002  0.00  0.00    -0.381 OA
ENDBRANCH  24  26
ENDBRANCH  23  24
ENDBRANCH   1  23
BRANCH   5  27
ATOM     27  C   UNL     1       2.514  -4.769   1.419  0.00  0.00    +0.052 C 
BRANCH  27  28
ATOM     28  C   UNL     1       3.178  -6.122   1.436  0.00  0.00    -0.040 C 
ATOM     29  C   UNL     1       2.706  -7.266   0.892  0.00  0.00    -0.001 A 
ATOM     30  C   UNL     1       1.479  -7.583   0.151  0.00  0.00    +0.010 A 
ATOM     31  C   UNL     1       1.279  -8.850  -0.276  0.00  0.00    +0.001 A 
ATOM     32  C   UNL     1       2.212  -9.867  -0.030  0.00  0.00    +0.002 A 
ATOM     33  C   UNL     1       3.362  -9.653   0.643  0.00  0.00    +0.026 A 
ATOM     34  C   UNL     1       3.675  -8.357   1.139  0.00  0.00    +0.043 A 
ATOM     35  N   UNL     1       4.707  -7.905   1.809  0.00  0.00    -0.380 N 
ATOM     36  C   UNL     1       4.511  -6.472   2.058  0.00  0.00    +0.144 C 
ATOM     37  H   UNL     1       5.474  -8.428   2.090  0.00  0.00    +0.160 HD
ENDBRANCH  27  28
ENDBRANCH   5  27
TORSDOF 5
