REMARK  Name = ZINC63641972
REMARK  7 active torsions:
REMARK  status: ('A' for Active; 'I' for Inactive)
REMARK    1  A    between atoms: C_1  and  O_2
REMARK    2  A    between atoms: O_2  and  C_3
REMARK    3  A    between atoms: C_6  and  O_34
REMARK    4  A    between atoms: C_7  and  N_9
REMARK    5  A    between atoms: C_10  and  S_33
REMARK    6  A    between atoms: C_14  and  C_17
REMARK    7  A    between atoms: O_34  and  C_35
REMARK                            x       y       z     vdW  Elec       q    Type
REMARK                         _______ _______ _______ _____ _____    ______ ____
ROOT
ATOM      1  N   UNL     1       1.496  -4.130  -2.199  0.00  0.00    -0.239 N 
ATOM      2  C   UNL     1       2.603  -4.923  -1.690  0.00  0.00    +0.225 C 
ATOM      3  N   UNL     1       2.675  -6.233  -2.319  0.00  0.00    -0.288 N 
ATOM      4  C   UNL     1       1.639  -6.808  -2.938  0.00  0.00    +0.229 C 
ATOM      5  C   UNL     1       0.302  -6.136  -3.053  0.00  0.00    +0.180 C 
ATOM      6  C   UNL     1       0.432  -4.660  -2.811  0.00  0.00    +0.235 C 
ATOM      7  O   UNL     1      -0.455  -3.923  -3.188  0.00  0.00    -0.274 OA
ATOM      8  O   UNL     1       1.785  -7.909  -3.425  0.00  0.00    -0.275 OA
ATOM      9  H   UNL     1       3.517  -6.713  -2.288  0.00  0.00    +0.151 HD
ENDROOT
BRANCH   5  10
ATOM     10  C   UNL     1      -0.653  -6.730  -2.016  0.00  0.00    +0.101 C 
ATOM     11  C   UNL     1      -2.051  -6.134  -2.201  0.00  0.00    +0.124 C 
ATOM     12  C   UNL     1      -2.889  -6.644  -1.034  0.00  0.00    -0.036 C 
ATOM     13  C   UNL     1      -3.962  -7.214  -1.563  0.00  0.00    -0.001 A 
ATOM     14  C   UNL     1      -5.164  -7.804  -0.951  0.00  0.00    +0.010 A 
ATOM     15  C   UNL     1      -6.081  -8.324  -1.810  0.00  0.00    +0.001 A 
ATOM     16  C   UNL     1      -5.925  -8.315  -3.199  0.00  0.00    +0.002 A 
ATOM     17  C   UNL     1      -4.856  -7.788  -3.848  0.00  0.00    +0.026 A 
ATOM     18  C   UNL     1      -3.827  -7.206  -3.052  0.00  0.00    +0.043 A 
ATOM     19  N   UNL     1      -2.709  -6.609  -3.417  0.00  0.00    -0.376 N 
ATOM     20  C   UNL     1      -2.407  -6.538   0.393  0.00  0.00    +0.048 C 
ATOM     21  C   UNL     1      -0.957  -7.056   0.396  0.00  0.00    +0.085 C 
ATOM     22  N   UNL     1      -0.184  -6.399  -0.661  0.00  0.00    -0.310 NA
ATOM     23  H   UNL     1       0.801  -6.593  -0.563  0.00  0.00    +0.122 HD
ATOM     24  H   UNL     1      -2.374  -6.503  -4.322  0.00  0.00    +0.160 HD
ENDBRANCH   5  10
BRANCH   1  29
ATOM     25  C   UNL     1       1.060  -0.779  -0.736  0.00  0.00    +0.122 A 
ATOM     26  C   UNL     1       1.641   0.014  -1.715  0.00  0.00    +0.049 A 
ATOM     27  C   UNL     1       2.173  -0.566  -2.852  0.00  0.00    +0.051 A 
ATOM     28  C   UNL     1       2.127  -1.940  -3.016  0.00  0.00    +0.142 A 
ATOM     29  C   UNL     1       1.544  -2.739  -2.035  0.00  0.00    +0.084 A 
ATOM     30  C   UNL     1       1.016  -2.155  -0.893  0.00  0.00    +0.073 A 
BRANCH  25  32
ATOM     31  C   UNL     1       0.618   1.218   0.477  0.00  0.00    +0.277 C 
ATOM     32  O   UNL     1       0.538  -0.205   0.381  0.00  0.00    -0.495 OA
ENDBRANCH  25  32
BRANCH  28  33
ATOM     33  O   UNL     1       2.650  -2.510  -4.136  0.00  0.00    -0.493 OA
ATOM     34  C   UNL     1       3.231  -1.631  -5.100  0.00  0.00    +0.277 C 
ENDBRANCH  28  33
ENDBRANCH   1  29
BRANCH   2  35
ATOM     35  S   UNL     1       4.155  -4.037  -2.000  0.00  0.00    -0.136 S 
ATOM     36  H   UNL     1       5.100  -4.850  -1.496  0.00  0.00    +0.105 HD
ENDBRANCH   2  35
TORSDOF 5
