REMARK  Name = ZINC05124419
REMARK  8 active torsions:
REMARK  status: ('A' for Active; 'I' for Inactive)
REMARK    1  A    between atoms: C_1  and  C_2
REMARK    2  A    between atoms: C_5  and  C_8
REMARK    3  A    between atoms: C_17  and  C_20
REMARK    4  A    between atoms: N_22  and  N_23
REMARK    5  A    between atoms: C_24  and  C_25
REMARK    6  A    between atoms: C_28  and  O_33
REMARK    7  A    between atoms: C_29  and  O_31
REMARK    8  A    between atoms: O_31  and  C_32
REMARK                            x       y       z     vdW  Elec       q    Type
REMARK                         _______ _______ _______ _____ _____    ______ ____
ROOT
ATOM      1  C   UNL     1       0.059  -4.275  -0.021  0.00  0.00    -0.003 C 
ATOM      2  C   UNL     1      -1.187  -4.798  -0.739  0.00  0.00    +0.015 C 
ATOM      3  C   UNL     1      -1.167  -6.327  -0.747  0.00  0.00    -0.009 C 
ATOM      4  C   UNL     1       0.084  -6.817  -1.478  0.00  0.00    +0.007 C 
ATOM      5  C   UNL     1       1.331  -6.295  -0.761  0.00  0.00    -0.009 C 
ATOM      6  C   UNL     1       1.311  -4.765  -0.752  0.00  0.00    +0.015 C 
ATOM      7  C   UNL     1       1.345  -6.813   0.679  0.00  0.00    +0.019 C 
ATOM      8  C   UNL     1       0.094  -6.323   1.410  0.00  0.00    +0.050 C 
ATOM      9  C   UNL     1      -1.153  -6.845   0.693  0.00  0.00    +0.019 C 
ATOM     10  C   UNL     1       0.074  -4.793   1.418  0.00  0.00    +0.027 C 
ENDROOT
BRANCH   1  15
ATOM     11  C   UNL     1      -0.018   1.503   0.010  0.00  0.00    +0.044 C 
ATOM     12  C   UNL     1       0.002  -0.004   0.002  0.00  0.00    -0.050 A 
ATOM     13  C   UNL     1       0.006  -0.689  -1.199  0.00  0.00    +0.003 A 
ATOM     14  C   UNL     1       0.025  -2.071  -1.206  0.00  0.00    +0.004 A 
ATOM     15  C   UNL     1       0.040  -2.768  -0.013  0.00  0.00    -0.041 A 
ATOM     16  C   UNL     1       0.037  -2.084   1.188  0.00  0.00    +0.004 A 
ATOM     17  C   UNL     1       0.023  -0.702   1.195  0.00  0.00    +0.003 A 
ENDBRANCH   1  15
BRANCH   8  18
ATOM     18  C   UNL     1       0.108  -6.833   2.828  0.00  0.00    +0.238 C 
ATOM     19  O   UNL     1       0.103  -6.050   3.754  0.00  0.00    -0.273 OA
ATOM     20  N   UNL     1       0.127  -8.159   3.067  0.00  0.00    -0.207 N 
ATOM     21  H   UNL     1       0.131  -8.786   2.326  0.00  0.00    +0.177 HD
BRANCH  20  22
ATOM     22  N   UNL     1       0.140  -8.633   4.385  0.00  0.00    -0.188 NA
ATOM     23  C   UNL     1       0.158  -9.911   4.615  0.00  0.00    +0.138 C 
BRANCH  23  24
ATOM     24  C   UNL     1       0.172 -10.409   6.002  0.00  0.00    -0.002 A 
ATOM     25  C   UNL     1       0.160  -9.509   7.071  0.00  0.00    +0.013 A 
ATOM     26  C   UNL     1       0.173  -9.978   8.367  0.00  0.00    +0.050 A 
ATOM     27  C   UNL     1       0.199 -11.343   8.615  0.00  0.00    +0.158 A 
ATOM     28  C   UNL     1       0.210 -12.246   7.555  0.00  0.00    +0.162 A 
ATOM     29  C   UNL     1       0.191 -11.784   6.252  0.00  0.00    +0.058 A 
BRANCH  28  30
ATOM     30  O   UNL     1       0.235 -13.583   7.801  0.00  0.00    -0.491 OA
ATOM     31  C   UNL     1       0.246 -14.452   6.667  0.00  0.00    +0.277 C 
ENDBRANCH  28  30
BRANCH  27  32
ATOM     32  O   UNL     1       0.212 -11.799   9.895  0.00  0.00    -0.503 OA
ATOM     33  H   UNL     1      -0.667 -11.947  10.270  0.00  0.00    +0.292 HD
ENDBRANCH  27  32
ENDBRANCH  23  24
ENDBRANCH  20  22
ENDBRANCH   8  18
TORSDOF 6
