REMARK  Name = ZINC20881737
REMARK  11 active torsions:
REMARK  status: ('A' for Active; 'I' for Inactive)
REMARK    1  A    between atoms: C_1  and  C_2
REMARK    2  A    between atoms: C_2  and  O_3
REMARK    3  A    between atoms: O_3  and  C_4
REMARK    4  A    between atoms: C_5  and  C_12
REMARK    5  A    between atoms: C_9  and  O_10
REMARK    6  A    between atoms: O_10  and  C_11
REMARK    7  A    between atoms: C_17  and  C_22
REMARK    8  A    between atoms: C_25  and  O_30
REMARK    9  A    between atoms: C_26  and  O_28
REMARK   10  A    between atoms: O_28  and  C_29
REMARK   11  A    between atoms: O_30  and  C_31
REMARK                            x       y       z     vdW  Elec       q    Type
REMARK                         _______ _______ _______ _____ _____    ______ ____
ROOT
ATOM      1  C   UNL     1       0.902  -4.207  -0.122  0.00  0.00    +0.140 C 
ATOM      2  C   UNL     1       0.775  -2.701  -0.125  0.00  0.00    +0.037 C 
ATOM      3  C   UNL     1       0.749  -1.911   0.960  0.00  0.00    +0.017 C 
ATOM      4  C   UNL     1       0.650  -0.401   0.807  0.00  0.00    +0.059 C 
ATOM      5  C   UNL     1      -0.180  -0.057  -0.428  0.00  0.00    +0.032 C 
ATOM      6  C   UNL     1       0.523  -0.666  -1.647  0.00  0.00    +0.088 C 
ATOM      7  C   UNL     1       0.681  -2.140  -1.420  0.00  0.00    +0.163 C 
ATOM      8  O   UNL     1       0.730  -2.879  -2.384  0.00  0.00    -0.292 OA
ATOM      9  N   UNL     1       0.804  -2.343   2.246  0.00  0.00    -0.316 N 
ATOM     10  C   UNL     1       1.714  -3.278   2.729  0.00  0.00    +0.052 A 
ATOM     11  C   UNL     1       2.659  -2.963   3.689  0.00  0.00    +0.025 A 
ATOM     12  C   UNL     1       3.504  -3.954   4.160  0.00  0.00    +0.002 A 
ATOM     13  C   UNL     1       3.399  -5.246   3.677  0.00  0.00    +0.002 A 
ATOM     14  C   UNL     1       2.466  -5.557   2.703  0.00  0.00    +0.025 A 
ATOM     15  C   UNL     1       1.634  -4.562   2.213  0.00  0.00    +0.049 A 
ATOM     16  N   UNL     1       0.735  -4.815   1.180  0.00  0.00    -0.331 N 
ATOM     17  H   UNL     1       0.094  -1.950   2.989  0.00  0.00    +0.152 HD
ATOM     18  H   UNL     1      -0.114  -5.490   1.367  0.00  0.00    +0.147 HD
ENDROOT
BRANCH   1  20
ATOM     19  C   UNL     1       2.518  -5.867  -1.077  0.00  0.00    +0.167 A 
ATOM     20  C   UNL     1       2.265  -4.573  -0.650  0.00  0.00    +0.023 A 
ATOM     21  C   UNL     1       3.265  -3.620  -0.704  0.00  0.00    +0.009 A 
ATOM     22  C   UNL     1       4.516  -3.953  -1.188  0.00  0.00    +0.004 A 
ATOM     23  C   UNL     1       4.774  -5.240  -1.620  0.00  0.00    +0.049 A 
ATOM     24  C   UNL     1       3.776  -6.201  -1.569  0.00  0.00    +0.162 A 
BRANCH  24  25
ATOM     25  O   UNL     1       4.028  -7.468  -1.993  0.00  0.00    -0.491 OA
ATOM     26  C   UNL     1       5.344  -7.740  -2.480  0.00  0.00    +0.277 C 
ENDBRANCH  24  25
BRANCH  19  27
ATOM     27  O   UNL     1       1.538  -6.808  -1.019  0.00  0.00    -0.488 OA
BRANCH  27  29
ATOM     28  C   UNL     1      -0.356  -8.013  -1.916  0.00  0.00    +0.048 C 
ATOM     29  C   UNL     1       0.770  -7.018  -2.206  0.00  0.00    +0.226 C 
ENDBRANCH  27  29
ENDBRANCH  19  27
ENDBRANCH   1  20
BRANCH   5  30
ATOM     30  C   UNL     1      -0.267   1.439  -0.584  0.00  0.00    -0.040 A 
ATOM     31  C   UNL     1       0.889   2.188  -0.708  0.00  0.00    +0.008 A 
ATOM     32  C   UNL     1       0.814   3.561  -0.851  0.00  0.00    +0.049 A 
ATOM     33  C   UNL     1      -0.421   4.190  -0.872  0.00  0.00    +0.161 A 
ATOM     34  C   UNL     1      -1.584   3.436  -0.748  0.00  0.00    +0.162 A 
ATOM     35  C   UNL     1      -1.502   2.059  -0.610  0.00  0.00    +0.053 A 
BRANCH  34  36
ATOM     36  O   UNL     1      -2.798   4.048  -0.768  0.00  0.00    -0.491 OA
ATOM     37  C   UNL     1      -3.949   3.211  -0.636  0.00  0.00    +0.277 C 
ENDBRANCH  34  36
BRANCH  33  38
ATOM     38  O   UNL     1      -0.496   5.540  -1.013  0.00  0.00    -0.491 OA
ATOM     39  C   UNL     1       0.739   6.249  -1.135  0.00  0.00    +0.277 C 
ENDBRANCH  33  38
ENDBRANCH   5  30
TORSDOF 7
