REMARK  Name = ZINC13979202
REMARK  8 active torsions:
REMARK  status: ('A' for Active; 'I' for Inactive)
REMARK    1  A    between atoms: C_4  and  N_26
REMARK    2  A    between atoms: C_5  and  C_7
REMARK    3  A    between atoms: N_9  and  C_10
REMARK    4  A    between atoms: C_10  and  N_12
REMARK    5  A    between atoms: N_12  and  N_13
REMARK    6  A    between atoms: C_14  and  C_16
REMARK    7  A    between atoms: C_16  and  O_17
REMARK    8  A    between atoms: O_17  and  C_18
REMARK                            x       y       z     vdW  Elec       q    Type
REMARK                         _______ _______ _______ _____ _____    ______ ____
ROOT
ATOM      1  N   UNL     1      -0.030  -5.188   0.377  0.00  0.00    -0.245 N 
ATOM      2  H   UNL     1       0.156  -6.138   0.431  0.00  0.00    +0.172 HD
ENDROOT
BRANCH   1   3
ATOM      3  N   UNL     1      -1.355  -4.731   0.378  0.00  0.00    -0.232 N 
ATOM      4  C   UNL     1      -2.371  -5.613   0.452  0.00  0.00    +0.267 C 
ATOM      5  O   UNL     1      -2.139  -6.802   0.519  0.00  0.00    -0.271 OA
ATOM      6  H   UNL     1      -1.540  -3.781   0.324  0.00  0.00    +0.173 HD
BRANCH   4   7
ATOM      7  C   UNL     1      -3.796  -5.122   0.453  0.00  0.00    +0.326 C 
BRANCH   7   8
ATOM      8  O   UNL     1      -4.684  -6.238   0.539  0.00  0.00    -0.481 OA
BRANCH   8   9
ATOM      9  C   UNL     1      -6.016  -5.968   0.551  0.00  0.00    +0.139 A 
ATOM     10  C   UNL     1      -6.459  -4.655   0.475  0.00  0.00    +0.048 A 
ATOM     11  C   UNL     1      -7.813  -4.382   0.487  0.00  0.00    +0.019 A 
ATOM     12  C   UNL     1      -8.728  -5.416   0.574  0.00  0.00    +0.019 A 
ATOM     13  C   UNL     1      -8.290  -6.726   0.650  0.00  0.00    +0.039 A 
ATOM     14  C   UNL     1      -6.936  -7.004   0.633  0.00  0.00    +0.084 A 
ATOM     15 CL   UNL     1      -6.386  -8.648   0.721  0.00  0.00    -0.080 Cl
ATOM     16 BR   UNL     1     -10.581  -5.038   0.590  0.00  0.00    -0.050 Br
ENDBRANCH   8   9
ENDBRANCH   7   8
ENDBRANCH   4   7
ENDBRANCH   1   3
BRANCH   1  17
ATOM     17  C   UNL     1       0.987  -4.306   0.302  0.00  0.00    +0.153 C 
ATOM     18  S   UNL     1       2.605  -4.863   0.302  0.00  0.00    -0.017 S 
BRANCH  17  21
ATOM     19  C   UNL     1       1.745  -2.103   0.153  0.00  0.00    +0.252 C 
ATOM     20  O   UNL     1       2.894  -2.499   0.153  0.00  0.00    -0.270 OA
ATOM     21  N   UNL     1       0.729  -2.985   0.228  0.00  0.00    -0.263 N 
ATOM     22  H   UNL     1      -0.188  -2.669   0.228  0.00  0.00    +0.157 HD
BRANCH  19  27
ATOM     23  C   UNL     1       0.408   1.312   0.959  0.00  0.00    +0.001 A 
ATOM     24  C   UNL     1       0.932   2.059  -0.082  0.00  0.00    +0.002 A 
ATOM     25  C   UNL     1       1.719   1.456  -1.046  0.00  0.00    +0.033 A 
ATOM     26  C   UNL     1       1.987   0.104  -0.976  0.00  0.00    +0.138 A 
ATOM     27  C   UNL     1       1.462  -0.655   0.072  0.00  0.00    +0.067 A 
ATOM     28  C   UNL     1       0.668  -0.040   1.042  0.00  0.00    +0.015 A 
BRANCH  26  29
ATOM     29  N   UNL     1       2.829  -0.540  -2.009  0.00  0.00    +0.057 N 
ATOM     30  O   UNL     1       3.381   0.135  -2.846  0.00  0.00    -0.126 OA
ATOM     31  O   UNL     1       2.966  -1.741  -2.015  0.00  0.00    -0.126 OA
ENDBRANCH  26  29
ENDBRANCH  19  27
ENDBRANCH  17  21
ENDBRANCH   1  17
TORSDOF 8
