REMARK  Name = ZINC64871157
REMARK  4 active torsions:
REMARK  status: ('A' for Active; 'I' for Inactive)
REMARK    1  A    between atoms: C_3  and  C_8
REMARK    2  A    between atoms: C_11  and  C_15
REMARK    3  A    between atoms: N_25  and  C_28
REMARK    4  A    between atoms: C_28  and  C_29
REMARK                            x       y       z     vdW  Elec       q    Type
REMARK                         _______ _______ _______ _____ _____    ______ ____
ROOT
ATOM      1  C   UNL     1       6.416   2.099  -2.428  0.00  0.00    -0.000 A 
ATOM      2  C   UNL     1       5.852   1.207  -3.327  0.00  0.00    +0.008 A 
ATOM      3  C   UNL     1       6.553   0.804  -4.444  0.00  0.00    +0.016 A 
ATOM      4  C   UNL     1       7.836   1.300  -4.664  0.00  0.00    +0.063 A 
ATOM      5  C   UNL     1       8.407   2.204  -3.752  0.00  0.00    +0.056 A 
ATOM      6  C   UNL     1       7.685   2.602  -2.638  0.00  0.00    +0.034 A 
ATOM      7  N   UNL     1       9.686   2.682  -3.998  0.00  0.00    -0.307 N 
ATOM      8  H   UNL     1      10.093   3.306  -3.377  0.00  0.00    +0.170 HD
ATOM      9  C   UNL     1      10.367   2.288  -5.088  0.00  0.00    +0.330 A 
ATOM     10  O   UNL     1      11.485   2.729  -5.266  0.00  0.00    -0.246 OA
ATOM     11  N   UNL     1       9.865   1.427  -5.987  0.00  0.00    -0.256 N 
ATOM     12  C   UNL     1       8.628   0.903  -5.842  0.00  0.00    +0.265 A 
ATOM     13  O   UNL     1       8.181   0.124  -6.661  0.00  0.00    -0.267 OA
ENDROOT
BRANCH   1  16
ATOM     14  C   UNL     1       3.672   2.183  -0.022  0.00  0.00    +0.180 C 
ATOM     15  N   UNL     1       4.718   1.443  -0.777  0.00  0.00    -0.265 NA
ATOM     16  C   UNL     1       5.635   2.528  -1.212  0.00  0.00    +0.242 C 
ATOM     17  O   UNL     1       4.771   3.634  -1.534  0.00  0.00    -0.274 OA
ATOM     18  N   UNL     1       3.520   3.448  -0.780  0.00  0.00    -0.177 NA
ATOM     19  H   UNL     1       5.195   0.783  -0.181  0.00  0.00    +0.127 HD
ATOM     20  H   UNL     1       2.727   3.403  -1.402  0.00  0.00    +0.156 HD
BRANCH  14  23
ATOM     21  C   UNL     1      -0.017   1.378   0.010  0.00  0.00    +0.001 A 
ATOM     22  C   UNL     1       1.171   2.086   0.002  0.00  0.00    +0.006 A 
ATOM     23  C   UNL     1       2.378   1.411  -0.013  0.00  0.00    -0.013 A 
ATOM     24  C   UNL     1       2.397   0.029  -0.022  0.00  0.00    +0.021 A 
ATOM     25  C   UNL     1       1.210  -0.679  -0.014  0.00  0.00    +0.018 A 
ATOM     26  C   UNL     1       0.002  -0.004   0.002  0.00  0.00    +0.015 A 
ATOM     27 BR   UNL     1       1.236  -2.570  -0.025  0.00  0.00    -0.050 Br
ENDBRANCH  14  23
ENDBRANCH   1  16
BRANCH  11  28
ATOM     28  C   UNL     1      10.674   1.049  -7.149  0.00  0.00    +0.165 C 
BRANCH  28  29
ATOM     29  C   UNL     1      11.498  -0.168  -6.812  0.00  0.00    -0.027 A 
ATOM     30  C   UNL     1      12.759  -0.018  -6.267  0.00  0.00    +0.008 A 
ATOM     31  C   UNL     1      13.515  -1.132  -5.957  0.00  0.00    +0.038 A 
ATOM     32  C   UNL     1      13.009  -2.399  -6.195  0.00  0.00    +0.123 A 
ATOM     33  C   UNL     1      11.746  -2.548  -6.741  0.00  0.00    +0.038 A 
ATOM     34  C   UNL     1      10.989  -1.432  -7.045  0.00  0.00    +0.008 A 
ATOM     35  F   UNL     1      13.748  -3.490  -5.893  0.00  0.00    -0.205 F 
ENDBRANCH  28  29
ENDBRANCH  11  28
TORSDOF 4
