REMARK  Name = ZINC14031733
REMARK  8 active torsions:
REMARK  status: ('A' for Active; 'I' for Inactive)
REMARK    1  A    between atoms: C_1  and  C_2
REMARK    2  A    between atoms: C_2  and  C_4
REMARK    3  A    between atoms: C_2  and  O_23
REMARK    4  A    between atoms: N_6  and  N_7
REMARK    5  A    between atoms: N_7  and  C_8
REMARK    6  A    between atoms: C_8  and  N_10
REMARK    7  A    between atoms: C_11  and  C_13
REMARK    8  A    between atoms: O_23  and  C_24
REMARK                            x       y       z     vdW  Elec       q    Type
REMARK                         _______ _______ _______ _____ _____    ______ ____
ROOT
ATOM      1  N   UNL     1       3.563  10.252   0.286  0.00  0.00    -0.245 N 
ATOM      2  H   UNL     1       4.179  10.984   0.127  0.00  0.00    +0.172 HD
ENDROOT
BRANCH   1   5
ATOM      3  C   UNL     1       1.716  11.752   0.197  0.00  0.00    +0.270 C 
ATOM      4  O   UNL     1       2.487  12.667  -0.003  0.00  0.00    -0.270 OA
ATOM      5  N   UNL     1       2.185  10.498   0.354  0.00  0.00    -0.232 N 
ATOM      6  H   UNL     1       1.569   9.767   0.513  0.00  0.00    +0.173 HD
BRANCH   3   8
ATOM      7  C   UNL     1      -0.481  11.216  -0.820  0.00  0.00    +0.062 C 
ATOM      8  C   UNL     1       0.234  12.017   0.269  0.00  0.00    +0.257 C 
BRANCH   8   9
ATOM      9  O   UNL     1      -0.011  13.411   0.074  0.00  0.00    -0.480 OA
BRANCH   9  10
ATOM     10  C   UNL     1      -1.158  13.915   0.599  0.00  0.00    +0.122 A 
ATOM     11  C   UNL     1      -2.084  13.051   1.192  0.00  0.00    +0.046 A 
ATOM     12  C   UNL     1      -3.240  13.526   1.726  0.00  0.00    +0.012 A 
ATOM     13  C   UNL     1      -3.514  14.905   1.684  0.00  0.00    -0.018 A 
ATOM     14  C   UNL     1      -4.699  15.429   2.227  0.00  0.00    +0.008 A 
ATOM     15  C   UNL     1      -4.931  16.769   2.170  0.00  0.00    +0.001 A 
ATOM     16  C   UNL     1      -4.010  17.632   1.580  0.00  0.00    +0.001 A 
ATOM     17  C   UNL     1      -2.851  17.160   1.044  0.00  0.00    +0.008 A 
ATOM     18  C   UNL     1      -2.577  15.782   1.084  0.00  0.00    -0.014 A 
ATOM     19  C   UNL     1      -1.389  15.260   0.546  0.00  0.00    +0.054 A 
ENDBRANCH   9  10
ENDBRANCH   8   9
ENDBRANCH   3   8
ENDBRANCH   1   5
BRANCH   1  20
ATOM     20  C   UNL     1       4.032   8.999   0.443  0.00  0.00    +0.153 C 
ATOM     21  S   UNL     1       5.715   8.698   0.361  0.00  0.00    -0.017 S 
BRANCH  20  22
ATOM     22  N   UNL     1       3.176   7.982   0.665  0.00  0.00    -0.262 N 
ATOM     23  C   UNL     1       3.645   6.728   0.822  0.00  0.00    +0.258 C 
ATOM     24  O   UNL     1       4.841   6.514   0.763  0.00  0.00    -0.269 OA
ATOM     25  H   UNL     1       2.222   8.152   0.712  0.00  0.00    +0.157 HD
BRANCH  23  26
ATOM     26  C   UNL     1       2.713   5.621   1.063  0.00  0.00    +0.094 A 
ATOM     27  C   UNL     1       2.993   4.301   1.245  0.00  0.00    +0.068 A 
ATOM     28  C   UNL     1       1.946   3.386   1.465  0.00  0.00    +0.008 A 
ATOM     29  C   UNL     1       2.032   1.986   1.674  0.00  0.00    +0.010 A 
ATOM     30  C   UNL     1       0.914   1.243   1.874  0.00  0.00    +0.001 A 
ATOM     31  C   UNL     1      -0.352   1.817   1.877  0.00  0.00    +0.001 A 
ATOM     32  C   UNL     1      -0.481   3.177   1.682  0.00  0.00    +0.016 A 
ATOM     33  C   UNL     1       0.646   3.945   1.478  0.00  0.00    +0.021 A 
ATOM     34  S   UNL     1       0.934   5.673   1.191  0.00  0.00    -0.082 S 
ATOM     35 CL   UNL     1       4.637   3.746   1.204  0.00  0.00    -0.082 Cl
ENDBRANCH  23  26
ENDBRANCH  20  22
ENDBRANCH   1  20
TORSDOF 7
