REMARK  Name = ZINC63234731
REMARK  8 active torsions:
REMARK  status: ('A' for Active; 'I' for Inactive)
REMARK    1  A    between atoms: C_1  and  C_2
REMARK    2  A    between atoms: C_2  and  C_3
REMARK    3  A    between atoms: C_3  and  N_4
REMARK    4  A    between atoms: C_13  and  C_16
REMARK    5  A    between atoms: N_18  and  C_19
REMARK    6  A    between atoms: C_19  and  C_20
REMARK    7  A    between atoms: C_20  and  C_22
REMARK    8  A    between atoms: C_20  and  C_29
REMARK                            x       y       z     vdW  Elec       q    Type
REMARK                         _______ _______ _______ _____ _____    ______ ____
ROOT
ATOM      1  C   UNL     1       3.322  -4.543   0.741  0.00  0.00    +0.236 C 
ATOM      2  O   UNL     1       3.461  -4.368  -0.451  0.00  0.00    -0.274 OA
ATOM      3  N   UNL     1       4.130  -5.401   1.395  0.00  0.00    -0.313 N 
ATOM      4  H   UNL     1       4.018  -5.541   2.348  0.00  0.00    +0.149 HD
ENDROOT
BRANCH   1  14
ATOM      5  N   UNL     1       0.762  -1.976   1.234  0.00  0.00    -0.232 N 
ATOM      6  C   UNL     1      -0.296  -2.650   1.734  0.00  0.00    +0.260 C 
ATOM      7  O   UNL     1      -1.292  -2.063   2.107  0.00  0.00    -0.269 OA
ATOM      8  C   UNL     1      -0.207  -4.125   1.813  0.00  0.00    +0.043 A 
ATOM      9  C   UNL     1      -1.328  -4.924   2.000  0.00  0.00    +0.013 A 
ATOM     10  C   UNL     1      -1.179  -6.297   2.064  0.00  0.00    +0.001 A 
ATOM     11  C   UNL     1       0.075  -6.868   1.944  0.00  0.00    +0.000 A 
ATOM     12  C   UNL     1       1.195  -6.074   1.758  0.00  0.00    +0.006 A 
ATOM     13  C   UNL     1       1.060  -4.707   1.692  0.00  0.00    -0.008 A 
ATOM     14  C   UNL     1       2.246  -3.801   1.491  0.00  0.00    +0.189 C 
ATOM     15  N   UNL     1       1.842  -2.620   0.718  0.00  0.00    -0.221 NA
ATOM     16  H   UNL     1       1.695  -2.852  -0.253  0.00  0.00    +0.146 HD
BRANCH   5  17
ATOM     17  C   UNL     1       0.742  -0.511   1.242  0.00  0.00    +0.127 C 
BRANCH  17  19
ATOM     18  C   UNL     1      -0.019   1.526   0.010  0.00  0.00    +0.005 C 
ATOM     19  C   UNL     1       0.002  -0.004   0.002  0.00  0.00    +0.017 C 
ENDBRANCH  17  19
ENDBRANCH   5  17
ENDBRANCH   1  14
BRANCH   3  20
ATOM     20  C   UNL     1       5.175  -6.122   0.665  0.00  0.00    +0.116 C 
BRANCH  20  21
ATOM     21  C   UNL     1       5.943  -7.024   1.634  0.00  0.00    +0.066 C 
BRANCH  21  22
ATOM     22  C   UNL     1       6.937  -7.856   0.865  0.00  0.00    -0.033 C 
ATOM     23  C   UNL     1       6.986  -9.206   0.795  0.00  0.00    -0.000 A 
ATOM     24  C   UNL     1       6.161 -10.263   1.393  0.00  0.00    +0.010 A 
ATOM     25  C   UNL     1       6.463 -11.556   1.135  0.00  0.00    +0.001 A 
ATOM     26  C   UNL     1       7.541 -11.911   0.313  0.00  0.00    +0.002 A 
ATOM     27  C   UNL     1       8.344 -10.997  -0.272  0.00  0.00    +0.026 A 
ATOM     28  C   UNL     1       8.118  -9.607  -0.069  0.00  0.00    +0.043 A 
ATOM     29  N   UNL     1       8.746  -8.547  -0.517  0.00  0.00    -0.380 N 
ATOM     30  C   UNL     1       8.077  -7.351   0.009  0.00  0.00    +0.145 C 
ATOM     31  H   UNL     1       9.520  -8.552  -1.101  0.00  0.00    +0.160 HD
ENDBRANCH  21  22
BRANCH  21  32
ATOM     32  C   UNL     1       6.674  -6.173   2.640  0.00  0.00    -0.020 A 
ATOM     33  C   UNL     1       7.615  -5.254   2.216  0.00  0.00    +0.006 A 
ATOM     34  C   UNL     1       8.284  -4.473   3.139  0.00  0.00    +0.000 A 
ATOM     35  C   UNL     1       8.014  -4.611   4.488  0.00  0.00    +0.001 A 
ATOM     36  C   UNL     1       7.074  -5.530   4.914  0.00  0.00    +0.020 A 
ATOM     37  C   UNL     1       6.399  -6.308   3.990  0.00  0.00    +0.045 A 
ATOM     38 CL   UNL     1       5.213  -7.457   4.523  0.00  0.00    -0.083 Cl
ENDBRANCH  21  32
ENDBRANCH  20  21
ENDBRANCH   3  20
TORSDOF 7
