REMARK  Name = ZINC36597534
REMARK  14 active torsions:
REMARK  status: ('A' for Active; 'I' for Inactive)
REMARK    1  A    between atoms: C_1  and  C_2
REMARK    2  A    between atoms: C_5  and  C_7
REMARK    3  A    between atoms: C_7  and  N_8
REMARK    4  A    between atoms: N_8  and  C_9
REMARK    5  A    between atoms: C_9  and  C_11
REMARK    6  A    between atoms: C_9  and  C_21
REMARK    7  A    between atoms: C_13  and  N_18
REMARK    8  A    between atoms: N_23  and  C_24
REMARK    9  A    between atoms: C_24  and  C_25
REMARK   10  A    between atoms: C_24  and  C_26
REMARK   11  A    between atoms: C_24  and  C_27
REMARK   12  A    between atoms: C_28  and  C_30
REMARK   13  A    between atoms: C_31  and  O_37
REMARK   14  A    between atoms: C_35  and  O_36
REMARK                            x       y       z     vdW  Elec       q    Type
REMARK                         _______ _______ _______ _____ _____    ______ ____
ROOT
ATOM      1  N   UNL     1       2.238  -3.702  -1.175  0.00  0.00    -0.274 N 
ATOM      2  C   UNL     1       2.298  -3.624   0.169  0.00  0.00    +0.255 C 
ATOM      3  O   UNL     1       3.106  -2.886   0.700  0.00  0.00    -0.270 OA
ENDROOT
BRANCH   2   4
ATOM      4  C   UNL     1       1.385  -4.432   0.995  0.00  0.00    +0.119 A 
ATOM      5  C   UNL     1       1.760  -5.717   1.412  0.00  0.00    +0.133 A 
ATOM      6  C   UNL     1       0.893  -6.468   2.189  0.00  0.00    +0.046 A 
ATOM      7  C   UNL     1      -0.338  -5.955   2.553  0.00  0.00    +0.007 A 
ATOM      8  C   UNL     1      -0.718  -4.690   2.147  0.00  0.00    +0.046 A 
ATOM      9  C   UNL     1       0.136  -3.919   1.374  0.00  0.00    +0.133 A 
BRANCH   9  10
ATOM     10  O   UNL     1      -0.237  -2.675   0.982  0.00  0.00    -0.506 OA
ATOM     11  H   UNL     1      -0.707  -2.654   0.137  0.00  0.00    +0.292 HD
ENDBRANCH   9  10
BRANCH   5  12
ATOM     12  O   UNL     1       2.967  -6.223   1.056  0.00  0.00    -0.506 OA
ATOM     13  H   UNL     1       3.676  -6.027   1.683  0.00  0.00    +0.292 HD
ENDBRANCH   5  12
ENDBRANCH   2   4
BRANCH   1  14
ATOM     14  C   UNL     1       1.213  -4.530  -1.816  0.00  0.00    +0.183 C 
BRANCH  14  19
ATOM     15  C   UNL     1       3.661  -8.193  -4.272  0.00  0.00    +0.086 C 
ATOM     16  C   UNL     1       2.858  -7.472  -3.220  0.00  0.00    +0.102 A 
ATOM     17  C   UNL     1       2.377  -8.016  -2.087  0.00  0.00    +0.045 A 
ATOM     18  C   UNL     1       1.691  -6.989  -1.399  0.00  0.00    +0.046 A 
ATOM     19  C   UNL     1       1.794  -5.879  -2.152  0.00  0.00    +0.122 A 
ATOM     20  O   UNL     1       2.507  -6.176  -3.250  0.00  0.00    -0.463 OA
ENDBRANCH  14  19
ENDBRANCH   1  14
BRANCH   1  21
ATOM     21  C   UNL     1       3.199  -2.960  -1.995  0.00  0.00    +0.194 C 
BRANCH  21  22
ATOM     22  C   UNL     1       2.922  -1.483  -1.880  0.00  0.00    +0.002 A 
ATOM     23  C   UNL     1       2.247  -0.990  -0.779  0.00  0.00    +0.040 A 
ATOM     24  C   UNL     1       1.992   0.364  -0.674  0.00  0.00    +0.127 A 
ATOM     25  C   UNL     1       2.412   1.227  -1.670  0.00  0.00    +0.034 A 
ATOM     26  C   UNL     1       3.088   0.735  -2.770  0.00  0.00    +0.022 A 
ATOM     27  C   UNL     1       3.348  -0.620  -2.874  0.00  0.00    +0.047 A 
ATOM     28 CL   UNL     1       4.203  -1.238  -4.253  0.00  0.00    -0.083 Cl
BRANCH  24  29
ATOM     29  N   UNL     1       1.269   0.891   0.505  0.00  0.00    +0.056 N 
ATOM     30  O   UNL     1       0.984   0.153   1.419  0.00  0.00    -0.126 OA
ATOM     31  O   UNL     1       0.963   2.060   0.553  0.00  0.00    -0.126 OA
ENDBRANCH  24  29
ENDBRANCH  21  22
BRANCH  21  32
ATOM     32  C   UNL     1       4.598  -3.248  -1.515  0.00  0.00    +0.239 C 
ATOM     33  O   UNL     1       4.775  -3.999  -0.579  0.00  0.00    -0.273 OA
ATOM     34  N   UNL     1       5.652  -2.670  -2.125  0.00  0.00    -0.309 N 
ATOM     35  H   UNL     1       5.510  -2.070  -2.873  0.00  0.00    +0.149 HD
BRANCH  34  36
ATOM     36  C   UNL     1       7.012  -2.950  -1.657  0.00  0.00    +0.026 C 
ATOM     37  C   UNL     1       7.293  -4.449  -1.774  0.00  0.00    +0.031 C 
ATOM     38  C   UNL     1       8.015  -2.175  -2.514  0.00  0.00    +0.031 C 
ATOM     39  C   UNL     1       7.148  -2.518  -0.196  0.00  0.00    +0.031 C 
ENDBRANCH  34  36
ENDBRANCH  21  32
ENDBRANCH   1  21
TORSDOF 10
