REMARK  Name = ZINC16958610
REMARK  8 active torsions:
REMARK  status: ('A' for Active; 'I' for Inactive)
REMARK    1  A    between atoms: C_6  and  C_7
REMARK    2  A    between atoms: N_10  and  C_16
REMARK    3  A    between atoms: C_13  and  C_14
REMARK    4  A    between atoms: C_18  and  O_31
REMARK    5  A    between atoms: C_20  and  O_30
REMARK    6  A    between atoms: C_22  and  O_29
REMARK    7  A    between atoms: C_24  and  C_27
REMARK    8  A    between atoms: C_27  and  O_28
REMARK                            x       y       z     vdW  Elec       q    Type
REMARK                         _______ _______ _______ _____ _____    ______ ____
ROOT
ATOM      1  C   UNL     1      -1.617   5.875  -4.918  0.00  0.00    +0.007 A 
ATOM      2  C   UNL     1      -2.030   6.448  -3.696  0.00  0.00    -0.019 A 
ATOM      3  C   UNL     1      -1.392   6.125  -2.548  0.00  0.00    +0.026 A 
ATOM      4  N   UNL     1      -0.347   5.248  -2.554  0.00  0.00    -0.309 N 
ATOM      5  C   UNL     1       0.092   4.677  -3.687  0.00  0.00    +0.107 A 
ATOM      6  S   UNL     1       1.412   3.587  -3.642  0.00  0.00    -0.031 S 
ATOM      7  C   UNL     1      -0.542   4.973  -4.918  0.00  0.00    +0.091 A 
ATOM      8  C   UNL     1      -2.017   6.865  -1.381  0.00  0.00    +0.054 C 
ATOM      9  C   UNL     1      -2.832   8.009  -2.020  0.00  0.00    +0.011 C 
ATOM     10  C   UNL     1      -3.145   7.435  -3.418  0.00  0.00    +0.038 C 
ENDROOT
BRANCH   1  16
ATOM     11  C   UNL     1      -3.642   5.859  -6.370  0.00  0.00    +0.010 A 
ATOM     12  C   UNL     1      -4.282   6.188  -7.546  0.00  0.00    +0.020 A 
ATOM     13  C   UNL     1      -3.599   6.866  -8.543  0.00  0.00    +0.041 A 
ATOM     14  C   UNL     1      -2.272   7.221  -8.362  0.00  0.00    +0.020 A 
ATOM     15  C   UNL     1      -1.624   6.903  -7.188  0.00  0.00    +0.010 A 
ATOM     16  C   UNL     1      -2.307   6.220  -6.180  0.00  0.00    -0.016 A 
ATOM     17 CL   UNL     1      -4.409   7.271 -10.024  0.00  0.00    -0.084 Cl
ENDBRANCH   1  16
BRANCH   4  18
ATOM     18  C   UNL     1       0.318   4.925  -1.289  0.00  0.00    +0.252 C 
ATOM     19  C   UNL     1       1.670   5.640  -1.226  0.00  0.00    +0.195 C 
ATOM     20  C   UNL     1       2.386   5.250   0.071  0.00  0.00    +0.178 C 
ATOM     21  C   UNL     1       2.530   3.726   0.122  0.00  0.00    +0.177 C 
ATOM     22  C   UNL     1       1.145   3.085   0.008  0.00  0.00    +0.177 C 
ATOM     23  O   UNL     1       0.522   3.514  -1.205  0.00  0.00    -0.346 OA
BRANCH  21  24
ATOM     24  O   UNL     1       3.132   3.345   1.361  0.00  0.00    -0.386 OA
ATOM     25  H   UNL     1       4.014   3.716   1.501  0.00  0.00    +0.210 HD
ENDBRANCH  21  24
BRANCH  20  26
ATOM     26  O   UNL     1       3.680   5.854   0.103  0.00  0.00    -0.386 OA
ATOM     27  H   UNL     1       4.190   5.649   0.899  0.00  0.00    +0.210 HD
ENDBRANCH  20  26
BRANCH  19  28
ATOM     28  O   UNL     1       1.465   7.054  -1.253  0.00  0.00    -0.385 OA
ATOM     29  H   UNL     1       2.281   7.571  -1.217  0.00  0.00    +0.210 HD
ENDBRANCH  19  28
BRANCH  22  30
ATOM     30  C   UNL     1       1.286   1.562  -0.002  0.00  0.00    +0.190 C 
BRANCH  30  31
ATOM     31  O   UNL     1      -0.011   0.963   0.007  0.00  0.00    -0.392 OA
ATOM     32  H   UNL     1       0.002  -0.004   0.002  0.00  0.00    +0.210 HD
ENDBRANCH  30  31
ENDBRANCH  22  30
ENDBRANCH   4  18
BRANCH   7  33
ATOM     33  C   UNL     1      -0.092   4.369  -6.137  0.00  0.00    +0.102 C 
ATOM     34  N   UNL     1       0.264   3.891  -7.103  0.00  0.00    -0.191 NA
ENDBRANCH   7  33
TORSDOF 8
