REMARK  Name = ZINC23868596
REMARK  8 active torsions:
REMARK  status: ('A' for Active; 'I' for Inactive)
REMARK    1  A    between atoms: C_1  and  C_2
REMARK    2  A    between atoms: C_2  and  C_4
REMARK    3  A    between atoms: C_2  and  S_20
REMARK    4  A    between atoms: N_6  and  C_7
REMARK    5  A    between atoms: C_7  and  C_8
REMARK    6  A    between atoms: N_10  and  C_11
REMARK    7  A    between atoms: S_20  and  C_21
REMARK    8  A    between atoms: C_24  and  C_27
REMARK                            x       y       z     vdW  Elec       q    Type
REMARK                         _______ _______ _______ _____ _____    ______ ____
ROOT
ATOM      1  C   UNL     1       3.895   7.507   0.427  0.00  0.00    +0.227 C 
ATOM      2  O   UNL     1       2.962   8.281   0.459  0.00  0.00    -0.275 OA
ATOM      3  N   UNL     1       3.669   6.183   0.312  0.00  0.00    -0.306 N 
ATOM      4  H   UNL     1       4.516   5.481   0.283  0.00  0.00    +0.149 HD
ENDROOT
BRANCH   1   6
ATOM      5  C   UNL     1       5.877   8.199  -0.893  0.00  0.00    +0.029 C 
ATOM      6  C   UNL     1       5.308   8.025   0.516  0.00  0.00    +0.137 C 
BRANCH   6   7
ATOM      7  S   UNL     1       5.312   9.621   1.370  0.00  0.00    -0.074 S 
BRANCH   7   8
ATOM      8  C   UNL     1       7.047   9.912   1.467  0.00  0.00    +0.185 A 
ATOM      9  N   UNL     1       7.656  10.998   2.028  0.00  0.00    -0.201 NA
ATOM     10  H   UNL     1       7.923   8.152   0.503  0.00  0.00    +0.191 HD
ATOM     11  C   UNL     1       9.007  10.788   1.871  0.00  0.00    +0.182 A 
ATOM     12  N   UNL     1       9.148   9.644   1.243  0.00  0.00    -0.152 NA
ATOM     13  N   UNL     1       7.996   9.124   1.014  0.00  0.00    -0.253 N 
BRANCH  11  14
ATOM     14  C   UNL     1      10.093  11.682   2.323  0.00  0.00    +0.021 A 
ATOM     15  C   UNL     1       9.790  12.883   2.967  0.00  0.00    +0.013 A 
ATOM     16  C   UNL     1      10.809  13.712   3.390  0.00  0.00    +0.021 A 
ATOM     17  C   UNL     1      12.129  13.359   3.169  0.00  0.00    +0.041 A 
ATOM     18  C   UNL     1      12.436  12.171   2.526  0.00  0.00    +0.021 A 
ATOM     19  C   UNL     1      11.427  11.332   2.102  0.00  0.00    +0.013 A 
ATOM     20 CL   UNL     1      13.405  14.409   3.700  0.00  0.00    -0.084 Cl
ENDBRANCH  11  14
ENDBRANCH   7   8
ENDBRANCH   6   7
ENDBRANCH   1   6
BRANCH   3  21
ATOM     21  C   UNL     1       2.296   5.679   0.225  0.00  0.00    +0.200 C 
BRANCH  21  22
ATOM     22  C   UNL     1       2.319   4.177   0.104  0.00  0.00    +0.234 C 
ATOM     23  O   UNL     1       3.378   3.586   0.091  0.00  0.00    -0.274 OA
ATOM     24  N   UNL     1       1.163   3.491   0.009  0.00  0.00    -0.282 N 
ATOM     25  H   UNL     1       0.208   4.031  -0.071  0.00  0.00    +0.155 HD
BRANCH  24  26
ATOM     26  C   UNL     1       1.178   2.090   0.013  0.00  0.00    +0.072 A 
ATOM     27  C   UNL     1       2.230   1.407   0.608  0.00  0.00    +0.029 A 
ATOM     28  C   UNL     1       2.244   0.026   0.611  0.00  0.00    +0.043 A 
ATOM     29  C   UNL     1       1.210  -0.680   0.022  0.00  0.00    +0.161 A 
ATOM     30  C   UNL     1       0.156  -0.003  -0.574  0.00  0.00    +0.195 A 
ATOM     31  C   UNL     1       0.139   1.381  -0.579  0.00  0.00    +0.182 A 
ATOM     32  F   UNL     1      -0.884   2.043  -1.163  0.00  0.00    -0.200 F 
ATOM     33  F   UNL     1      -0.852  -0.694  -1.149  0.00  0.00    -0.199 F 
ATOM     34  F   UNL     1       1.226  -2.031   0.026  0.00  0.00    -0.202 F 
ENDBRANCH  24  26
ENDBRANCH  21  22
ENDBRANCH   3  21
TORSDOF 7
