REMARK  Name = ZINC64928204
REMARK  9 active torsions:
REMARK  status: ('A' for Active; 'I' for Inactive)
REMARK    1  A    between atoms: C_1  and  C_2
REMARK    2  A    between atoms: C_2  and  C_3
REMARK    3  A    between atoms: N_5  and  C_6
REMARK    4  A    between atoms: C_9  and  S_12
REMARK    5  A    between atoms: S_12  and  N_15
REMARK    6  A    between atoms: C_24  and  C_26
REMARK    7  A    between atoms: C_26  and  C_27
REMARK    8  A    between atoms: N_29  and  C_30
REMARK    9  A    between atoms: C_30  and  C_31
REMARK                            x       y       z     vdW  Elec       q    Type
REMARK                         _______ _______ _______ _____ _____    ______ ____
ROOT
ATOM      1  N   UNL     1       1.790  -3.693   7.412  0.00  0.00    -0.168 NA
ATOM      2  C   UNL     1       1.196  -2.733   8.357  0.00  0.00    +0.115 C 
ATOM      3  C   UNL     1      -0.324  -2.868   8.269  0.00  0.00    +0.052 C 
ATOM      4  C   UNL     1      -0.738  -4.315   8.326  0.00  0.00    -0.041 A 
ATOM      5  C   UNL     1      -2.051  -4.596   8.685  0.00  0.00    +0.004 A 
ATOM      6  C   UNL     1      -2.497  -5.899   8.747  0.00  0.00    +0.000 A 
ATOM      7  C   UNL     1      -1.634  -6.937   8.449  0.00  0.00    +0.000 A 
ATOM      8  C   UNL     1      -0.329  -6.661   8.096  0.00  0.00    +0.005 A 
ATOM      9  C   UNL     1       0.123  -5.350   8.039  0.00  0.00    -0.025 A 
ATOM     10  C   UNL     1       1.563  -5.119   7.668  0.00  0.00    +0.119 C 
ENDROOT
BRANCH   1  11
ATOM     11  S   UNL     1       2.674  -3.183   6.108  0.00  0.00    +0.061 S 
ATOM     12  O   UNL     1       3.437  -4.300   5.672  0.00  0.00    -0.153 OA
ATOM     13  O   UNL     1       3.274  -1.950   6.481  0.00  0.00    -0.153 OA
BRANCH  11  17
ATOM     14  C   UNL     1      -0.258  -2.244   2.787  0.00  0.00    +0.033 A 
ATOM     15  C   UNL     1       0.194  -1.231   3.623  0.00  0.00    +0.025 A 
ATOM     16  C   UNL     1       1.088  -1.521   4.635  0.00  0.00    +0.030 A 
ATOM     17  C   UNL     1       1.533  -2.817   4.816  0.00  0.00    +0.106 A 
ATOM     18  C   UNL     1       1.085  -3.828   3.985  0.00  0.00    +0.030 A 
ATOM     19  C   UNL     1       0.186  -3.546   2.975  0.00  0.00    +0.025 A 
BRANCH  14  22
ATOM     20  C   UNL     1      -2.130  -2.838   1.444  0.00  0.00    +0.217 C 
ATOM     21  O   UNL     1      -2.204  -3.894   2.037  0.00  0.00    -0.275 OA
ATOM     22  N   UNL     1      -1.164  -1.953   1.760  0.00  0.00    -0.286 N 
ATOM     23  H   UNL     1      -1.097  -1.115   1.277  0.00  0.00    +0.155 HD
BRANCH  20  25
ATOM     24  C   UNL     1      -4.101  -3.679   0.196  0.00  0.00    +0.013 C 
ATOM     25  C   UNL     1      -3.119  -2.516   0.353  0.00  0.00    +0.093 C 
ENDBRANCH  20  25
ENDBRANCH  14  22
ENDBRANCH  11  17
ENDBRANCH   1  11
BRANCH  10  26
ATOM     26  C   UNL     1       1.899  -5.923   6.410  0.00  0.00    +0.121 C 
BRANCH  26  27
ATOM     27  C   UNL     1       3.332  -6.385   6.478  0.00  0.00    +0.215 C 
ATOM     28  O   UNL     1       3.992  -6.171   7.473  0.00  0.00    -0.276 OA
ATOM     29  N   UNL     1       3.879  -7.037   5.433  0.00  0.00    -0.311 N 
ATOM     30  H   UNL     1       3.351  -7.208   4.637  0.00  0.00    +0.149 HD
BRANCH  29  31
ATOM     31  C   UNL     1       5.272  -7.487   5.498  0.00  0.00    +0.146 C 
BRANCH  31  32
ATOM     32  C   UNL     1       5.636  -8.182   4.212  0.00  0.00    +0.007 A 
ATOM     33  C   UNL     1       6.164  -7.659   3.079  0.00  0.00    +0.013 A 
ATOM     34  C   UNL     1       6.420  -8.496   2.010  0.00  0.00    +0.008 A 
ATOM     35  C   UNL     1       6.137  -9.817   2.126  0.00  0.00    +0.045 A 
ATOM     36  S   UNL     1       5.493  -9.910   3.789  0.00  0.00    -0.100 S 
ENDBRANCH  31  32
ENDBRANCH  29  31
ENDBRANCH  26  27
ENDBRANCH  10  26
TORSDOF 8
