REMARK  Name = ZINC15081936
REMARK  5 active torsions:
REMARK  status: ('A' for Active; 'I' for Inactive)
REMARK    1  A    between atoms: C_4  and  N_7
REMARK    2  A    between atoms: C_8  and  C_10
REMARK    3  A    between atoms: N_21  and  C_22
REMARK    4  A    between atoms: C_22  and  C_23
REMARK    5  A    between atoms: C_25  and  C_28
REMARK                            x       y       z     vdW  Elec       q    Type
REMARK                         _______ _______ _______ _____ _____    ______ ____
ROOT
ATOM      1  C   UNL     1       5.990  -0.649  -0.308  0.00  0.00    +0.270 C 
ATOM      2  C   UNL     1       7.244  -0.133  -0.419  0.00  0.00    +0.079 C 
ATOM      3  C   UNL     1       8.374  -1.062  -0.547  0.00  0.00    +0.023 A 
ATOM      4  C   UNL     1       9.747  -0.757  -0.664  0.00  0.00    +0.011 A 
ATOM      5  C   UNL     1      10.680  -1.760  -0.777  0.00  0.00    +0.001 A 
ATOM      6  C   UNL     1      10.300  -3.091  -0.775  0.00  0.00    +0.002 A 
ATOM      7  C   UNL     1       8.956  -3.413  -0.657  0.00  0.00    +0.027 A 
ATOM      8  C   UNL     1       8.026  -2.419  -0.544  0.00  0.00    +0.098 A 
ATOM      9  S   UNL     1       6.259  -2.409  -0.378  0.00  0.00    +0.014 S 
ATOM     10  O   UNL     1       5.938  -2.949   0.896  0.00  0.00    -0.168 OA
ATOM     11  O   UNL     1       5.704  -2.886  -1.596  0.00  0.00    -0.168 OA
ATOM     12  N   UNL     1       7.449   1.228  -0.411  0.00  0.00    -0.276 NA
ENDROOT
BRANCH   1  14
ATOM     13  N   UNL     1       3.612  -0.642  -0.084  0.00  0.00    -0.284 N 
ATOM     14  C   UNL     1       4.769   0.043  -0.176  0.00  0.00    +0.248 C 
ATOM     15  O   UNL     1       4.760   1.261  -0.145  0.00  0.00    -0.273 OA
ATOM     16  H   UNL     1       3.625  -1.610  -0.034  0.00  0.00    +0.155 HD
BRANCH  13  20
ATOM     17  C   UNL     1      -0.018   1.399  -0.018  0.00  0.00    +0.000 A 
ATOM     18  C   UNL     1       0.126   0.224   0.696  0.00  0.00    +0.002 A 
ATOM     19  C   UNL     1       1.328  -0.455   0.677  0.00  0.00    +0.023 A 
ATOM     20  C   UNL     1       2.394   0.044  -0.062  0.00  0.00    +0.033 A 
ATOM     21  C   UNL     1       2.246   1.224  -0.778  0.00  0.00    +0.023 A 
ATOM     22  C   UNL     1       1.041   1.899  -0.754  0.00  0.00    +0.002 A 
ENDBRANCH  13  20
ENDBRANCH   1  14
BRANCH  12  23
ATOM     23  C   UNL     1       8.788   1.768  -0.656  0.00  0.00    +0.240 C 
BRANCH  23  24
ATOM     24  C   UNL     1       8.714   3.271  -0.749  0.00  0.00    +0.249 A 
ATOM     25  N   UNL     1       8.831   4.119   0.242  0.00  0.00    -0.190 NA
ATOM     26  C   UNL     1       8.699   5.345  -0.312  0.00  0.00    +0.202 A 
ATOM     27  N   UNL     1       8.505   5.171  -1.593  0.00  0.00    -0.056 NA
ATOM     28  O   UNL     1       8.511   3.988  -1.859  0.00  0.00    -0.336 OA
BRANCH  26  29
ATOM     29  C   UNL     1       8.759   6.645   0.402  0.00  0.00    +0.023 A 
ATOM     30  C   UNL     1       8.968   6.677   1.779  0.00  0.00    +0.013 A 
ATOM     31  C   UNL     1       9.028   7.889   2.437  0.00  0.00    +0.021 A 
ATOM     32  C   UNL     1       8.869   9.070   1.733  0.00  0.00    +0.041 A 
ATOM     33  C   UNL     1       8.656   9.043   0.365  0.00  0.00    +0.021 A 
ATOM     34  C   UNL     1       8.600   7.837  -0.302  0.00  0.00    +0.013 A 
ATOM     35 CL   UNL     1       8.938  10.591   2.568  0.00  0.00    -0.084 Cl
ENDBRANCH  26  29
ENDBRANCH  23  24
ENDBRANCH  12  23
TORSDOF 5
