REMARK  Name = ZINC62777516
REMARK  4 active torsions:
REMARK  status: ('A' for Active; 'I' for Inactive)
REMARK    1  A    between atoms: C_2  and  C_7
REMARK    2  A    between atoms: N_9  and  C_10
REMARK    3  A    between atoms: C_10  and  C_12
REMARK    4  A    between atoms: C_10  and  C_14
REMARK                            x       y       z     vdW  Elec       q    Type
REMARK                         _______ _______ _______ _____ _____    ______ ____
ROOT
ATOM      1  C   UNL     1       1.756   3.170   0.002  0.00  0.00    +0.248 C 
ATOM      2  O   UNL     1       0.946   4.077   0.014  0.00  0.00    -0.270 OA
ATOM      3  N   UNL     1       3.075   3.445  -0.009  0.00  0.00    -0.296 N 
ATOM      4  H   UNL     1       3.722   2.722  -0.019  0.00  0.00    +0.150 HD
ENDROOT
BRANCH   1   6
ATOM      5  C   UNL     1      -0.016   1.338   0.009  0.00  0.00    +0.118 A 
ATOM      6  C   UNL     1       1.295   1.770  -0.001  0.00  0.00    +0.074 A 
ATOM      7  C   UNL     1       2.113   0.617  -0.015  0.00  0.00    +0.147 A 
ATOM      8  N   UNL     1       1.335  -0.430  -0.013  0.00  0.00    -0.182 NA
ATOM      9  N   UNL     1       0.002  -0.004   0.002  0.00  0.00    -0.284 N 
ATOM     10  H   UNL     1      -0.777  -0.582   0.006  0.00  0.00    +0.188 HD
ENDBRANCH   1   6
BRANCH   3  11
ATOM     11  C   UNL     1       3.534   4.837  -0.006  0.00  0.00    +0.179 C 
BRANCH  11  12
ATOM     12  C   UNL     1       4.941   4.909   0.590  0.00  0.00    +0.024 C 
ATOM     13  C   UNL     1       4.914   4.378   2.025  0.00  0.00    +0.006 C 
ATOM     14  C   UNL     1       6.321   4.451   2.622  0.00  0.00    +0.000 C 
ATOM     15  C   UNL     1       6.799   5.904   2.624  0.00  0.00    +0.000 C 
ATOM     16  C   UNL     1       6.826   6.435   1.190  0.00  0.00    +0.000 C 
ATOM     17  C   UNL     1       5.419   6.362   0.593  0.00  0.00    +0.006 C 
ENDBRANCH  11  12
BRANCH  11  18
ATOM     18  C   UNL     1       3.559   5.347  -1.387  0.00  0.00    +0.085 C 
ATOM     19  N   UNL     1       3.579   5.742  -2.452  0.00  0.00    -0.195 NA
ENDBRANCH  11  18
ENDBRANCH   3  11
TORSDOF 4
