REMARK  Name = ZINC16978094
REMARK  13 active torsions:
REMARK  status: ('A' for Active; 'I' for Inactive)
REMARK    1  A    between atoms: C_1  and  C_2
REMARK    2  A    between atoms: C_2  and  N_65
REMARK    3  A    between atoms: C_3  and  C_4
REMARK    4  A    between atoms: C_3  and  N_65
REMARK    5  A    between atoms: C_5  and  C_6
REMARK    6  A    between atoms: C_5  and  N_65
REMARK    7  A    between atoms: C_6  and  C_7
REMARK    8  A    between atoms: C_7  and  C_8
REMARK    9  A    between atoms: C_8  and  C_10
REMARK   10  A    between atoms: C_8  and  N_11
REMARK   11  A    between atoms: C_13  and  C_28
REMARK   12  A    between atoms: C_16  and  C_18
REMARK   13  A    between atoms: C_19  and  C_20
REMARK                            x       y       z     vdW  Elec       q    Type
REMARK                         _______ _______ _______ _____ _____    ______ ____
ROOT
ATOM      1  N   UNL     1       1.169  -0.262  -3.320  0.00  0.00    -0.326 N 
ATOM      2  C   UNL     1       2.458   0.208  -3.144  0.00  0.00    +0.132 A 
ATOM      3  C   UNL     1       3.565  -0.628  -3.388  0.00  0.00    +0.059 A 
ATOM      4  C   UNL     1       4.845  -0.105  -3.195  0.00  0.00    +0.143 A 
ATOM      5  N   UNL     1       4.976   1.148  -2.794  0.00  0.00    -0.216 NA
ATOM      6  C   UNL     1       3.909   1.911  -2.573  0.00  0.00    +0.156 A 
ATOM      7  N   UNL     1       2.672   1.456  -2.749  0.00  0.00    -0.213 NA
ATOM      8 CL   UNL     1       6.248  -1.088  -3.479  0.00  0.00    -0.061 Cl
ATOM      9  H   UNL     1       1.021  -1.175  -3.614  0.00  0.00    +0.148 HD
ENDROOT
BRANCH   3  10
ATOM     10  C   UNL     1       3.375  -2.028  -3.836  0.00  0.00    -0.012 A 
ATOM     11  C   UNL     1       2.764  -2.956  -2.994  0.00  0.00    +0.010 A 
ATOM     12  C   UNL     1       2.586  -4.257  -3.418  0.00  0.00    +0.020 A 
ATOM     13  C   UNL     1       3.021  -4.643  -4.674  0.00  0.00    +0.041 A 
ATOM     14  C   UNL     1       3.633  -3.727  -5.513  0.00  0.00    +0.020 A 
ATOM     15  C   UNL     1       3.812  -2.423  -5.100  0.00  0.00    +0.010 A 
ATOM     16 CL   UNL     1       2.800  -6.283  -5.199  0.00  0.00    -0.084 Cl
ENDBRANCH   3  10
BRANCH   1  17
ATOM     17  C   UNL     1       0.026   0.620  -3.069  0.00  0.00    +0.069 C 
ATOM     18  C   UNL     1      -0.258   1.455  -4.320  0.00  0.00    +0.028 C 
BRANCH  17  19
ATOM     19  C   UNL     1      -1.204  -0.223  -2.728  0.00  0.00    +0.020 C 
BRANCH  19  20
ATOM     20  C   UNL     1      -0.966  -0.962  -1.410  0.00  0.00    -0.017 C 
BRANCH  20  21
ATOM     21  C   UNL     1      -2.196  -1.805  -1.069  0.00  0.00    -0.079 C 
BRANCH  21  22
ATOM     22  N   UNL     1      -1.943  -2.529   0.195  0.00  0.00    +0.379 N 
ATOM     23  H   UNL     1      -1.048  -3.026   0.121  0.00  0.00    -0.082 HD
BRANCH  22  25
ATOM     24  C   UNL     1      -3.187  -0.807   1.461  0.00  0.00    -0.017 C 
ATOM     25  C   UNL     1      -1.869  -1.572   1.319  0.00  0.00    -0.082 C 
ENDBRANCH  22  25
BRANCH  22  26
ATOM     26  C   UNL     1      -3.020  -3.512   0.439  0.00  0.00    -0.082 C 
ATOM     27  C   UNL     1      -2.614  -4.407   1.611  0.00  0.00    -0.017 C 
ENDBRANCH  22  26
ENDBRANCH  21  22
ENDBRANCH  20  21
ENDBRANCH  19  20
ENDBRANCH  17  19
ENDBRANCH   1  17
BRANCH   6  28
ATOM     28  C   UNL     1       4.104   3.299  -2.127  0.00  0.00    +0.049 C 
ATOM     29  C   UNL     1       5.335   3.736  -1.807  0.00  0.00    +0.011 C 
BRANCH  29  30
ATOM     30  C   UNL     1       6.427   2.771  -1.595  0.00  0.00    -0.025 A 
ATOM     31  C   UNL     1       6.199   1.603  -0.861  0.00  0.00    +0.009 A 
ATOM     32  C   UNL     1       7.225   0.702  -0.670  0.00  0.00    +0.020 A 
ATOM     33  C   UNL     1       8.482   0.957  -1.195  0.00  0.00    +0.041 A 
ATOM     34  C   UNL     1       8.715   2.114  -1.919  0.00  0.00    +0.020 A 
ATOM     35  C   UNL     1       7.697   3.021  -2.122  0.00  0.00    +0.009 A 
ATOM     36 CL   UNL     1       9.769  -0.180  -0.943  0.00  0.00    -0.084 Cl
ENDBRANCH  29  30
ENDBRANCH   6  28
TORSDOF 10
