REMARK  Name = ZINC04528842
REMARK  5 active torsions:
REMARK  status: ('A' for Active; 'I' for Inactive)
REMARK    1  A    between atoms: C_2  and  C_3
REMARK    2  A    between atoms: C_3  and  N_4
REMARK    3  A    between atoms: C_5  and  C_26
REMARK    4  A    between atoms: N_9  and  C_10
REMARK    5  A    between atoms: C_13  and  C_16
REMARK                            x       y       z     vdW  Elec       q    Type
REMARK                         _______ _______ _______ _____ _____    ______ ____
ROOT
ATOM      1  N   UNL     1       4.041  -0.201  -1.407  0.00  0.00    -0.317 N 
ATOM      2  C   UNL     1       4.356  -0.828  -2.581  0.00  0.00    +0.058 A 
ATOM      3  C   UNL     1       3.602  -0.607  -3.678  0.00  0.00    +0.075 A 
ATOM      4  S   UNL     1       2.372   0.532  -3.063  0.00  0.00    -0.059 S 
ATOM      5  C   UNL     1       2.958   0.643  -1.379  0.00  0.00    +0.152 A 
ATOM      6  N   UNL     1       2.473   1.347  -0.372  0.00  0.00    -0.336 N 
ATOM      7  H   UNL     1       3.003   1.365   0.592  0.00  0.00    +0.168 HD
ENDROOT
BRANCH   2   8
ATOM      8  C   UNL     1       5.515  -1.744  -2.648  0.00  0.00    -0.001 A 
ATOM      9  C   UNL     1       6.772  -1.314  -2.220  0.00  0.00    +0.011 A 
ATOM     10  C   UNL     1       7.849  -2.174  -2.280  0.00  0.00    +0.016 A 
ATOM     11  C   UNL     1       7.687  -3.458  -2.774  0.00  0.00    +0.018 A 
ATOM     12  C   UNL     1       6.444  -3.888  -3.205  0.00  0.00    +0.016 A 
ATOM     13  C   UNL     1       5.358  -3.038  -3.145  0.00  0.00    +0.011 A 
ATOM     14 BR   UNL     1       9.170  -4.628  -2.859  0.00  0.00    -0.050 Br
ENDBRANCH   2   8
BRANCH   6  15
ATOM     15  C   UNL     1       1.316   2.053  -0.527  0.00  0.00    +0.041 A 
ATOM     16  C   UNL     1       0.081   1.422  -0.340  0.00  0.00    +0.026 A 
ATOM     17  C   UNL     1      -1.077   2.128  -0.500  0.00  0.00    +0.013 A 
ATOM     18  C   UNL     1      -1.029   3.482  -0.841  0.00  0.00    +0.019 A 
ATOM     19  C   UNL     1       0.204   4.113  -1.029  0.00  0.00    +0.013 A 
ATOM     20  C   UNL     1       1.363   3.408  -0.874  0.00  0.00    +0.026 A 
BRANCH  18  21
ATOM     21  C   UNL     1      -2.282   4.246  -1.010  0.00  0.00    +0.164 A 
ATOM     22  N   UNL     1      -3.485   3.748  -1.214  0.00  0.00    -0.129 NA
ATOM     23  N   UNL     1      -4.342   4.704  -1.307  0.00  0.00    -0.134 NA
ATOM     24  C   UNL     1      -3.744   5.853  -1.166  0.00  0.00    +0.134 A 
ATOM     25  N   UNL     1      -2.419   5.604  -0.979  0.00  0.00    -0.311 N 
ATOM     26  C   UNL     1      -1.360   6.600  -0.813  0.00  0.00    +0.125 C 
ATOM     27  C   UNL     1      -1.951   7.863  -0.179  0.00  0.00    +0.022 C 
ATOM     28  C   UNL     1      -2.449   8.804  -1.274  0.00  0.00    +0.002 C 
ATOM     29  C   UNL     1      -3.553   8.140  -2.092  0.00  0.00    +0.008 C 
ATOM     30  C   UNL     1      -4.379   7.220  -1.188  0.00  0.00    +0.076 C 
ENDBRANCH  18  21
ENDBRANCH   6  15
BRANCH   1  31
ATOM     31  C   UNL     1       4.844  -0.425  -0.202  0.00  0.00    +0.151 C 
BRANCH  31  33
ATOM     32  C   UNL     1       4.917  -2.571   0.961  0.00  0.00    +0.005 C 
ATOM     33  C   UNL     1       4.215  -1.517   0.625  0.00  0.00    -0.013 C 
ENDBRANCH  31  33
ENDBRANCH   1  31
TORSDOF 5
