REMARK  Name = ZINC40627245
REMARK  7 active torsions:
REMARK  status: ('A' for Active; 'I' for Inactive)
REMARK    1  A    between atoms: C_1  and  C_2
REMARK    2  A    between atoms: C_5  and  S_8
REMARK    3  A    between atoms: S_8  and  N_11
REMARK    4  A    between atoms: N_11  and  N_12
REMARK    5  A    between atoms: C_14  and  N_30
REMARK    6  A    between atoms: C_15  and  N_19
REMARK    7  A    between atoms: N_19  and  C_20
REMARK                            x       y       z     vdW  Elec       q    Type
REMARK                         _______ _______ _______ _____ _____    ______ ____
ROOT
ATOM      1  N   UNL     1       3.143  -4.588   0.548  0.00  0.00    -0.244 N 
ATOM      2  C   UNL     1       3.652  -5.562   1.392  0.00  0.00    +0.169 A 
ATOM      3  C   UNL     1       4.370  -5.206   2.530  0.00  0.00    +0.207 A 
ATOM      4  C   UNL     1       4.859  -6.222   3.345  0.00  0.00    +0.159 A 
ATOM      5  N   UNL     1       4.625  -7.490   3.010  0.00  0.00    -0.218 NA
ATOM      6  C   UNL     1       3.941  -7.786   1.924  0.00  0.00    +0.225 A 
ATOM      7  N   UNL     1       3.456  -6.853   1.129  0.00  0.00    -0.217 NA
ATOM      8  H   UNL     1       3.290  -3.650   0.746  0.00  0.00    +0.169 HD
ENDROOT
BRANCH   3   9
ATOM      9  N   UNL     1       4.607  -3.784   2.864  0.00  0.00    +0.063 N 
ATOM     10  O   UNL     1       3.816  -3.185   3.555  0.00  0.00    -0.126 OA
ATOM     11  O   UNL     1       5.591  -3.221   2.446  0.00  0.00    -0.126 OA
ENDBRANCH   3   9
BRANCH   1  12
ATOM     12  N   UNL     1       2.417  -4.958  -0.592  0.00  0.00    -0.109 NA
ATOM     13  H   UNL     1       2.808  -5.564  -1.240  0.00  0.00    +0.172 HD
BRANCH  12  14
ATOM     14  S   UNL     1       0.891  -4.360  -0.832  0.00  0.00    +0.074 S 
ATOM     15  O   UNL     1       0.149  -4.657   0.343  0.00  0.00    -0.152 OA
ATOM     16  O   UNL     1       0.483  -4.795  -2.121  0.00  0.00    -0.152 OA
BRANCH  14  21
ATOM     17  C   UNL     1       1.351   1.650  -1.106  0.00  0.00    +0.044 C 
ATOM     18  C   UNL     1       1.236   0.149  -1.037  0.00  0.00    -0.050 A 
ATOM     19  C   UNL     1       1.345  -0.606  -2.190  0.00  0.00    +0.005 A 
ATOM     20  C   UNL     1       1.240  -1.982  -2.127  0.00  0.00    +0.029 A 
ATOM     21  C   UNL     1       1.026  -2.605  -0.912  0.00  0.00    +0.107 A 
ATOM     22  C   UNL     1       0.919  -1.850   0.241  0.00  0.00    +0.029 A 
ATOM     23  C   UNL     1       1.028  -0.473   0.179  0.00  0.00    +0.005 A 
ENDBRANCH  14  21
ENDBRANCH  12  14
ENDBRANCH   1  12
BRANCH   4  24
ATOM     24  N   UNL     1       5.581  -5.919   4.490  0.00  0.00    -0.297 N 
ATOM     25  H   UNL     1       5.669  -4.997   4.779  0.00  0.00    +0.154 HD
BRANCH  24  26
ATOM     26  C   UNL     1       6.180  -6.940   5.227  0.00  0.00    +0.040 A 
ATOM     27  C   UNL     1       6.560  -8.113   4.610  0.00  0.00    +0.024 A 
ATOM     28  C   UNL     1       7.158  -9.138   5.336  0.00  0.00    +0.002 A 
ATOM     29  C   UNL     1       7.386  -9.012   6.673  0.00  0.00    +0.008 A 
ATOM     30  C   UNL     1       7.014  -7.833   7.340  0.00  0.00    -0.016 A 
ATOM     31  C   UNL     1       6.409  -6.780   6.611  0.00  0.00    +0.003 A 
ATOM     32  C   UNL     1       6.042  -5.601   7.278  0.00  0.00    +0.010 A 
ATOM     33  C   UNL     1       6.278  -5.481   8.614  0.00  0.00    +0.001 A 
ATOM     34  C   UNL     1       6.878  -6.514   9.331  0.00  0.00    +0.001 A 
ATOM     35  C   UNL     1       7.237  -7.676   8.720  0.00  0.00    +0.008 A 
ENDBRANCH  24  26
ENDBRANCH   4  24
TORSDOF 6
