REMARK  Name = ZINC58849390
REMARK  10 active torsions:
REMARK  status: ('A' for Active; 'I' for Inactive)
REMARK    1  A    between atoms: C_1  and  O_2
REMARK    2  A    between atoms: O_2  and  C_3
REMARK    3  A    between atoms: C_6  and  O_37
REMARK    4  A    between atoms: C_7  and  N_9
REMARK    5  A    between atoms: N_9  and  S_10
REMARK    6  A    between atoms: S_10  and  C_13
REMARK    7  A    between atoms: C_26  and  C_29
REMARK    8  A    between atoms: C_34  and  O_35
REMARK    9  A    between atoms: O_35  and  C_36
REMARK   10  A    between atoms: O_37  and  C_38
REMARK                            x       y       z     vdW  Elec       q    Type
REMARK                         _______ _______ _______ _____ _____    ______ ____
ROOT
ATOM      1  C   UNL     1      -1.351  -4.644  -2.562  0.00  0.00    +0.109 A 
ATOM      2  C   UNL     1      -2.231  -3.619  -2.267  0.00  0.00    +0.030 A 
ATOM      3  C   UNL     1      -3.364  -3.445  -3.036  0.00  0.00    +0.025 A 
ATOM      4  C   UNL     1      -3.618  -4.297  -4.107  0.00  0.00    +0.031 A 
ATOM      5  C   UNL     1      -2.730  -5.316  -4.412  0.00  0.00    -0.018 A 
ATOM      6  C   UNL     1      -1.596  -5.483  -3.630  0.00  0.00    +0.034 A 
ATOM      7  C   UNL     1      -2.948  -6.224  -5.575  0.00  0.00    +0.049 C 
ATOM      8  C   UNL     1      -3.443  -7.582  -5.150  0.00  0.00    -0.023 C 
ATOM      9  C   UNL     1      -4.298  -8.047  -6.026  0.00  0.00    -0.030 C 
ATOM     10  C   UNL     1      -4.501  -7.064  -7.158  0.00  0.00    +0.033 C 
ATOM     11  C   UNL     1      -3.982  -5.726  -6.582  0.00  0.00    +0.029 C 
ATOM     12  C   UNL     1      -5.151  -5.000  -5.949  0.00  0.00    +0.108 C 
ATOM     13  N   UNL     1      -4.772  -4.122  -4.861  0.00  0.00    -0.336 N 
ATOM     14  H   UNL     1      -5.365  -3.389  -4.632  0.00  0.00    +0.147 HD
ENDROOT
BRANCH  12  15
ATOM     15  C   UNL     1      -6.139  -6.024  -5.453  0.00  0.00    +0.015 A 
ATOM     16  C   UNL     1      -7.215  -6.383  -6.241  0.00  0.00    +0.009 A 
ATOM     17  C   UNL     1      -8.123  -7.322  -5.787  0.00  0.00    +0.001 A 
ATOM     18  C   UNL     1      -7.955  -7.904  -4.543  0.00  0.00    +0.004 A 
ATOM     19  C   UNL     1      -6.880  -7.548  -3.752  0.00  0.00    +0.046 A 
ATOM     20  C   UNL     1      -5.965  -6.610  -4.208  0.00  0.00    +0.125 A 
BRANCH  20  21
ATOM     21  O   UNL     1      -4.904  -6.262  -3.434  0.00  0.00    -0.495 OA
ATOM     22  C   UNL     1      -4.789  -6.907  -2.163  0.00  0.00    +0.277 C 
ENDBRANCH  20  21
ENDBRANCH  12  15
BRANCH   1  23
ATOM     23  S   UNL     1       0.092  -4.873  -1.577  0.00  0.00    +0.072 S 
ATOM     24  O   UNL     1       0.475  -6.233  -1.729  0.00  0.00    -0.150 OA
ATOM     25  O   UNL     1      -0.187  -4.298  -0.308  0.00  0.00    -0.150 OA
BRANCH  23  26
ATOM     26  N   UNL     1       1.298  -3.963  -2.254  0.00  0.00    -0.213 N 
ATOM     27  H   UNL     1       2.109  -4.390  -2.570  0.00  0.00    +0.174 HD
BRANCH  26  32
ATOM     28  C   UNL     1       0.324  -0.493  -1.508  0.00  0.00    +0.122 A 
ATOM     29  C   UNL     1       0.848   0.170  -2.607  0.00  0.00    +0.049 A 
ATOM     30  C   UNL     1       1.520  -0.536  -3.588  0.00  0.00    +0.051 A 
ATOM     31  C   UNL     1       1.671  -1.908  -3.475  0.00  0.00    +0.143 A 
ATOM     32  C   UNL     1       1.146  -2.577  -2.371  0.00  0.00    +0.093 A 
ATOM     33  C   UNL     1       0.478  -1.865  -1.386  0.00  0.00    +0.073 A 
BRANCH  28  35
ATOM     34  C   UNL     1      -0.458   1.616  -0.735  0.00  0.00    +0.277 C 
ATOM     35  O   UNL     1      -0.337   0.205  -0.545  0.00  0.00    -0.495 OA
ENDBRANCH  28  35
BRANCH  31  36
ATOM     36  O   UNL     1       2.332  -2.602  -4.441  0.00  0.00    -0.493 OA
ATOM     37  C   UNL     1       2.843  -1.852  -5.544  0.00  0.00    +0.277 C 
ENDBRANCH  31  36
ENDBRANCH  26  32
ENDBRANCH  23  26
ENDBRANCH   1  23
TORSDOF 7
