REMARK  Name = ZINC39267144
REMARK  9 active torsions:
REMARK  status: ('A' for Active; 'I' for Inactive)
REMARK    1  A    between atoms: C_1  and  C_2
REMARK    2  A    between atoms: C_2  and  C_3
REMARK    3  A    between atoms: C_2  and  C_4
REMARK    4  A    between atoms: C_2  and  C_5
REMARK    5  A    between atoms: C_8  and  N_11
REMARK    6  A    between atoms: C_12  and  C_14
REMARK    7  A    between atoms: C_14  and  C_15
REMARK    8  A    between atoms: CA_20  and  CB_25
REMARK    9  A    between atoms: CB_25  and  CG_26
REMARK                            x       y       z     vdW  Elec       q    Type
REMARK                         _______ _______ _______ _____ _____    ______ ____
ROOT
ATOM      1  C   UNK A   2       5.701   0.742  -7.059  0.00  0.00    +0.168 C 
ATOM      2  C   UNK A   2       6.486   0.178  -8.204  0.00  0.00    +0.234 C 
ATOM      3  O   UNK A   2       7.297  -0.696  -7.980  0.00  0.00    -0.274 OA
ATOM      4  N   PHE A   1       6.329   0.598  -9.463  0.00  0.00    -0.302 N 
ATOM      5  CA  PHE A   1       5.382   1.640  -9.837  0.00  0.00    +0.163 C 
ATOM      6  C   PHE A   1       4.987   2.467  -8.651  0.00  0.00    +0.234 C 
ATOM      7  O   PHE A   1       4.510   3.566  -8.841  0.00  0.00    -0.274 OA
ATOM      8  N   UNK A   2       5.140   2.044  -7.393  0.00  0.00    -0.302 N 
ATOM      9  H   PHE A   1       6.870   0.192 -10.159  0.00  0.00    +0.150 HD
ATOM     10  H   UNK A   2       4.864   2.630  -6.671  0.00  0.00    +0.150 HD
ENDROOT
BRANCH   1  11
ATOM     11  C   UNK A   2       4.564  -0.219  -6.709  0.00  0.00    +0.127 C 
BRANCH  11  13
ATOM     12  N   UNK A   2       2.816  -0.427  -4.971  0.00  0.00    -0.312 N 
ATOM     13  C   UNK A   2       3.858   0.267  -5.469  0.00  0.00    +0.215 C 
ATOM     14  O   UNK A   2       4.229   1.282  -4.919  0.00  0.00    -0.276 OA
ATOM     15  H   UNK A   2       2.519  -1.239  -5.411  0.00  0.00    +0.149 HD
BRANCH  12  19
ATOM     16  C   UNK A   2       0.718  -0.497  -1.257  0.00  0.00    -0.005 C 
ATOM     17  C   UNK A   2      -0.022   0.009  -2.496  0.00  0.00    +0.006 C 
ATOM     18  C   UNK A   2       0.694  -0.484  -3.755  0.00  0.00    +0.022 C 
ATOM     19  C   UNK A   2       2.130   0.045  -3.766  0.00  0.00    +0.073 C 
ATOM     20  C   UNK A   2       2.870  -0.461  -2.526  0.00  0.00    +0.022 C 
ATOM     21  C   UNK A   2       2.154   0.032  -1.268  0.00  0.00    +0.006 C 
BRANCH  16  23
ATOM     22  C   UNK A   2      -0.019   1.526   0.010  0.00  0.00    +0.011 C 
ATOM     23  C   UNK A   2       0.002  -0.004   0.002  0.00  0.00    -0.035 C 
ATOM     24  C   UNK A   2       0.742  -0.511   1.242  0.00  0.00    +0.011 C 
ATOM     25  C   UNK A   2      -1.433  -0.534   0.013  0.00  0.00    +0.011 C 
ENDBRANCH  16  23
ENDBRANCH  12  19
ENDBRANCH  11  13
ENDBRANCH   1  11
BRANCH   5  26
ATOM     26  CB  PHE A   1       4.130   0.989 -10.431  0.00  0.00    +0.067 C 
BRANCH  26  27
ATOM     27  CG  PHE A   1       4.490   0.291 -11.717  0.00  0.00    -0.045 A 
ATOM     28  CD2 PHE A   1       4.427   0.977 -12.916  0.00  0.00    +0.004 A 
ATOM     29  CE2 PHE A   1       4.757   0.337 -14.096  0.00  0.00    +0.000 A 
ATOM     30  CZ  PHE A   1       5.149  -0.988 -14.077  0.00  0.00    +0.000 A 
ATOM     31  CE1 PHE A   1       5.212  -1.674 -12.879  0.00  0.00    +0.000 A 
ATOM     32  CD1 PHE A   1       4.887  -1.032 -11.698  0.00  0.00    +0.004 A 
ENDBRANCH  26  27
ENDBRANCH   5  26
TORSDOF 6
