REMARK  Name = ZINC12384429
REMARK  12 active torsions:
REMARK  status: ('A' for Active; 'I' for Inactive)
REMARK    1  A    between atoms: C_1  and  C_2
REMARK    2  A    between atoms: C_2  and  C_36
REMARK    3  A    between atoms: C_6  and  C_14
REMARK    4  A    between atoms: C_8  and  C_12
REMARK    5  A    between atoms: C_9  and  N_11
REMARK    6  A    between atoms: C_16  and  O_31
REMARK    7  A    between atoms: C_17  and  O_22
REMARK    8  A    between atoms: C_18  and  O_20
REMARK    9  A    between atoms: O_20  and  C_21
REMARK   10  A    between atoms: O_22  and  C_23
REMARK   11  A    between atoms: C_23  and  C_24
REMARK   12  A    between atoms: O_31  and  C_32
REMARK                            x       y       z     vdW  Elec       q    Type
REMARK                         _______ _______ _______ _____ _____    ______ ____
ROOT
ATOM      1  C   UNL     1       1.561  -2.654   1.360  0.00  0.00    -0.027 A 
ATOM      2  C   UNL     1       0.722  -2.348   2.415  0.00  0.00    +0.054 A 
ATOM      3  C   UNL     1       1.010  -2.812   3.690  0.00  0.00    +0.165 A 
ATOM      4  C   UNL     1       2.151  -3.575   3.909  0.00  0.00    +0.204 A 
ATOM      5  C   UNL     1       2.995  -3.875   2.847  0.00  0.00    +0.165 A 
ATOM      6  C   UNL     1       2.697  -3.413   1.574  0.00  0.00    +0.054 A 
ENDROOT
BRANCH   1  12
ATOM      7  C   UNL     1      -2.446  -4.249   0.908  0.00  0.00    +0.012 C 
ATOM      8  C   UNL     1      -2.586  -4.005  -0.596  0.00  0.00    -0.021 C 
ATOM      9  C   UNL     1      -2.530  -2.503  -0.880  0.00  0.00    +0.081 C 
ATOM     10  C   UNL     1      -1.198  -1.950  -0.428  0.00  0.00    +0.115 C 
ATOM     11  C   UNL     1      -0.091  -2.712  -0.463  0.00  0.00    +0.046 C 
ATOM     12  C   UNL     1       1.241  -2.154  -0.025  0.00  0.00    +0.101 C 
ATOM     13  C   UNL     1       1.193  -0.651  -0.013  0.00  0.00    +0.098 C 
ATOM     14  C   UNL     1       0.002  -0.004   0.002  0.00  0.00    +0.198 C 
ATOM     15  O   UNL     1      -1.159  -0.677   0.015  0.00  0.00    -0.445 OA
ATOM     16  C   UNL     1      -0.136  -4.049  -0.905  0.00  0.00    +0.164 C 
ATOM     17  O   UNL     1       0.888  -4.701  -0.939  0.00  0.00    -0.292 OA
ATOM     18  C   UNL     1      -1.430  -4.683  -1.338  0.00  0.00    +0.086 C 
ATOM     19  C   UNL     1      -3.920  -4.571  -1.086  0.00  0.00    +0.012 C 
BRANCH  14  20
ATOM     20  N   UNL     1      -0.017   1.369   0.010  0.00  0.00    -0.328 N 
ATOM     21  H   UNL     1       0.817   1.865   0.004  0.00  0.00    +0.145 HD
ATOM     22  H   UNL     1      -0.863   1.842   0.016  0.00  0.00    +0.145 HD
ENDBRANCH  14  20
BRANCH  13  23
ATOM     23  C   UNL     1       2.411   0.100  -0.017  0.00  0.00    +0.101 C 
ATOM     24  N   UNL     1       3.378   0.697  -0.020  0.00  0.00    -0.191 NA
ENDBRANCH  13  23
ENDBRANCH   1  12
BRANCH   5  25
ATOM     25  O   UNL     1       4.112  -4.622   3.055  0.00  0.00    -0.491 OA
ATOM     26  C   UNL     1       4.934  -4.892   1.918  0.00  0.00    +0.277 C 
ENDBRANCH   5  25
BRANCH   3  27
ATOM     27  O   UNL     1       0.180  -2.515   4.726  0.00  0.00    -0.491 OA
ATOM     28  C   UNL     1      -0.974  -1.726   4.427  0.00  0.00    +0.277 C 
ENDBRANCH   3  27
BRANCH   4  29
ATOM     29  O   UNL     1       2.440  -4.026   5.160  0.00  0.00    -0.480 OA
BRANCH  29  30
ATOM     30  C   UNL     1       3.243  -3.180   5.985  0.00  0.00    +0.265 C 
BRANCH  30  31
ATOM     31  C   UNL     1       3.458  -3.840   7.322  0.00  0.00    -0.010 A 
ATOM     32  C   UNL     1       2.571  -3.608   8.357  0.00  0.00    +0.010 A 
ATOM     33  C   UNL     1       2.764  -4.216   9.583  0.00  0.00    +0.039 A 
ATOM     34  C   UNL     1       3.853  -5.050   9.777  0.00  0.00    +0.123 A 
ATOM     35  C   UNL     1       4.743  -5.277   8.742  0.00  0.00    +0.039 A 
ATOM     36  C   UNL     1       4.545  -4.671   7.516  0.00  0.00    +0.010 A 
ATOM     37  F   UNL     1       4.045  -5.641  10.977  0.00  0.00    -0.205 F 
ENDBRANCH  30  31
ENDBRANCH  29  30
ENDBRANCH   4  29
TORSDOF 8
