REMARK  Name = ZINC34786559
REMARK  5 active torsions:
REMARK  status: ('A' for Active; 'I' for Inactive)
REMARK    1  A    between atoms: C_1  and  C_2
REMARK    2  A    between atoms: C_4  and  C_38
REMARK    3  A    between atoms: N_20  and  N_21
REMARK    4  A    between atoms: N_20  and  N_32
REMARK    5  A    between atoms: N_21  and  C_22
REMARK                            x       y       z     vdW  Elec       q    Type
REMARK                         _______ _______ _______ _____ _____    ______ ____
ROOT
ATOM      1  C   UNL     1       5.124  -2.094  -0.036  0.00  0.00    +0.067 C 
ATOM      2  C   UNL     1       3.752  -2.718  -0.030  0.00  0.00    +0.061 A 
ATOM      3  C   UNL     1       3.042  -3.148  -1.158  0.00  0.00    +0.048 A 
ATOM      4  C   UNL     1       1.858  -3.649  -0.740  0.00  0.00    +0.045 A 
ATOM      5  N   UNL     1       1.820  -3.539   0.615  0.00  0.00    -0.202 N 
ATOM      6  N   UNL     1       3.024  -2.956   1.030  0.00  0.00    -0.169 NA
ATOM      7  C   UNL     1       0.771  -3.939   1.443  0.00  0.00    +0.254 A 
ATOM      8  N   UNL     1       0.874  -3.763   2.753  0.00  0.00    -0.192 NA
ATOM      9  C   UNL     1      -0.086  -4.122   3.589  0.00  0.00    +0.167 A 
ATOM     10  C   UNL     1      -1.270  -4.717   3.071  0.00  0.00    +0.054 A 
ATOM     11  C   UNL     1      -2.450  -5.190   3.799  0.00  0.00    -0.025 A 
ATOM     12  C   UNL     1      -3.448  -5.721   3.064  0.00  0.00    -0.004 A 
ATOM     13  S   UNL     1      -2.889  -5.626   1.385  0.00  0.00    -0.073 S 
ATOM     14  C   UNL     1      -1.310  -4.872   1.671  0.00  0.00    +0.116 A 
ATOM     15  N   UNL     1      -0.310  -4.482   0.905  0.00  0.00    -0.203 NA
ATOM     16  C   UNL     1      -4.748  -6.273   3.565  0.00  0.00    +0.043 C 
ATOM     17  C   UNL     1      -4.632  -6.490   5.081  0.00  0.00    +0.005 C 
ATOM     18  C   UNL     1      -4.035  -5.228   5.712  0.00  0.00    +0.005 C 
ATOM     19  C   UNL     1      -2.564  -5.096   5.318  0.00  0.00    +0.037 C 
ATOM     20  N   UNL     1       0.060  -3.921   4.950  0.00  0.00    -0.164 N 
ATOM     21  C   UNL     1       0.776  -4.224  -1.616  0.00  0.00    +0.066 C 
ENDROOT
BRANCH  20  22
ATOM     22  N   UNL     1       0.274  -2.663   5.436  0.00  0.00    -0.208 NA
ATOM     23  C   UNL     1      -0.788  -2.273   6.372  0.00  0.00    +0.107 C 
ATOM     24  C   UNL     1      -0.596  -0.811   6.783  0.00  0.00    +0.017 C 
ATOM     25  C   UNL     1       0.777  -0.646   7.441  0.00  0.00    +0.003 C 
ATOM     26  C   UNL     1       1.861  -1.105   6.462  0.00  0.00    +0.017 C 
ATOM     27  C   UNL     1       1.599  -2.558   6.061  0.00  0.00    +0.107 C 
ENDBRANCH  20  22
BRANCH  20  28
ATOM     28  N   UNL     1      -0.012  -5.009   5.830  0.00  0.00    -0.248 N 
ATOM     29  H   UNL     1      -0.781  -5.112   6.412  0.00  0.00    +0.172 HD
BRANCH  28  30
ATOM     30  C   UNL     1       1.021  -5.943   5.869  0.00  0.00    +0.054 A 
ATOM     31  C   UNL     1       2.079  -5.847   4.990  0.00  0.00    +0.025 A 
ATOM     32  C   UNL     1       3.116  -6.775   5.021  0.00  0.00    +0.002 A 
ATOM     33  C   UNL     1       3.115  -7.801   5.916  0.00  0.00    +0.008 A 
ATOM     34  C   UNL     1       2.055  -7.935   6.829  0.00  0.00    -0.016 A 
ATOM     35  C   UNL     1       0.996  -6.994   6.811  0.00  0.00    +0.004 A 
ATOM     36  C   UNL     1      -0.060  -7.126   7.726  0.00  0.00    +0.010 A 
ATOM     37  C   UNL     1      -0.051  -8.152   8.621  0.00  0.00    +0.001 A 
ATOM     38  C   UNL     1       0.993  -9.075   8.644  0.00  0.00    +0.001 A 
ATOM     39  C   UNL     1       2.027  -8.985   7.763  0.00  0.00    +0.008 A 
ENDBRANCH  28  30
ENDBRANCH  20  28
TORSDOF 3
