REMARK  Name = ZINC38571534
REMARK  4 active torsions:
REMARK  status: ('A' for Active; 'I' for Inactive)
REMARK    1  A    between atoms: C_1  and  C_2
REMARK    2  A    between atoms: C_2  and  C_3
REMARK    3  A    between atoms: C_2  and  C_4
REMARK    4  A    between atoms: C_7  and  C_10
REMARK                            x       y       z     vdW  Elec       q    Type
REMARK                         _______ _______ _______ _____ _____    ______ ____
ROOT
ATOM      1  C   UNL     1      -5.419  -2.005   0.043  0.00  0.00    +0.074 C 
ATOM      2  C   UNL     1      -5.403  -3.540   0.028  0.00  0.00    +0.152 C 
ATOM      3  C   UNL     1      -5.087  -4.012  -1.369  0.00  0.00    +0.116 C 
ATOM      4  N   UNL     1      -4.062  -4.772  -1.623  0.00  0.00    -0.205 NA
ATOM      5  C   UNL     1      -3.214  -5.171  -0.667  0.00  0.00    +0.206 C 
ATOM      6  N   UNL     1      -3.365  -4.810   0.598  0.00  0.00    -0.147 NA
ATOM      7  C   UNL     1      -4.364  -4.043   0.989  0.00  0.00    +0.250 C 
ATOM      8  O   UNL     1      -4.445  -3.737   2.163  0.00  0.00    -0.273 OA
ATOM      9  N   UNL     1      -2.162  -5.977  -1.008  0.00  0.00    -0.329 N 
ATOM     10  N   UNL     1      -5.918  -3.606  -2.386  0.00  0.00    -0.301 N 
ATOM     11  C   UNL     1      -6.359  -2.295  -2.299  0.00  0.00    +0.048 C 
ATOM     12  C   UNL     1      -6.150  -1.522  -1.188  0.00  0.00    +0.030 C 
ATOM     13  C   UNL     1      -6.716  -0.239  -1.389  0.00  0.00    +0.192 C 
ATOM     14  O   UNL     1      -6.708   0.683  -0.597  0.00  0.00    -0.287 OA
ATOM     15  C   UNL     1      -7.319  -0.225  -2.740  0.00  0.00    +0.031 A 
ATOM     16  C   UNL     1      -7.091  -1.510  -3.300  0.00  0.00    +0.007 A 
ATOM     17  C   UNL     1      -7.538  -1.822  -4.574  0.00  0.00    +0.010 A 
ATOM     18  C   UNL     1      -8.215  -0.818  -5.272  0.00  0.00    +0.001 A 
ATOM     19  C   UNL     1      -8.433   0.425  -4.728  0.00  0.00    +0.001 A 
ATOM     20  C   UNL     1      -7.991   0.757  -3.439  0.00  0.00    +0.012 A 
ATOM     21  H   UNL     1      -2.039  -6.250  -1.930  0.00  0.00    +0.145 HD
ATOM     22  H   UNL     1      -1.539  -6.274  -0.327  0.00  0.00    +0.145 HD
ATOM     23  H   UNL     1      -6.176  -4.195  -3.112  0.00  0.00    +0.153 HD
ENDROOT
BRANCH   1  27
ATOM     24  C   UNL     1      -1.412  -0.526   0.013  0.00  0.00    -0.045 A 
ATOM     25  C   UNL     1      -2.259  -0.204   1.056  0.00  0.00    +0.004 A 
ATOM     26  C   UNL     1      -3.556  -0.683   1.066  0.00  0.00    +0.004 A 
ATOM     27  C   UNL     1      -4.006  -1.482   0.032  0.00  0.00    -0.039 A 
ATOM     28  C   UNL     1      -3.159  -1.803  -1.012  0.00  0.00    +0.004 A 
ATOM     29  C   UNL     1      -1.863  -1.321  -1.024  0.00  0.00    +0.004 A 
BRANCH  24  31
ATOM     30  C   UNL     1      -0.019   1.526   0.010  0.00  0.00    +0.012 C 
ATOM     31  C   UNL     1       0.002  -0.004   0.002  0.00  0.00    +0.013 C 
ATOM     32  C   UNL     1       0.742  -0.511   1.242  0.00  0.00    +0.012 C 
ENDBRANCH  24  31
ENDBRANCH   1  27
TORSDOF 2
