REMARK  Name = ZINC23004256
REMARK  6 active torsions:
REMARK  status: ('A' for Active; 'I' for Inactive)
REMARK    1  A    between atoms: C_3  and  C_6
REMARK    2  A    between atoms: C_8  and  C_11
REMARK    3  A    between atoms: C_11  and  N_12
REMARK    4  A    between atoms: N_12  and  C_13
REMARK    5  A    between atoms: C_16  and  N_22
REMARK    6  A    between atoms: C_18  and  C_19
REMARK                            x       y       z     vdW  Elec       q    Type
REMARK                         _______ _______ _______ _____ _____    ______ ____
ROOT
ATOM      1  C   UNL     1      -1.225   1.646   0.003  0.00  0.00    +0.040 A 
ATOM      2  C   UNL     1      -1.248   3.031   0.116  0.00  0.00    +0.025 A 
ATOM      3  C   UNL     1      -2.452   3.704   0.138  0.00  0.00    +0.025 A 
ATOM      4  C   UNL     1      -3.651   3.003   0.050  0.00  0.00    +0.031 A 
ATOM      5  C   UNL     1      -3.645   1.625  -0.062  0.00  0.00    +0.038 A 
ATOM      6  C   UNL     1      -2.430   0.934  -0.093  0.00  0.00    +0.059 A 
ENDROOT
BRANCH   4   7
ATOM      7  N   UNL     1      -4.867   3.696   0.074  0.00  0.00    -0.330 N 
ATOM      8  C   UNL     1      -5.676   3.382  -1.110  0.00  0.00    +0.105 C 
ATOM      9  C   UNL     1      -7.052   4.040  -0.979  0.00  0.00    +0.019 C 
ATOM     10  C   UNL     1      -6.878   5.555  -0.845  0.00  0.00    +0.003 C 
ATOM     11  C   UNL     1      -5.992   5.853   0.368  0.00  0.00    +0.019 C 
ATOM     12  C   UNL     1      -4.647   5.143   0.198  0.00  0.00    +0.105 C 
ENDBRANCH   4   7
BRANCH   6  13
ATOM     13  C   UNL     1      -2.415  -0.534  -0.219  0.00  0.00    +0.243 C 
ATOM     14  O   UNL     1      -1.364  -1.141  -0.137  0.00  0.00    -0.270 OA
ATOM     15  N   UNL     1      -3.566  -1.205  -0.425  0.00  0.00    -0.325 N 
ATOM     16  H   UNL     1      -3.554  -2.301  -0.520  0.00  0.00    +0.145 HD
ATOM     17  H   UNL     1      -4.516  -0.656  -0.499  0.00  0.00    +0.145 HD
ENDBRANCH   6  13
BRANCH   1  18
ATOM     18  N   UNL     1      -0.010   0.968  -0.020  0.00  0.00    -0.335 N 
ATOM     19  H   UNL     1       0.006  -0.132  -0.018  0.00  0.00    +0.147 HD
BRANCH  18  20
ATOM     20  C   UNL     1       1.248   1.719  -0.047  0.00  0.00    +0.200 C 
BRANCH  20  23
ATOM     21  C   UNL     1       3.965  -0.546  -0.685  0.00  0.00    +0.237 A 
ATOM     22  N   UNL     1       2.977   0.259  -1.143  0.00  0.00    -0.187 NA
ATOM     23  C   UNL     1       2.407   0.757  -0.075  0.00  0.00    +0.245 A 
ATOM     24  O   UNL     1       3.041   0.247   0.986  0.00  0.00    -0.336 OA
ATOM     25  N   UNL     1       3.929  -0.495   0.623  0.00  0.00    -0.053 NA
BRANCH  21  28
ATOM     26  C   UNL     1       6.532  -2.701  -2.161  0.00  0.00    +0.042 A 
ATOM     27  C   UNL     1       5.889  -2.148  -1.036  0.00  0.00    +0.053 A 
ATOM     28  C   UNL     1       4.903  -1.338  -1.507  0.00  0.00    +0.175 A 
ATOM     29  O   UNL     1       4.927  -1.388  -2.853  0.00  0.00    -0.460 OA
ATOM     30  C   UNL     1       5.913  -2.207  -3.252  0.00  0.00    +0.196 A 
ENDBRANCH  21  28
ENDBRANCH  20  23
ENDBRANCH  18  20
ENDBRANCH   1  18
TORSDOF 6
