REMARK  Name = ZINC37606736
REMARK  4 active torsions:
REMARK  status: ('A' for Active; 'I' for Inactive)
REMARK    1  A    between atoms: C_1  and  C_2
REMARK    2  A    between atoms: C_2  and  C_3
REMARK    3  A    between atoms: C_2  and  N_4
REMARK    4  A    between atoms: N_10  and  C_13
REMARK                            x       y       z     vdW  Elec       q    Type
REMARK                         _______ _______ _______ _____ _____    ______ ____
ROOT
ATOM      1  N   UNL     1       0.833  -0.425  -1.139  0.00  0.00    -0.283 N 
ATOM      2  C   UNL     1       1.942  -1.294  -0.833  0.00  0.00    +0.110 C 
ATOM      3  C   UNL     1       2.125  -2.416  -1.824  0.00  0.00    +0.028 C 
ATOM      4  C   UNL     1       2.694  -1.954  -3.143  0.00  0.00    +0.098 C 
ATOM      5  C   UNL     1       1.721  -1.193  -3.970  0.00  0.00    +0.223 C 
ATOM      6  O   UNL     1       1.785  -1.355  -5.169  0.00  0.00    -0.275 OA
ATOM      7  N   UNL     1       0.796  -0.361  -3.536  0.00  0.00    -0.223 N 
ATOM      8  C   UNL     1       0.412  -0.042  -2.325  0.00  0.00    +0.312 C 
ATOM      9  O   UNL     1      -0.497   0.763  -2.292  0.00  0.00    -0.252 OA
ENDROOT
BRANCH   7  10
ATOM     10  C   UNL     1       0.060   0.326  -4.600  0.00  0.00    +0.086 C 
ATOM     11  C   UNL     1       1.044   1.089  -5.489  0.00  0.00    +0.023 C 
ATOM     12  C   UNL     1       0.276   1.807  -6.601  0.00  0.00    +0.002 C 
ATOM     13  C   UNL     1      -0.483   0.779  -7.443  0.00  0.00    +0.000 C 
ATOM     14  C   UNL     1      -1.466   0.017  -6.553  0.00  0.00    +0.002 C 
ATOM     15  C   UNL     1      -0.698  -0.702  -5.442  0.00  0.00    +0.023 C 
ENDBRANCH   7  10
BRANCH   1  17
ATOM     16  C   UNL     1      -0.574  -1.078   0.752  0.00  0.00    +0.028 C 
ATOM     17  C   UNL     1       0.079   0.088   0.008  0.00  0.00    +0.071 C 
ATOM     18  C   UNL     1       1.030   0.827   0.953  0.00  0.00    +0.028 C 
ENDBRANCH   1  17
TORSDOF 2
