REMARK  Name = ZINC36648960
REMARK  13 active torsions:
REMARK  status: ('A' for Active; 'I' for Inactive)
REMARK    1  A    between atoms: C_1  and  C_2
REMARK    2  A    between atoms: C_2  and  N_3
REMARK    3  A    between atoms: N_3  and  C_4
REMARK    4  A    between atoms: N_3  and  C_6
REMARK    5  A    between atoms: C_4  and  C_5
REMARK    6  A    between atoms: C_6  and  C_7
REMARK    7  A    between atoms: C_7  and  N_8
REMARK    8  A    between atoms: N_17  and  C_18
REMARK    9  A    between atoms: C_18  and  C_20
REMARK   10  A    between atoms: C_20  and  N_21
REMARK   11  A    between atoms: C_26  and  C_33
REMARK   12  A    between atoms: C_29  and  C_31
REMARK   13  A    between atoms: C_29  and  C_32
REMARK                            x       y       z     vdW  Elec       q    Type
REMARK                         _______ _______ _______ _____ _____    ______ ____
ROOT
ATOM      1  N   UNL     1       1.767  -3.945  -0.401  0.00  0.00    -0.314 N 
ATOM      2  C   UNL     1       2.879  -4.583   0.138  0.00  0.00    +0.068 A 
ATOM      3  C   UNL     1       3.949  -4.138   0.902  0.00  0.00    +0.028 A 
ATOM      4  C   UNL     1       4.927  -5.028   1.300  0.00  0.00    +0.002 A 
ATOM      5  C   UNL     1       4.845  -6.362   0.939  0.00  0.00    +0.002 A 
ATOM      6  C   UNL     1       3.785  -6.815   0.180  0.00  0.00    +0.028 A 
ATOM      7  C   UNL     1       2.796  -5.929  -0.225  0.00  0.00    +0.066 A 
ATOM      8  N   UNL     1       1.636  -6.080  -0.977  0.00  0.00    -0.326 N 
ATOM      9  C   UNL     1       1.026  -4.869  -1.066  0.00  0.00    +0.201 A 
ATOM     10  N   UNL     1      -0.115  -4.627  -1.707  0.00  0.00    -0.145 NA
ATOM     11  H   UNL     1       1.316  -6.908  -1.367  0.00  0.00    +0.169 HD
ENDROOT
BRANCH  10  12
ATOM     12  C   UNL     1      -0.816  -5.633  -2.221  0.00  0.00    +0.257 C 
ATOM     13  O   UNL     1      -0.464  -6.780  -2.027  0.00  0.00    -0.272 OA
BRANCH  12  14
ATOM     14  C   UNL     1      -2.046  -5.351  -3.044  0.00  0.00    +0.215 C 
BRANCH  14  15
ATOM     15  N   UNL     1      -2.635  -6.616  -3.491  0.00  0.00    -0.215 N 
ATOM     16  C   UNL     1      -2.310  -7.237  -4.644  0.00  0.00    +0.247 C 
ATOM     17  O   UNL     1      -1.507  -6.870  -5.474  0.00  0.00    -0.273 OA
ATOM     18  C   UNL     1      -3.158  -8.488  -4.681  0.00  0.00    +0.113 C 
ATOM     19  C   UNL     1      -2.273  -9.730  -4.700  0.00  0.00    +0.038 C 
ATOM     20  C   UNL     1      -3.150 -10.984  -4.707  0.00  0.00    -0.011 C 
ATOM     21  C   UNL     1      -4.057 -10.964  -5.939  0.00  0.00    +0.009 C 
ATOM     22  C   UNL     1      -4.954  -9.726  -5.894  0.00  0.00    -0.032 C 
ATOM     23  C   UNL     1      -4.084  -8.466  -5.892  0.00  0.00    +0.041 C 
ATOM     24  C   UNL     1      -5.806  -9.759  -4.623  0.00  0.00    +0.011 C 
ATOM     25  C   UNL     1      -5.868  -9.712  -7.121  0.00  0.00    +0.011 C 
ATOM     26  C   UNL     1      -2.261 -12.228  -4.748  0.00  0.00    +0.007 C 
ATOM     27  N   UNL     1      -3.935  -8.429  -3.437  0.00  0.00    -0.285 N 
ATOM     28  C   UNL     1      -3.557  -7.301  -2.805  0.00  0.00    +0.310 C 
ATOM     29  O   UNL     1      -4.006  -6.944  -1.733  0.00  0.00    -0.252 OA
ATOM     30  H   UNL     1      -4.589  -9.076  -3.129  0.00  0.00    +0.151 HD
ENDBRANCH  14  15
ENDBRANCH  12  14
ENDBRANCH  10  12
BRANCH   1  31
ATOM     31  C   UNL     1       1.446  -2.521  -0.269  0.00  0.00    +0.106 C 
BRANCH  31  32
ATOM     32  C   UNL     1       0.597  -2.304   0.985  0.00  0.00    -0.057 C 
BRANCH  32  33
ATOM     33  N   UNL     1       0.275  -0.876   1.117  0.00  0.00    +0.380 N 
ATOM     34  H   UNL     1       1.128  -0.338   1.111  0.00  0.00    -0.082 HD
BRANCH  33  36
ATOM     35  C   UNL     1      -0.795   1.053   0.055  0.00  0.00    -0.017 C 
ATOM     36  C   UNL     1      -0.575  -0.460  -0.006  0.00  0.00    -0.082 C 
ENDBRANCH  33  36
BRANCH  33  37
ATOM     37  C   UNL     1      -0.438  -0.650   2.381  0.00  0.00    -0.082 C 
ATOM     38  C   UNL     1       0.497  -0.950   3.555  0.00  0.00    -0.017 C 
ENDBRANCH  33  37
ENDBRANCH  32  33
ENDBRANCH  31  32
ENDBRANCH   1  31
TORSDOF 8
