REMARK  Name = ZINC04086546
REMARK  4 active torsions:
REMARK  status: ('A' for Active; 'I' for Inactive)
REMARK    1  A    between atoms: C_5  and  C_7
REMARK    2  A    between atoms: C_12  and  C_22
REMARK    3  A    between atoms: C_25  and  O_28
REMARK    4  A    between atoms: O_28  and  C_29
REMARK                            x       y       z     vdW  Elec       q    Type
REMARK                         _______ _______ _______ _____ _____    ______ ____
ROOT
ATOM      1  C   UNL     1      -2.476   1.421   0.547  0.00  0.00    +0.033 C 
ATOM      2  C   UNL     1      -3.163   1.958  -0.708  0.00  0.00    +0.059 C 
ATOM      3  C   UNL     1      -4.500   1.260  -0.903  0.00  0.00    +0.017 C 
ATOM      4  C   UNL     1      -5.225   0.877   0.160  0.00  0.00    +0.036 C 
ATOM      5  C   UNL     1      -6.585   0.219   0.115  0.00  0.00    +0.136 C 
ATOM      6  N   UNL     1      -6.984  -0.232  -1.201  0.00  0.00    -0.331 N 
ATOM      7  C   UNL     1      -7.193   0.673  -2.239  0.00  0.00    +0.049 A 
ATOM      8  C   UNL     1      -8.453   0.865  -2.784  0.00  0.00    +0.025 A 
ATOM      9  C   UNL     1      -8.627   1.808  -3.782  0.00  0.00    +0.002 A 
ATOM     10  C   UNL     1      -7.556   2.558  -4.232  0.00  0.00    +0.002 A 
ATOM     11  C   UNL     1      -6.292   2.357  -3.702  0.00  0.00    +0.025 A 
ATOM     12  C   UNL     1      -6.114   1.398  -2.721  0.00  0.00    +0.052 A 
ATOM     13  N   UNL     1      -4.861   1.090  -2.200  0.00  0.00    -0.316 N 
ATOM     14  C   UNL     1      -4.734   1.083   1.471  0.00  0.00    +0.163 C 
ATOM     15  O   UNL     1      -5.423   0.743   2.413  0.00  0.00    -0.292 OA
ATOM     16  C   UNL     1      -3.397   1.705   1.740  0.00  0.00    +0.088 C 
ATOM     17  H   UNL     1      -7.107  -1.180  -1.364  0.00  0.00    +0.147 HD
ATOM     18  H   UNL     1      -4.197   0.728  -2.808  0.00  0.00    +0.152 HD
ENDROOT
BRANCH   1  23
ATOM     19  C   UNL     1       0.098   4.133   1.072  0.00  0.00    +0.000 A 
ATOM     20  C   UNL     1       1.270   3.400   1.102  0.00  0.00    +0.001 A 
ATOM     21  C   UNL     1       1.230   2.026   0.955  0.00  0.00    +0.020 A 
ATOM     22  C   UNL     1       0.016   1.385   0.779  0.00  0.00    +0.044 A 
ATOM     23  C   UNL     1      -1.155   2.119   0.745  0.00  0.00    -0.025 A 
ATOM     24  C   UNL     1      -1.115   3.492   0.897  0.00  0.00    +0.005 A 
ATOM     25 CL   UNL     1      -0.035  -0.341   0.595  0.00  0.00    -0.083 Cl
ENDBRANCH   1  23
BRANCH   5  26
ATOM     26  C   UNL     1      -7.610   1.205   0.612  0.00  0.00    -0.023 A 
ATOM     27  C   UNL     1      -8.330   0.933   1.760  0.00  0.00    +0.009 A 
ATOM     28  C   UNL     1      -9.267   1.837   2.220  0.00  0.00    +0.046 A 
ATOM     29  C   UNL     1      -9.493   3.015   1.523  0.00  0.00    +0.130 A 
ATOM     30  C   UNL     1      -8.774   3.284   0.368  0.00  0.00    +0.046 A 
ATOM     31  C   UNL     1      -7.834   2.378  -0.085  0.00  0.00    +0.009 A 
BRANCH  29  32
ATOM     32  O   UNL     1     -10.418   3.905   1.971  0.00  0.00    -0.406 OA
BRANCH  32  33
ATOM     33  C   UNL     1     -11.121   3.562   3.167  0.00  0.00    +0.575 C 
ATOM     34  F   UNL     1     -10.209   3.408   4.216  0.00  0.00    -0.133 F 
ATOM     35  F   UNL     1     -12.028   4.580   3.483  0.00  0.00    -0.133 F 
ATOM     36  F   UNL     1     -11.816   2.363   2.973  0.00  0.00    -0.133 F 
ENDBRANCH  32  33
ENDBRANCH  29  32
ENDBRANCH   5  26
TORSDOF 4
