REMARK  Name = ZINC13857215
REMARK  5 active torsions:
REMARK  status: ('A' for Active; 'I' for Inactive)
REMARK    1  A    between atoms: C_4  and  C_7
REMARK    2  A    between atoms: N_21  and  C_24
REMARK    3  A    between atoms: C_24  and  C_25
REMARK    4  A    between atoms: N_27  and  C_28
REMARK    5  A    between atoms: C_32  and  N_34
REMARK                            x       y       z     vdW  Elec       q    Type
REMARK                         _______ _______ _______ _____ _____    ______ ____
ROOT
ATOM      1  C   UNL     1      -1.578   5.856   1.255  0.00  0.00    +0.023 C 
ATOM      2  C   UNL     1      -0.154   6.375   0.952  0.00  0.00    +0.012 C 
ATOM      3  C   UNL     1       0.775   5.149   1.210  0.00  0.00    +0.002 C 
ATOM      4  C   UNL     1       0.014   4.451   2.391  0.00  0.00    +0.009 C 
ATOM      5  C   UNL     1      -1.376   4.366   1.667  0.00  0.00    +0.009 C 
ATOM      6  C   UNL     1      -0.972   3.645   0.346  0.00  0.00    +0.091 C 
ATOM      7  C   UNL     1       0.461   4.168   0.041  0.00  0.00    +0.091 C 
ATOM      8  C   UNL     1       1.323   2.937   0.206  0.00  0.00    +0.226 C 
ATOM      9  O   UNL     1       2.525   2.899   0.058  0.00  0.00    -0.275 OA
ATOM     10  N   UNL     1       0.552   1.896   0.543  0.00  0.00    -0.233 N 
ATOM     11  C   UNL     1      -0.751   2.179   0.643  0.00  0.00    +0.226 C 
ATOM     12  O   UNL     1      -1.620   1.385   0.931  0.00  0.00    -0.275 OA
ENDROOT
BRANCH   1  16
ATOM     13  C   UNL     1      -3.325   8.065   4.468  0.00  0.00    +0.000 A 
ATOM     14  C   UNL     1      -4.101   7.683   3.389  0.00  0.00    +0.000 A 
ATOM     15  C   UNL     1      -3.535   6.969   2.349  0.00  0.00    +0.004 A 
ATOM     16  C   UNL     1      -2.194   6.635   2.388  0.00  0.00    -0.044 A 
ATOM     17  C   UNL     1      -1.420   7.012   3.469  0.00  0.00    +0.004 A 
ATOM     18  C   UNL     1      -1.984   7.731   4.507  0.00  0.00    +0.000 A 
ENDBRANCH   1  16
BRANCH  10  19
ATOM     19  C   UNL     1       1.092   0.554   0.776  0.00  0.00    +0.212 C 
BRANCH  19  20
ATOM     20  C   UNL     1       1.456   0.405   2.231  0.00  0.00    +0.235 C 
ATOM     21  O   UNL     1       1.282   1.329   2.998  0.00  0.00    -0.274 OA
ATOM     22  N   UNL     1       1.974  -0.755   2.680  0.00  0.00    -0.284 N 
ATOM     23  H   UNL     1       2.050  -1.516   2.084  0.00  0.00    +0.155 HD
BRANCH  22  24
ATOM     24  C   UNL     1       2.404  -0.861   4.008  0.00  0.00    +0.036 A 
ATOM     25  C   UNL     1       2.951   0.240   4.653  0.00  0.00    +0.023 A 
ATOM     26  C   UNL     1       3.370   0.133   5.964  0.00  0.00    +0.004 A 
ATOM     27  C   UNL     1       3.255  -1.072   6.632  0.00  0.00    +0.033 A 
ATOM     28  C   UNL     1       2.715  -2.172   5.992  0.00  0.00    +0.128 A 
ATOM     29  C   UNL     1       2.290  -2.070   4.681  0.00  0.00    +0.056 A 
BRANCH  28  30
ATOM     30  N   UNL     1       2.594  -3.461   6.710  0.00  0.00    +0.056 N 
ATOM     31  O   UNL     1       2.119  -4.430   6.146  0.00  0.00    -0.126 OA
ATOM     32  O   UNL     1       2.969  -3.551   7.865  0.00  0.00    -0.126 OA
ENDBRANCH  28  30
ENDBRANCH  22  24
ENDBRANCH  19  20
ENDBRANCH  10  19
TORSDOF 5
