REMARK  Name = ZINC41393923
REMARK  4 active torsions:
REMARK  status: ('A' for Active; 'I' for Inactive)
REMARK    1  A    between atoms: C_1  and  N_2
REMARK    2  A    between atoms: N_12  and  C_13
REMARK    3  A    between atoms: N_16  and  C_18
REMARK    4  A    between atoms: C_18  and  C_19
REMARK                            x       y       z     vdW  Elec       q    Type
REMARK                         _______ _______ _______ _____ _____    ______ ____
ROOT
ATOM      1  C   UNL     1      -0.018   1.461   0.010  0.00  0.00    +0.155 C 
ATOM      2  N   UNL     1       0.002  -0.004   0.002  0.00  0.00    -0.283 N 
ATOM      3  C   UNL     1       0.005  -0.657  -1.174  0.00  0.00    +0.264 A 
ATOM      4  O   UNL     1      -0.008  -0.039  -2.225  0.00  0.00    -0.267 OA
ATOM      5  C   UNL     1       0.025  -2.088  -1.175  0.00  0.00    +0.076 A 
ATOM      6  C   UNL     1       0.030  -2.995  -2.324  0.00  0.00    -0.023 A 
ATOM      7  C   UNL     1       0.050  -4.318  -2.061  0.00  0.00    -0.004 A 
ATOM      8  S   UNL     1       0.063  -4.434  -0.292  0.00  0.00    -0.073 S 
ATOM      9  C   UNL     1       0.040  -2.700   0.089  0.00  0.00    +0.117 A 
ATOM     10  N   UNL     1       0.036  -1.996   1.215  0.00  0.00    -0.208 NA
ATOM     11  C   UNL     1       0.022  -0.679   1.187  0.00  0.00    +0.203 A 
ATOM     12  N   UNL     1       0.024   0.023   2.367  0.00  0.00    -0.282 N 
ATOM     13  C   UNL     1       0.059  -5.441  -3.052  0.00  0.00    +0.043 C 
ATOM     14  C   UNL     1      -0.334  -4.878  -4.425  0.00  0.00    +0.005 C 
ATOM     15  C   UNL     1       0.485  -3.611  -4.689  0.00  0.00    +0.005 C 
ATOM     16  C   UNL     1       0.014  -2.488  -3.764  0.00  0.00    +0.037 C 
ATOM     17  H   UNL     1       0.010   0.993   2.354  0.00  0.00    +0.155 HD
ENDROOT
BRANCH  12  18
ATOM     18  C   UNL     1       0.044  -0.664   3.595  0.00  0.00    +0.071 A 
ATOM     19  C   UNL     1       0.072  -2.057   3.762  0.00  0.00    +0.157 A 
ATOM     20  N   UNL     1       0.086  -2.317   5.044  0.00  0.00    -0.177 NA
ATOM     21  N   UNL     1       0.068  -1.103   5.742  0.00  0.00    -0.265 N 
ATOM     22  C   UNL     1       0.048  -0.097   4.829  0.00  0.00    +0.132 A 
BRANCH  21  23
ATOM     23  C   UNL     1       0.075  -0.945   7.198  0.00  0.00    +0.181 C 
BRANCH  23  24
ATOM     24  C   UNL     1      -1.070  -1.723   7.794  0.00  0.00    +0.009 A 
ATOM     25  C   UNL     1      -2.272  -1.092   8.056  0.00  0.00    +0.008 A 
ATOM     26  C   UNL     1      -3.322  -1.806   8.602  0.00  0.00    +0.000 A 
ATOM     27  C   UNL     1      -3.172  -3.151   8.887  0.00  0.00    +0.003 A 
ATOM     28  C   UNL     1      -1.972  -3.783   8.624  0.00  0.00    +0.039 A 
ATOM     29  C   UNL     1      -0.921  -3.071   8.072  0.00  0.00    +0.128 A 
ATOM     30  F   UNL     1       0.252  -3.689   7.811  0.00  0.00    -0.205 F 
ENDBRANCH  23  24
ENDBRANCH  21  23
ENDBRANCH  12  18
TORSDOF 3
