REMARK  Name = ZINC67287575
REMARK  8 active torsions:
REMARK  status: ('A' for Active; 'I' for Inactive)
REMARK    1  A    between atoms: C_1  and  C_2
REMARK    2  A    between atoms: C_5  and  C_26
REMARK    3  A    between atoms: N_6  and  C_7
REMARK    4  A    between atoms: C_7  and  C_9
REMARK    5  A    between atoms: C_7  and  C_10
REMARK    6  A    between atoms: N_12  and  N_13
REMARK    7  A    between atoms: C_14  and  C_16
REMARK    8  A    between atoms: C_17  and  C_25
REMARK                            x       y       z     vdW  Elec       q    Type
REMARK                         _______ _______ _______ _____ _____    ______ ____
ROOT
ATOM      1  N   UNL     1       2.795  -1.083   4.985  0.00  0.00    -0.228 N 
ATOM      2  C   UNL     1       3.026  -0.858   6.293  0.00  0.00    +0.296 C 
ATOM      3  O   UNL     1       2.174  -0.323   6.978  0.00  0.00    -0.265 OA
ATOM      4  H   UNL     1       3.474  -1.510   4.439  0.00  0.00    +0.173 HD
ENDROOT
BRANCH   2   5
ATOM      5  C   UNL     1       4.306  -1.258   6.894  0.00  0.00    +0.195 A 
ATOM      6  C   UNL     1       4.646  -1.087   8.197  0.00  0.00    +0.008 A 
ATOM      7  C   UNL     1       5.997  -1.629   8.339  0.00  0.00    +0.024 A 
ATOM      8  C   UNL     1       6.890  -1.750   9.406  0.00  0.00    +0.012 A 
ATOM      9  C   UNL     1       8.114  -2.321   9.202  0.00  0.00    +0.001 A 
ATOM     10  C   UNL     1       8.475  -2.781   7.942  0.00  0.00    +0.004 A 
ATOM     11  C   UNL     1       7.608  -2.670   6.877  0.00  0.00    +0.047 A 
ATOM     12  C   UNL     1       6.357  -2.093   7.060  0.00  0.00    +0.136 A 
ATOM     13  O   UNL     1       5.319  -1.857   6.234  0.00  0.00    -0.450 OA
ATOM     14  C   UNL     1       3.801  -0.464   9.279  0.00  0.00    +0.048 C 
ENDBRANCH   2   5
BRANCH   1  17
ATOM     15  C   UNL     1       1.344  -0.927   3.104  0.00  0.00    +0.252 C 
ATOM     16  O   UNL     1       2.193  -1.461   2.422  0.00  0.00    -0.272 OA
ATOM     17  N   UNL     1       1.575  -0.702   4.413  0.00  0.00    -0.232 N 
ATOM     18  H   UNL     1       0.895  -0.275   4.958  0.00  0.00    +0.173 HD
BRANCH  15  19
ATOM     19  C   UNL     1       0.031  -0.517   2.489  0.00  0.00    +0.171 C 
ATOM     20  C   UNL     1      -1.114  -1.244   3.196  0.00  0.00    +0.041 C 
BRANCH  19  26
ATOM     21  C   UNL     1       0.099  -3.406   1.367  0.00  0.00    +0.063 C 
ATOM     22  C   UNL     1       0.058  -2.134   0.560  0.00  0.00    +0.017 A 
ATOM     23  C   UNL     1       0.038  -2.051  -0.785  0.00  0.00    +0.023 A 
ATOM     24  C   UNL     1      -0.001  -0.683  -1.123  0.00  0.00    +0.023 A 
ATOM     25  C   UNL     1      -0.003   0.017   0.030  0.00  0.00    +0.017 A 
ATOM     26  N   UNL     1       0.027  -0.868   1.066  0.00  0.00    -0.337 N 
ATOM     27  C   UNL     1      -0.039   1.519   0.151  0.00  0.00    +0.063 C 
ENDBRANCH  19  26
ENDBRANCH  15  19
ENDBRANCH   1  17
TORSDOF 4
