REMARK  Name = ZINC02493005
REMARK  4 active torsions:
REMARK  status: ('A' for Active; 'I' for Inactive)
REMARK    1  A    between atoms: C_4  and  C_7
REMARK    2  A    between atoms: C_7  and  N_49
REMARK    3  A    between atoms: C_18  and  C_21
REMARK    4  A    between atoms: C_26  and  O_27
REMARK                            x       y       z     vdW  Elec       q    Type
REMARK                         _______ _______ _______ _____ _____    ______ ____
ROOT
ATOM      1  C   UNL     1      -0.765   1.599  -1.223  0.00  0.00    -0.073 C 
ATOM      2  C   UNL     1      -0.013   1.086   0.008  0.00  0.00    +0.018 C 
ATOM      3  C   UNL     1      -0.739   1.584   1.253  0.00  0.00    -0.027 A 
ATOM      4  C   UNL     1      -1.614   2.612   1.158  0.00  0.00    -0.021 A 
ATOM      5  S   UNL     1      -2.217   2.851   2.807  0.00  0.00    -0.080 S 
ATOM      6  C   UNL     1      -1.330   1.618   3.598  0.00  0.00    +0.080 A 
ATOM      7  C   UNL     1      -0.565   1.024   2.581  0.00  0.00    +0.068 A 
ATOM      8  C   UNL     1       0.328  -0.094   2.961  0.00  0.00    +0.248 C 
ATOM      9  O   UNL     1       0.936  -0.732   2.121  0.00  0.00    -0.270 OA
ATOM     10  N   UNL     1       0.440  -0.377   4.275  0.00  0.00    -0.289 N 
ATOM     11  C   UNL     1      -0.068   0.492   5.332  0.00  0.00    +0.194 C 
ATOM     12  N   UNL     1      -1.287   1.201   4.903  0.00  0.00    -0.316 N 
ATOM     13  C   UNL     1      -1.973   3.364  -0.085  0.00  0.00    -0.035 C 
ATOM     14  H   UNL     1       0.880  -1.203   4.532  0.00  0.00    +0.151 HD
ATOM     15  H   UNL     1      -2.022   1.364   5.514  0.00  0.00    +0.149 HD
ATOM     16  N   UNL     1      -0.947   3.061  -1.111  0.00  0.00    +0.386 N 
ATOM     17  H   UNL     1      -0.056   3.488  -0.830  0.00  0.00    -0.081 HD
ENDROOT
BRANCH  11  18
ATOM     18  C   UNL     1       0.991   1.504   5.689  0.00  0.00    +0.033 A 
ATOM     19  C   UNL     1       0.626   2.787   6.050  0.00  0.00    +0.026 A 
ATOM     20  C   UNL     1       1.597   3.716   6.378  0.00  0.00    +0.018 A 
ATOM     21  C   UNL     1       2.935   3.364   6.344  0.00  0.00    +0.019 A 
ATOM     22  C   UNL     1       3.303   2.082   5.984  0.00  0.00    +0.047 A 
ATOM     23  C   UNL     1       2.330   1.147   5.661  0.00  0.00    +0.123 A 
ATOM     24 BR   UNL     1       1.096   5.471   6.871  0.00  0.00    -0.050 Br
BRANCH  23  25
ATOM     25  O   UNL     1       2.691  -0.117   5.311  0.00  0.00    -0.506 OA
ATOM     26  H   UNL     1       2.843  -0.234   4.363  0.00  0.00    +0.292 HD
ENDBRANCH  23  25
ENDBRANCH  11  18
BRANCH  16  27
ATOM     27  C   UNL     1      -1.357   3.621  -2.417  0.00  0.00    -0.043 C 
BRANCH  27  31
ATOM     28  C   UNL     1      -1.250   7.885  -2.188  0.00  0.00    +0.000 A 
ATOM     29  C   UNL     1      -0.121   7.185  -2.571  0.00  0.00    +0.000 A 
ATOM     30  C   UNL     1      -0.156   5.805  -2.646  0.00  0.00    +0.002 A 
ATOM     31  C   UNL     1      -1.319   5.125  -2.336  0.00  0.00    -0.064 A 
ATOM     32  C   UNL     1      -2.449   5.826  -1.958  0.00  0.00    +0.002 A 
ATOM     33  C   UNL     1      -2.413   7.205  -1.879  0.00  0.00    +0.000 A 
ENDBRANCH  27  31
ENDBRANCH  16  27
TORSDOF 4
