REMARK  Name = ZINC00927071
REMARK  18 active torsions:
REMARK  status: ('A' for Active; 'I' for Inactive)
REMARK    1  A    between atoms: C_1  and  C_2
REMARK    2  A    between atoms: C_2  and  O_3
REMARK    3  A    between atoms: O_3  and  C_4
REMARK    4  A    between atoms: C_4  and  C_6
REMARK    5  A    between atoms: C_6  and  N_7
REMARK    6  A    between atoms: C_8  and  C_12
REMARK    7  A    between atoms: C_12  and  N_13
REMARK    8  A    between atoms: N_13  and  C_14
REMARK    9  A    between atoms: N_13  and  C_26
REMARK   10  A    between atoms: C_14  and  C_15
REMARK   11  A    between atoms: C_15  and  C_16
REMARK   12  A    between atoms: C_19  and  O_24
REMARK   13  A    between atoms: C_20  and  O_22
REMARK   14  A    between atoms: O_22  and  C_23
REMARK   15  A    between atoms: O_24  and  C_25
REMARK   16  A    between atoms: C_26  and  C_27
REMARK   17  A    between atoms: C_30  and  C_40
REMARK   18  A    between atoms: C_33  and  C_39
REMARK                            x       y       z     vdW  Elec       q    Type
REMARK                         _______ _______ _______ _____ _____    ______ ____
ROOT
ATOM      1  N   UNL     1       3.533  -3.783   0.260  0.00  0.00    +0.387 N 
ATOM      2  H   UNL     1       2.856  -3.061   0.453  0.00  0.00    -0.081 HD
ENDROOT
BRANCH   1   3
ATOM      3  C   UNL     1       3.395  -4.224  -1.135  0.00  0.00    +0.001 C 
BRANCH   3   5
ATOM      4  N   UNL     1       0.979  -3.730  -1.783  0.00  0.00    -0.220 N 
ATOM      5  C   UNL     1       1.956  -4.577  -1.410  0.00  0.00    +0.136 A 
ATOM      6  N   UNL     1       1.413  -5.767  -1.333  0.00  0.00    -0.115 NA
ATOM      7  N   UNL     1       0.167  -5.657  -1.643  0.00  0.00    -0.023 NA
ATOM      8  N   UNL     1      -0.100  -4.426  -1.910  0.00  0.00    -0.043 NA
BRANCH   4   9
ATOM      9  C   UNL     1       1.113  -2.287  -1.999  0.00  0.00    +0.267 C 
BRANCH   9  10
ATOM     10  C   UNL     1       0.847  -1.559  -0.707  0.00  0.00    +0.329 C 
ATOM     11  O   UNL     1       0.573  -2.181   0.292  0.00  0.00    -0.249 OA
BRANCH  10  12
ATOM     12  O   UNL     1       0.914  -0.219  -0.666  0.00  0.00    -0.464 OA
BRANCH  12  14
ATOM     13  C   UNL     1       0.773   1.923   0.444  0.00  0.00    +0.048 C 
ATOM     14  C   UNL     1       0.650   0.406   0.592  0.00  0.00    +0.229 C 
ENDBRANCH  12  14
ENDBRANCH  10  12
ENDBRANCH   9  10
ENDBRANCH   4   9
ENDBRANCH   3   5
ENDBRANCH   1   3
BRANCH   1  15
ATOM     15  C   UNL     1       4.887  -3.255   0.474  0.00  0.00    -0.073 C 
BRANCH  15  16
ATOM     16  C   UNL     1       4.969  -2.610   1.859  0.00  0.00    +0.017 C 
BRANCH  16  17
ATOM     17  C   UNL     1       6.294  -1.907   2.008  0.00  0.00    -0.045 A 
ATOM     18  C   UNL     1       7.421  -2.627   2.357  0.00  0.00    +0.007 A 
ATOM     19  C   UNL     1       8.639  -1.987   2.495  0.00  0.00    +0.049 A 
ATOM     20  C   UNL     1       8.731  -0.621   2.283  0.00  0.00    +0.161 A 
ATOM     21  C   UNL     1       7.597   0.104   1.931  0.00  0.00    +0.162 A 
ATOM     22  C   UNL     1       6.380  -0.544   1.790  0.00  0.00    +0.053 A 
BRANCH  21  23
ATOM     23  O   UNL     1       7.682   1.445   1.722  0.00  0.00    -0.491 OA
ATOM     24  C   UNL     1       6.477   2.124   1.364  0.00  0.00    +0.277 C 
ENDBRANCH  21  23
BRANCH  20  25
ATOM     25  O   UNL     1       9.928   0.011   2.418  0.00  0.00    -0.491 OA
ATOM     26  C   UNL     1      11.050  -0.797   2.782  0.00  0.00    +0.277 C 
ENDBRANCH  20  25
ENDBRANCH  16  17
ENDBRANCH  15  16
ENDBRANCH   1  15
BRANCH   1  27
ATOM     27  C   UNL     1       3.304  -4.923   1.159  0.00  0.00    -0.037 C 
BRANCH  27  28
ATOM     28  C   UNL     1       4.418  -5.924   0.995  0.00  0.00    +0.001 A 
ATOM     29  C   UNL     1       5.476  -5.902   1.843  0.00  0.00    +0.017 A 
ATOM     30  C   UNL     1       6.541  -6.889   1.657  0.00  0.00    +0.002 A 
ATOM     31  C   UNL     1       7.657  -6.917   2.500  0.00  0.00    -0.041 A 
ATOM     32  C   UNL     1       8.634  -7.850   2.301  0.00  0.00    +0.004 A 
ATOM     33  C   UNL     1       8.530  -8.772   1.268  0.00  0.00    +0.005 A 
ATOM     34  C   UNL     1       7.439  -8.764   0.425  0.00  0.00    -0.026 A 
ATOM     35  C   UNL     1       6.432  -7.822   0.609  0.00  0.00    +0.052 A 
ATOM     36  N   UNL     1       5.330  -7.791  -0.219  0.00  0.00    -0.322 N 
ATOM     37  H   UNL     1       5.256  -8.435  -0.940  0.00  0.00    +0.169 HD
ATOM     38  C   UNL     1       4.354  -6.885  -0.037  0.00  0.00    +0.251 A 
ATOM     39  O   UNL     1       3.391  -6.890  -0.785  0.00  0.00    -0.268 OA
ATOM     40  C   UNL     1       7.340  -9.770  -0.693  0.00  0.00    +0.046 C 
ATOM     41  C   UNL     1       7.781  -5.920   3.624  0.00  0.00    +0.044 C 
ENDBRANCH  27  28
ENDBRANCH   1  27
TORSDOF 13
