REMARK  Name = ZINC34968993
REMARK  11 active torsions:
REMARK  status: ('A' for Active; 'I' for Inactive)
REMARK    1  A    between atoms: C_1  and  C_2
REMARK    2  A    between atoms: C_2  and  C_3
REMARK    3  A    between atoms: C_3  and  C_5
REMARK    4  A    between atoms: C_3  and  C_6
REMARK    5  A    between atoms: C_6  and  C_8
REMARK    6  A    between atoms: C_6  and  N_19
REMARK    7  A    between atoms: N_10  and  C_11
REMARK    8  A    between atoms: C_11  and  C_12
REMARK    9  A    between atoms: C_12  and  C_13
REMARK   10  A    between atoms: N_22  and  C_23
REMARK   11  A    between atoms: C_28  and  C_29
REMARK                            x       y       z     vdW  Elec       q    Type
REMARK                         _______ _______ _______ _____ _____    ______ ____
ROOT
ATOM      1  C   UNL     1      -2.048  -0.126  -0.929  0.00  0.00    +0.163 C 
ENDROOT
BRANCH   1   2
ATOM      2  N   UNL     1      -3.397  -0.337  -1.459  0.00  0.00    -0.288 N 
ATOM      3  C   UNL     1      -3.764  -1.555  -1.903  0.00  0.00    +0.304 C 
ATOM      4  O   UNL     1      -2.974  -2.479  -1.865  0.00  0.00    -0.252 OA
ATOM      5  N   UNL     1      -5.005  -1.750  -2.390  0.00  0.00    -0.269 N 
ATOM      6  H   UNL     1      -4.027   0.400  -1.489  0.00  0.00    +0.151 HD
ATOM      7  H   UNL     1      -5.613  -0.999  -2.482  0.00  0.00    +0.156 HD
BRANCH   5   8
ATOM      8  C   UNL     1      -5.418  -3.034  -2.763  0.00  0.00    +0.046 A 
ATOM      9  C   UNL     1      -4.485  -3.964  -3.204  0.00  0.00    +0.024 A 
ATOM     10  C   UNL     1      -4.895  -5.230  -3.571  0.00  0.00    +0.002 A 
ATOM     11  C   UNL     1      -6.233  -5.573  -3.499  0.00  0.00    +0.001 A 
ATOM     12  C   UNL     1      -7.164  -4.650  -3.061  0.00  0.00    +0.014 A 
ATOM     13  C   UNL     1      -6.759  -3.383  -2.687  0.00  0.00    +0.076 A 
BRANCH  13  14
ATOM     14  C   UNL     1      -7.774  -2.379  -2.204  0.00  0.00    +0.419 C 
ATOM     15  F   UNL     1      -9.047  -2.960  -2.215  0.00  0.00    -0.166 F 
ATOM     16  F   UNL     1      -7.454  -1.984  -0.900  0.00  0.00    -0.166 F 
ATOM     17  F   UNL     1      -7.763  -1.262  -3.046  0.00  0.00    -0.166 F 
ENDBRANCH  13  14
ENDBRANCH   5   8
ENDBRANCH   1   2
BRANCH   1  18
ATOM     18  C   UNL     1      -1.672   1.327  -1.076  0.00  0.00    +0.234 C 
ATOM     19  O   UNL     1      -2.536   2.164  -1.225  0.00  0.00    -0.274 OA
ATOM     20  N   UNL     1      -0.376   1.694  -1.042  0.00  0.00    -0.313 N 
ATOM     21  H   UNL     1       0.319   1.018  -1.002  0.00  0.00    +0.149 HD
BRANCH  20  22
ATOM     22  C   UNL     1      -0.016   3.114  -1.066  0.00  0.00    +0.109 C 
BRANCH  22  23
ATOM     23  C   UNL     1       1.506   3.256  -1.019  0.00  0.00    +0.054 C 
BRANCH  23  24
ATOM     24  C   UNL     1       1.876   4.716  -1.043  0.00  0.00    -0.046 A 
ATOM     25  C   UNL     1       2.080   5.358  -2.250  0.00  0.00    +0.004 A 
ATOM     26  C   UNL     1       2.419   6.697  -2.272  0.00  0.00    +0.000 A 
ATOM     27  C   UNL     1       2.554   7.396  -1.087  0.00  0.00    +0.000 A 
ATOM     28  C   UNL     1       2.350   6.755   0.120  0.00  0.00    +0.000 A 
ATOM     29  C   UNL     1       2.006   5.416   0.142  0.00  0.00    +0.004 A 
ENDBRANCH  23  24
ENDBRANCH  22  23
ENDBRANCH  20  22
ENDBRANCH   1  18
BRANCH   1  30
ATOM     30  C   UNL     1      -2.014  -0.514   0.550  0.00  0.00    +0.015 C 
ATOM     31  C   UNL     1      -3.111   0.242   1.302  0.00  0.00    +0.010 C 
BRANCH  30  33
ATOM     32  C   UNL     1      -1.062  -2.776   0.081  0.00  0.00    +0.004 C 
ATOM     33  C   UNL     1      -2.246  -2.020   0.688  0.00  0.00    +0.002 C 
ENDBRANCH  30  33
ENDBRANCH   1  30
TORSDOF 9
