REMARK  Name = ZINC39693317
REMARK  8 active torsions:
REMARK  status: ('A' for Active; 'I' for Inactive)
REMARK    1  A    between atoms: C_1  and  C_2
REMARK    2  A    between atoms: C_7  and  C_8
REMARK    3  A    between atoms: C_12  and  C_21
REMARK    4  A    between atoms: N_23  and  C_24
REMARK    5  A    between atoms: C_24  and  C_25
REMARK    6  A    between atoms: C_25  and  N_26
REMARK    7  A    between atoms: C_27  and  C_29
REMARK    8  A    between atoms: C_29  and  C_30
REMARK                            x       y       z     vdW  Elec       q    Type
REMARK                         _______ _______ _______ _____ _____    ______ ____
ROOT
ATOM      1  C   UNL     1       0.111   0.134   2.362  0.00  0.00    +0.247 C 
ATOM      2  O   UNL     1      -0.020   1.340   2.283  0.00  0.00    -0.270 OA
ATOM      3  N   UNL     1       0.313  -0.444   3.563  0.00  0.00    -0.296 N 
ATOM      4  C   UNL     1       0.612  -1.868   3.847  0.00  0.00    +0.121 C 
ATOM      5  C   UNL     1       1.656  -1.828   4.985  0.00  0.00    +0.100 C 
ATOM      6  C   UNL     1       1.436  -0.470   5.672  0.00  0.00    -0.004 C 
ATOM      7  C   UNL     1       0.293   0.202   4.897  0.00  0.00    +0.115 C 
ATOM      8  C   UNL     1       2.700   0.380   5.578  0.00  0.00    -0.010 C 
ATOM      9  C   UNL     1       2.476   1.702   6.317  0.00  0.00    -0.082 C 
ATOM     10  N   UNL     1       2.149   1.430   7.722  0.00  0.00    +0.379 N 
ATOM     11  C   UNL     1       0.883   0.692   7.807  0.00  0.00    -0.082 C 
ATOM     12  C   UNL     1       1.040  -0.673   7.131  0.00  0.00    -0.010 C 
ATOM     13  H   UNL     1       2.886   0.881   8.137  0.00  0.00    -0.086 HD
ATOM     14  H   UNL     1       2.062   2.303   8.221  0.00  0.00    -0.086 HD
ENDROOT
BRANCH   1  21
ATOM     15  C   UNL     1      -2.151   0.380   0.576  0.00  0.00    +0.044 C 
ATOM     16  C   UNL     1      -1.036  -0.588   0.273  0.00  0.00    -0.038 A 
ATOM     17  C   UNL     1      -1.086  -1.363  -0.868  0.00  0.00    +0.007 A 
ATOM     18  C   UNL     1      -0.065  -2.252  -1.149  0.00  0.00    +0.038 A 
ATOM     19  C   UNL     1       1.015  -2.371  -0.288  0.00  0.00    +0.124 A 
ATOM     20  C   UNL     1       1.076  -1.601   0.857  0.00  0.00    +0.051 A 
ATOM     21  C   UNL     1       0.050  -0.698   1.142  0.00  0.00    +0.043 A 
ATOM     22  F   UNL     1       2.009  -3.242  -0.569  0.00  0.00    -0.205 F 
ENDBRANCH   1  21
BRANCH   5  23
ATOM     23  C   UNL     1       3.050  -1.914   4.421  0.00  0.00    +0.218 C 
ATOM     24  O   UNL     1       3.271  -1.537   3.289  0.00  0.00    -0.275 OA
ATOM     25  N   UNL     1       4.052  -2.411   5.173  0.00  0.00    -0.314 N 
ATOM     26  H   UNL     1       3.876  -2.713   6.078  0.00  0.00    +0.149 HD
BRANCH  25  27
ATOM     27  C   UNL     1       5.408  -2.494   4.624  0.00  0.00    +0.123 C 
BRANCH  27  28
ATOM     28  C   UNL     1       6.348  -3.090   5.675  0.00  0.00    +0.123 C 
BRANCH  28  29
ATOM     29  N   UNL     1       7.704  -3.173   5.126  0.00  0.00    -0.314 N 
ATOM     30  C   UNL     1       8.706  -3.670   5.879  0.00  0.00    +0.217 C 
ATOM     31  O   UNL     1       8.485  -4.047   7.010  0.00  0.00    -0.275 OA
ATOM     32  H   UNL     1       7.880  -2.871   4.222  0.00  0.00    +0.149 HD
BRANCH  30  33
ATOM     33  C   UNL     1      10.100  -3.756   5.314  0.00  0.00    +0.131 C 
BRANCH  33  34
ATOM     34  C   UNL     1      11.026  -4.342   6.349  0.00  0.00    -0.031 A 
ATOM     35  C   UNL     1      11.750  -3.524   7.161  0.00  0.00    +0.005 A 
ATOM     36  C   UNL     1      12.611  -4.048   8.124  0.00  0.00    +0.001 A 
ATOM     37  C   UNL     1      12.752  -5.393   8.280  0.00  0.00    +0.008 A 
ATOM     38  C   UNL     1      12.021  -6.268   7.460  0.00  0.00    -0.018 A 
ATOM     39  C   UNL     1      11.141  -5.736   6.485  0.00  0.00    -0.014 A 
ATOM     40  C   UNL     1      10.405  -6.612   5.669  0.00  0.00    +0.009 A 
ATOM     41  C   UNL     1      10.543  -7.957   5.829  0.00  0.00    +0.001 A 
ATOM     42  C   UNL     1      11.403  -8.480   6.792  0.00  0.00    +0.001 A 
ATOM     43  C   UNL     1      12.142  -7.662   7.591  0.00  0.00    +0.008 A 
ENDBRANCH  33  34
ENDBRANCH  30  33
ENDBRANCH  28  29
ENDBRANCH  27  28
ENDBRANCH  25  27
ENDBRANCH   5  23
TORSDOF 7
