REMARK  Name = ZINC65357205
REMARK  1 active torsions:
REMARK  status: ('A' for Active; 'I' for Inactive)
REMARK    1  A    between atoms: C_8  and  C_13
REMARK                            x       y       z     vdW  Elec       q    Type
REMARK                         _______ _______ _______ _____ _____    ______ ____
ROOT
ATOM      1  C   UNL     1       2.835  -3.557  -1.262  0.00  0.00    +0.010 C 
ATOM      2  C   UNL     1       3.018  -4.874  -1.129  0.00  0.00    +0.071 C 
ATOM      3  C   UNL     1       3.048  -5.691   0.109  0.00  0.00    +0.259 C 
ATOM      4  O   UNL     1       2.898  -5.174   1.199  0.00  0.00    -0.269 OA
ATOM      5  N   UNL     1       3.243  -7.006   0.001  0.00  0.00    -0.237 N 
ATOM      6  C   UNL     1       2.977  -8.229   0.657  0.00  0.00    +0.060 A 
ATOM      7  C   UNL     1       2.845  -8.541   2.000  0.00  0.00    +0.025 A 
ATOM      8  C   UNL     1       2.518  -9.830   2.379  0.00  0.00    +0.002 A 
ATOM      9  C   UNL     1       2.325 -10.809   1.420  0.00  0.00    +0.002 A 
ATOM     10  C   UNL     1       2.483 -10.511   0.080  0.00  0.00    +0.025 A 
ATOM     11  C   UNL     1       2.835  -9.226  -0.309  0.00  0.00    +0.051 A 
ATOM     12  N   UNL     1       3.176  -8.704  -1.569  0.00  0.00    -0.315 N 
ATOM     13  C   UNL     1       3.870  -7.444  -1.278  0.00  0.00    +0.232 C 
ATOM     14  S   UNL     1       3.283  -6.110  -2.399  0.00  0.00    -0.078 S 
ATOM     15  H   UNL     1       2.993  -9.092  -2.439  0.00  0.00    +0.149 HD
ENDROOT
BRANCH   1  23
ATOM     16  C   UNL     1      -0.505   0.893   0.442  0.00  0.00    +0.001 A 
ATOM     17  C   UNL     1       0.530   1.807   0.243  0.00  0.00    +0.002 A 
ATOM     18  C   UNL     1       1.816   1.423   0.031  0.00  0.00    +0.024 A 
ATOM     19  C   UNL     1       2.159   0.059   0.004  0.00  0.00    +0.040 A 
ATOM     20  N   UNL     1       3.424  -0.306  -0.203  0.00  0.00    -0.284 N 
ATOM     21  C   UNL     1       3.815  -1.569  -0.241  0.00  0.00    +0.228 C 
ATOM     22  O   UNL     1       4.984  -1.841  -0.435  0.00  0.00    -0.274 OA
ATOM     23  C   UNL     1       2.802  -2.673  -0.042  0.00  0.00    +0.122 C 
ATOM     24  C   UNL     1       1.361  -2.263   0.196  0.00  0.00    -0.001 C 
ATOM     25  C   UNL     1       1.086  -0.928   0.212  0.00  0.00    -0.007 A 
ATOM     26  C   UNL     1      -0.277  -0.446   0.434  0.00  0.00    +0.009 A 
ATOM     27  H   UNL     1       4.090   0.388  -0.334  0.00  0.00    +0.155 HD
ENDBRANCH   1  23
TORSDOF 1
