REMARK  Name = ZINC20876613
REMARK  9 active torsions:
REMARK  status: ('A' for Active; 'I' for Inactive)
REMARK    1  A    between atoms: C_1  and  C_2
REMARK    2  A    between atoms: C_5  and  C_9
REMARK    3  A    between atoms: C_12  and  C_14
REMARK    4  A    between atoms: C_14  and  N_15
REMARK    5  A    between atoms: N_15  and  C_16
REMARK    6  A    between atoms: C_16  and  C_17
REMARK    7  A    between atoms: C_17  and  N_18
REMARK    8  A    between atoms: N_18  and  C_19
REMARK    9  A    between atoms: C_22  and  N_26
REMARK                            x       y       z     vdW  Elec       q    Type
REMARK                         _______ _______ _______ _____ _____    ______ ____
ROOT
ATOM      1  N   UNL     1      -4.933   1.550   0.034  0.00  0.00    +0.385 N 
ATOM      2  H   UNL     1      -4.963   0.911   0.929  0.00  0.00    -0.085 HD
ATOM      3  H   UNL     1      -4.971   0.921  -0.868  0.00  0.00    -0.085 HD
ENDROOT
BRANCH   1   4
ATOM      4  C   UNL     1      -6.086   2.461   0.044  0.00  0.00    -0.007 C 
BRANCH   4   8
ATOM      5  C   UNL     1      -9.121   0.555  -0.666  0.00  0.00    +0.135 A 
ATOM      6  C   UNL     1      -9.152   0.523   0.693  0.00  0.00    +0.050 A 
ATOM      7  C   UNL     1      -8.020   1.232   1.141  0.00  0.00    +0.043 A 
ATOM      8  C   UNL     1      -7.361   1.657   0.046  0.00  0.00    +0.089 A 
ATOM      9  O   UNL     1      -8.031   1.250  -1.044  0.00  0.00    -0.462 OA
BRANCH   5  14
ATOM     10  C   UNL     1     -12.984  -1.846  -4.192  0.00  0.00    +0.045 C 
ATOM     11  C   UNL     1     -11.973  -1.218  -3.268  0.00  0.00    -0.032 A 
ATOM     12  C   UNL     1     -10.892  -0.532  -3.794  0.00  0.00    +0.005 A 
ATOM     13  C   UNL     1      -9.962   0.045  -2.955  0.00  0.00    +0.012 A 
ATOM     14  C   UNL     1     -10.114  -0.062  -1.571  0.00  0.00    +0.019 A 
ATOM     15  C   UNL     1     -11.202  -0.759  -1.046  0.00  0.00    +0.031 A 
ATOM     16  C   UNL     1     -12.129  -1.329  -1.897  0.00  0.00    +0.045 A 
ATOM     17 CL   UNL     1     -13.488  -2.191  -1.247  0.00  0.00    -0.083 Cl
ENDBRANCH   5  14
ENDBRANCH   4   8
ENDBRANCH   1   4
BRANCH   1  18
ATOM     18  C   UNL     1      -3.670   2.300   0.032  0.00  0.00    -0.063 C 
BRANCH  18  19
ATOM     19  C   UNL     1      -2.495   1.321   0.021  0.00  0.00    +0.082 C 
BRANCH  19  20
ATOM     20  N   UNL     1      -1.236   2.068   0.019  0.00  0.00    -0.345 N 
ATOM     21  H   UNL     1      -1.249   3.168   0.025  0.00  0.00    +0.146 HD
BRANCH  20  22
ATOM     22  C   UNL     1      -0.017   1.385   0.010  0.00  0.00    +0.046 A 
ATOM     23  C   UNL     1       0.002  -0.004   0.002  0.00  0.00    +0.026 A 
ATOM     24  C   UNL     1       1.208  -0.677  -0.013  0.00  0.00    +0.034 A 
ATOM     25  C   UNL     1       2.397   0.030  -0.021  0.00  0.00    +0.128 A 
ATOM     26  C   UNL     1       2.382   1.413  -0.014  0.00  0.00    +0.054 A 
ATOM     27  C   UNL     1       1.179   2.093   0.002  0.00  0.00    +0.064 A 
ATOM     28 CL   UNL     1       1.162   3.829   0.011  0.00  0.00    -0.082 Cl
BRANCH  25  29
ATOM     29  N   UNL     1       3.687  -0.695  -0.038  0.00  0.00    +0.056 N 
ATOM     30  O   UNL     1       3.701  -1.913  -0.045  0.00  0.00    -0.126 OA
ATOM     31  O   UNL     1       4.734  -0.074  -0.045  0.00  0.00    -0.126 OA
ENDBRANCH  25  29
ENDBRANCH  20  22
ENDBRANCH  19  20
ENDBRANCH  18  19
ENDBRANCH   1  18
TORSDOF 8
