REMARK  Name = ZINC43328821
REMARK  1 active torsions:
REMARK  status: ('A' for Active; 'I' for Inactive)
REMARK    1  A    between atoms: N_3  and  C_6
REMARK                            x       y       z     vdW  Elec       q    Type
REMARK                         _______ _______ _______ _____ _____    ______ ____
ROOT
ATOM      1  C   UNL     1      -0.016   1.337   0.009  0.00  0.00    +0.101 A 
ATOM      2  C   UNL     1       1.259   1.771  -0.000  0.00  0.00    +0.100 A 
ATOM      3  N   UNL     1       2.056   0.658  -0.014  0.00  0.00    -0.385 N 
ATOM      4  C   UNL     1       1.240  -0.418  -0.012  0.00  0.00    +0.170 A 
ATOM      5  N   UNL     1       0.002  -0.004   0.002  0.00  0.00    -0.352 N 
ATOM      6  H   UNL     1      -0.781  -0.576   0.007  0.00  0.00    +0.166 HD
ENDROOT
BRANCH   3   7
ATOM      7  C   UNL     1       3.521   0.638  -0.028  0.00  0.00    -0.164 C 
ATOM      8  N   UNL     1       4.025   1.822  -0.737  0.00  0.00    +0.365 NA
ATOM      9  C   UNL     1       5.142   1.355  -1.580  0.00  0.00    -0.183 C 
ATOM     10  C   UNL     1       4.796  -0.117  -1.880  0.00  0.00    -0.183 C 
ATOM     11  N   UNL     1       3.992  -0.562  -0.730  0.00  0.00    +0.365 NA
ENDBRANCH   3   7
TORSDOF 1
