REMARK  Name = ZINC11954027
REMARK  8 active torsions:
REMARK  status: ('A' for Active; 'I' for Inactive)
REMARK    1  A    between atoms: C_4  and  O_25
REMARK    2  A    between atoms: C_5  and  C_7
REMARK    3  A    between atoms: C_7  and  N_8
REMARK    4  A    between atoms: C_9  and  C_11
REMARK    5  A    between atoms: C_11  and  C_12
REMARK    6  A    between atoms: C_19  and  C_20
REMARK    7  A    between atoms: C_19  and  N_49
REMARK    8  A    between atoms: O_25  and  C_26
REMARK                            x       y       z     vdW  Elec       q    Type
REMARK                         _______ _______ _______ _____ _____    ______ ____
ROOT
ATOM      1  N   UNL     1      -1.131   0.917   2.714  0.00  0.00    -0.311 N 
ATOM      2  C   UNL     1      -1.298   1.221   1.412  0.00  0.00    +0.212 C 
ATOM      3  O   UNL     1      -2.344   1.705   1.031  0.00  0.00    -0.276 OA
ATOM      4  H   UNL     1      -0.295   0.530   3.018  0.00  0.00    +0.149 HD
ENDROOT
BRANCH   1   5
ATOM      5  C   UNL     1      -2.212   1.170   3.670  0.00  0.00    +0.143 C 
BRANCH   5  10
ATOM      6  C   UNL     1      -1.782  -0.863   6.823  0.00  0.00    +0.001 A 
ATOM      7  C   UNL     1      -0.969  -0.038   7.578  0.00  0.00    +0.004 A 
ATOM      8  C   UNL     1      -0.555   1.178   7.071  0.00  0.00    +0.046 A 
ATOM      9  C   UNL     1      -0.954   1.571   5.801  0.00  0.00    +0.135 A 
ATOM     10  C   UNL     1      -1.774   0.745   5.048  0.00  0.00    +0.012 A 
ATOM     11  C   UNL     1      -2.184  -0.472   5.559  0.00  0.00    +0.009 A 
BRANCH   9  12
ATOM     12  O   UNL     1      -0.544   2.765   5.298  0.00  0.00    -0.405 OA
BRANCH  12  13
ATOM     13  C   UNL     1       0.299   3.565   6.130  0.00  0.00    +0.575 C 
ATOM     14  F   UNL     1       1.471   2.858   6.422  0.00  0.00    -0.133 F 
ATOM     15  F   UNL     1       0.624   4.751   5.463  0.00  0.00    -0.133 F 
ATOM     16  F   UNL     1      -0.371   3.868   7.320  0.00  0.00    -0.133 F 
ENDBRANCH  12  13
ENDBRANCH   9  12
ENDBRANCH   5  10
ENDBRANCH   1   5
BRANCH   2  17
ATOM     17  C   UNL     1      -0.187   0.961   0.428  0.00  0.00    +0.089 C 
BRANCH  17  18
ATOM     18  C   UNL     1      -0.580   1.512  -0.944  0.00  0.00    +0.028 C 
ATOM     19  C   UNL     1      -0.751   3.002  -0.854  0.00  0.00    +0.200 C 
ATOM     20  O   UNL     1       0.063   3.642  -0.222  0.00  0.00    -0.278 OA
ATOM     21  N   UNL     1      -1.761   3.651  -1.441  0.00  0.00    -0.318 N 
ATOM     22  C   UNL     1      -2.811   2.971  -2.193  0.00  0.00    +0.085 C 
ATOM     23  C   UNL     1      -2.352   1.564  -2.579  0.00  0.00    -0.058 C 
ATOM     24  H   UNL     1      -1.798   4.617  -1.364  0.00  0.00    +0.149 HD
ATOM     25  N   UNL     1      -1.854   0.895  -1.361  0.00  0.00    +0.392 N 
ATOM     26  H   UNL     1      -2.544   1.010  -0.609  0.00  0.00    -0.080 HD
BRANCH  25  27
ATOM     27  C   UNL     1      -1.657  -0.550  -1.618  0.00  0.00    -0.034 C 
BRANCH  27  28
ATOM     28  C   UNL     1      -3.005  -1.222  -1.681  0.00  0.00    -0.027 A 
ATOM     29  C   UNL     1      -3.803  -1.433  -2.756  0.00  0.00    +0.009 A 
ATOM     30  C   UNL     1      -5.012  -2.079  -2.577  0.00  0.00    +0.008 A 
ATOM     31  C   UNL     1      -5.363  -2.483  -1.331  0.00  0.00    +0.045 A 
ATOM     32  S   UNL     1      -3.960  -1.953  -0.362  0.00  0.00    -0.103 S 
ENDBRANCH  27  28
ENDBRANCH  25  27
ENDBRANCH  17  18
ENDBRANCH   2  17
TORSDOF 8
