REMARK  Name = ZINC21529296
REMARK  7 active torsions:
REMARK  status: ('A' for Active; 'I' for Inactive)
REMARK    1  A    between atoms: C_1  and  C_2
REMARK    2  A    between atoms: C_5  and  C_8
REMARK    3  A    between atoms: C_8  and  N_9
REMARK    4  A    between atoms: C_11  and  C_15
REMARK    5  A    between atoms: C_12  and  C_14
REMARK    6  A    between atoms: N_24  and  C_27
REMARK    7  A    between atoms: C_27  and  C_28
REMARK                            x       y       z     vdW  Elec       q    Type
REMARK                         _______ _______ _______ _____ _____    ______ ____
ROOT
ATOM      1  C   UNL     1       4.567  -5.790  -1.557  0.00  0.00    +0.254 C 
ATOM      2  O   UNL     1       5.375  -4.949  -1.902  0.00  0.00    -0.270 OA
ATOM      3  N   UNL     1       4.712  -7.069  -1.959  0.00  0.00    -0.261 N 
ATOM      4  C   UNL     1       5.785  -7.425  -2.767  0.00  0.00    +0.165 A 
ATOM      5  N   UNL     1       6.750  -6.660  -3.229  0.00  0.00    -0.229 NA
ATOM      6  C   UNL     1       7.718  -7.143  -3.998  0.00  0.00    +0.050 A 
ATOM      7  C   UNL     1       7.630  -8.474  -4.265  0.00  0.00    -0.002 A 
ATOM      8  S   UNL     1       6.169  -8.945  -3.387  0.00  0.00    -0.059 S 
ATOM      9  C   UNL     1       8.563  -9.283  -5.097  0.00  0.00    -0.033 C 
ATOM     10  N   UNL     1       9.394  -8.357  -5.892  0.00  0.00    +0.386 N 
ATOM     11  C   UNL     1       9.963  -7.328  -5.011  0.00  0.00    -0.072 C 
ATOM     12  C   UNL     1       8.877  -6.340  -4.573  0.00  0.00    +0.038 C 
ATOM     13  H   UNL     1       4.068  -7.740  -1.683  0.00  0.00    +0.157 HD
ATOM     14  H   UNL     1       8.825  -7.917  -6.599  0.00  0.00    -0.081 HD
ENDROOT
BRANCH   1  17
ATOM     15  N   UNL     1       1.447  -4.746  -0.032  0.00  0.00    -0.248 N 
ATOM     16  C   UNL     1       2.186  -4.987  -1.128  0.00  0.00    +0.140 A 
ATOM     17  C   UNL     1       3.431  -5.412  -0.701  0.00  0.00    +0.096 A 
ATOM     18  C   UNL     1       3.407  -5.416   0.713  0.00  0.00    +0.074 A 
ATOM     19  N   UNL     1       2.228  -5.014   1.098  0.00  0.00    -0.174 NA
ATOM     20  C   UNL     1       4.546  -5.810   1.616  0.00  0.00    +0.068 C 
ATOM     21 CL   UNL     1       1.673  -4.799  -2.775  0.00  0.00    -0.062 Cl
BRANCH  15  22
ATOM     22  C   UNL     1       0.059  -4.275  -0.021  0.00  0.00    +0.180 C 
BRANCH  22  27
ATOM     23  C   UNL     1      -0.018   1.503   0.010  0.00  0.00    +0.044 C 
ATOM     24  C   UNL     1       0.002  -0.004   0.002  0.00  0.00    -0.050 A 
ATOM     25  C   UNL     1       0.006  -0.689  -1.199  0.00  0.00    +0.004 A 
ATOM     26  C   UNL     1       0.025  -2.071  -1.206  0.00  0.00    +0.006 A 
ATOM     27  C   UNL     1       0.040  -2.768  -0.013  0.00  0.00    -0.026 A 
ATOM     28  C   UNL     1       0.037  -2.084   1.188  0.00  0.00    +0.006 A 
ATOM     29  C   UNL     1       0.023  -0.702   1.195  0.00  0.00    +0.004 A 
ENDBRANCH  22  27
ENDBRANCH  15  22
ENDBRANCH   1  17
BRANCH  10  30
ATOM     30  C   UNL     1      10.482  -9.105  -6.536  0.00  0.00    -0.043 C 
BRANCH  30  31
ATOM     31  C   UNL     1       9.902 -10.076  -7.532  0.00  0.00    -0.064 A 
ATOM     32  C   UNL     1       9.562 -11.355  -7.133  0.00  0.00    +0.002 A 
ATOM     33  C   UNL     1       9.030 -12.246  -8.047  0.00  0.00    +0.000 A 
ATOM     34  C   UNL     1       8.839 -11.857  -9.360  0.00  0.00    +0.000 A 
ATOM     35  C   UNL     1       9.178 -10.578  -9.758  0.00  0.00    +0.000 A 
ATOM     36  C   UNL     1       9.706  -9.686  -8.843  0.00  0.00    +0.002 A 
ENDBRANCH  30  31
ENDBRANCH  10  30
TORSDOF 5
