REMARK  Name = ZINC36109298
REMARK  7 active torsions:
REMARK  status: ('A' for Active; 'I' for Inactive)
REMARK    1  A    between atoms: C_1  and  C_2
REMARK    2  A    between atoms: C_8  and  C_10
REMARK    3  A    between atoms: C_10  and  C_12
REMARK    4  A    between atoms: C_10  and  N_23
REMARK    5  A    between atoms: C_12  and  C_13
REMARK    6  A    between atoms: N_26  and  C_27
REMARK    7  A    between atoms: N_26  and  C_28
REMARK                            x       y       z     vdW  Elec       q    Type
REMARK                         _______ _______ _______ _____ _____    ______ ____
ROOT
ATOM      1  C   UNL     1      -0.198  -3.955   3.079  0.00  0.00    +0.165 C 
ENDROOT
BRANCH   1   9
ATOM      2  C   UNL     1      -0.019   1.526   0.010  0.00  0.00    +0.007 C 
ATOM      3  C   UNL     1       0.002  -0.004   0.002  0.00  0.00    -0.011 C 
ATOM      4  C   UNL     1      -1.434  -0.533   0.011  0.00  0.00    +0.022 C 
ATOM      5  C   UNL     1      -1.409  -2.065  -0.032  0.00  0.00    +0.108 C 
ATOM      6  N   UNL     1      -0.578  -2.556   1.075  0.00  0.00    -0.300 N 
ATOM      7  C   UNL     1       0.791  -2.042   1.212  0.00  0.00    +0.108 C 
ATOM      8  C   UNL     1       0.742  -0.511   1.242  0.00  0.00    +0.022 C 
ATOM      9  C   UNL     1      -1.063  -3.461   1.948  0.00  0.00    +0.236 C 
ATOM     10  O   UNL     1      -2.195  -3.878   1.824  0.00  0.00    -0.274 OA
ENDBRANCH   1   9
BRANCH   1  11
ATOM     11  N   UNL     1      -1.045  -4.526   4.129  0.00  0.00    -0.288 N 
ATOM     12  C   UNL     1      -1.848  -5.572   3.852  0.00  0.00    +0.302 C 
ATOM     13  O   UNL     1      -1.869  -6.043   2.731  0.00  0.00    -0.253 OA
ATOM     14  N   UNL     1      -2.628  -6.097   4.818  0.00  0.00    -0.292 N 
ATOM     15  C   UNL     1      -3.501  -7.235   4.517  0.00  0.00    +0.133 C 
ATOM     16  C   UNL     1      -2.602  -5.531   6.169  0.00  0.00    +0.133 C 
ATOM     17  H   UNL     1      -1.028  -4.151   5.023  0.00  0.00    +0.151 HD
ENDBRANCH   1  11
BRANCH   1  18
ATOM     18  C   UNL     1       0.760  -5.028   2.557  0.00  0.00    +0.069 C 
BRANCH  18  19
ATOM     19  C   UNL     1       1.707  -5.435   3.657  0.00  0.00    -0.020 A 
ATOM     20  C   UNL     1       2.936  -4.942   3.874  0.00  0.00    +0.087 A 
ATOM     21  N   UNL     1       3.497  -5.551   4.963  0.00  0.00    -0.360 N 
ATOM     22  H   UNL     1       4.381  -5.361   5.315  0.00  0.00    +0.165 HD
ATOM     23  C   UNL     1       2.620  -6.475   5.486  0.00  0.00    +0.047 A 
ATOM     24  C   UNL     1       1.458  -6.438   4.694  0.00  0.00    +0.003 A 
ATOM     25  C   UNL     1       0.382  -7.275   4.997  0.00  0.00    +0.010 A 
ATOM     26  C   UNL     1       0.463  -8.125   6.064  0.00  0.00    +0.001 A 
ATOM     27  C   UNL     1       1.606  -8.162   6.851  0.00  0.00    +0.002 A 
ATOM     28  C   UNL     1       2.683  -7.351   6.564  0.00  0.00    +0.026 A 
ENDBRANCH  18  19
ENDBRANCH   1  18
TORSDOF 4
