REMARK  Name = ZINC04372766
REMARK  7 active torsions:
REMARK  status: ('A' for Active; 'I' for Inactive)
REMARK    1  A    between atoms: C_1  and  C_2
REMARK    2  A    between atoms: C_5  and  O_30
REMARK    3  A    between atoms: C_6  and  C_8
REMARK    4  A    between atoms: N_9  and  N_10
REMARK    5  A    between atoms: C_11  and  C_13
REMARK    6  A    between atoms: C_16  and  C_18
REMARK    7  A    between atoms: C_16  and  C_24
REMARK                            x       y       z     vdW  Elec       q    Type
REMARK                         _______ _______ _______ _____ _____    ______ ____
ROOT
ATOM      1  C   UNL     1       0.117  -6.938   4.904  0.00  0.00    +0.125 C 
ATOM      2  N   UNL     1       0.110  -6.407   6.083  0.00  0.00    -0.185 NA
ATOM      3  N   UNL     1       0.128  -7.334   7.123  0.00  0.00    -0.253 N 
ATOM      4  C   UNL     1       0.151  -8.690   6.552  0.00  0.00    +0.104 C 
ATOM      5  C   UNL     1       0.138  -8.445   5.031  0.00  0.00    +0.099 C 
ATOM      6  H   UNL     1       0.127  -7.121   8.069  0.00  0.00    +0.169 HD
ENDROOT
BRANCH   4   7
ATOM      7  C   UNL     1       1.405  -9.418   6.966  0.00  0.00    -0.018 A 
ATOM      8  C   UNL     1       1.974 -10.350   6.118  0.00  0.00    +0.006 A 
ATOM      9  C   UNL     1       3.124 -11.017   6.497  0.00  0.00    +0.000 A 
ATOM     10  C   UNL     1       3.704 -10.753   7.724  0.00  0.00    +0.000 A 
ATOM     11  C   UNL     1       3.135  -9.820   8.571  0.00  0.00    +0.000 A 
ATOM     12  C   UNL     1       1.988  -9.150   8.190  0.00  0.00    +0.006 A 
ENDBRANCH   4   7
BRANCH   4  13
ATOM     13  C   UNL     1      -1.073  -9.462   6.970  0.00  0.00    -0.018 A 
ATOM     14  C   UNL     1      -1.606 -10.421   6.130  0.00  0.00    +0.006 A 
ATOM     15  C   UNL     1      -2.730 -11.130   6.513  0.00  0.00    +0.000 A 
ATOM     16  C   UNL     1      -3.321 -10.879   7.737  0.00  0.00    +0.000 A 
ATOM     17  C   UNL     1      -2.787  -9.920   8.579  0.00  0.00    +0.000 A 
ATOM     18  C   UNL     1      -1.661  -9.215   8.197  0.00  0.00    +0.006 A 
ENDBRANCH   4  13
BRANCH   1  20
ATOM     19  N   UNL     1       0.084  -4.849   3.654  0.00  0.00    -0.202 N 
ATOM     20  C   UNL     1       0.102  -6.197   3.643  0.00  0.00    +0.279 C 
ATOM     21  O   UNL     1       0.105  -6.797   2.584  0.00  0.00    -0.267 OA
ATOM     22  H   UNL     1       0.081  -4.371   4.498  0.00  0.00    +0.178 HD
BRANCH  19  24
ATOM     23  C   UNL     1       0.052  -2.841   2.457  0.00  0.00    +0.142 C 
ATOM     24  N   UNL     1       0.069  -4.139   2.447  0.00  0.00    -0.187 NA
BRANCH  23  30
ATOM     25  C   UNL     1      -0.018   1.503   0.010  0.00  0.00    +0.044 C 
ATOM     26  C   UNL     1       0.002  -0.004   0.002  0.00  0.00    -0.050 A 
ATOM     27  C   UNL     1       0.006  -0.687  -1.202  0.00  0.00    +0.007 A 
ATOM     28  C   UNL     1       0.024  -2.069  -1.223  0.00  0.00    +0.046 A 
ATOM     29  C   UNL     1       0.040  -2.781  -0.035  0.00  0.00    +0.125 A 
ATOM     30  C   UNL     1       0.036  -2.094   1.187  0.00  0.00    +0.036 A 
ATOM     31  C   UNL     1       0.023  -0.697   1.194  0.00  0.00    +0.016 A 
BRANCH  29  32
ATOM     32  O   UNL     1       0.058  -4.138  -0.053  0.00  0.00    -0.506 OA
ATOM     33  H   UNL     1       0.946  -4.520  -0.063  0.00  0.00    +0.292 HD
ENDBRANCH  29  32
ENDBRANCH  23  30
ENDBRANCH  19  24
ENDBRANCH   1  20
TORSDOF 6
