REMARK  Name = ZINC26491358
REMARK  11 active torsions:
REMARK  status: ('A' for Active; 'I' for Inactive)
REMARK    1  A    between atoms: C_1  and  C_2
REMARK    2  A    between atoms: C_2  and  C_3
REMARK    3  A    between atoms: C_3  and  C_5
REMARK    4  A    between atoms: C_3  and  N_30
REMARK    5  A    between atoms: C_9  and  C_11
REMARK    6  A    between atoms: C_11  and  O_12
REMARK    7  A    between atoms: O_12  and  C_13
REMARK    8  A    between atoms: C_23  and  C_26
REMARK    9  A    between atoms: N_30  and  C_31
REMARK   10  A    between atoms: C_31  and  C_32
REMARK   11  A    between atoms: C_32  and  C_33
REMARK                            x       y       z     vdW  Elec       q    Type
REMARK                         _______ _______ _______ _____ _____    ______ ____
ROOT
ATOM      1  C   UNL     1      -1.042   1.277  -1.203  0.00  0.00    +0.028 A 
ATOM      2  C   UNL     1      -1.787   0.285  -1.813  0.00  0.00    +0.021 A 
ATOM      3  C   UNL     1      -2.564   0.606  -2.915  0.00  0.00    +0.004 A 
ATOM      4  C   UNL     1      -2.563   1.918  -3.365  0.00  0.00    +0.027 A 
ATOM      5  C   UNL     1      -1.793   2.855  -2.704  0.00  0.00    +0.079 A 
ATOM      6  N   UNL     1      -1.069   2.515  -1.655  0.00  0.00    -0.255 NA
ENDROOT
BRANCH   1   7
ATOM      7  C   UNL     1      -0.194   0.940  -0.004  0.00  0.00    -0.022 C 
BRANCH   7   8
ATOM      8  N   UNL     1      -0.709   1.648   1.175  0.00  0.00    +0.385 N 
ATOM      9  H   UNL     1      -0.271   2.656   1.218  0.00  0.00    -0.085 HD
ATOM     10  H   UNL     1      -1.804   1.728   1.106  0.00  0.00    -0.085 HD
BRANCH   8  11
ATOM     11  C   UNL     1      -0.367   0.932   2.411  0.00  0.00    -0.077 C 
BRANCH  11  12
ATOM     12  C   UNL     1      -1.028   1.627   3.603  0.00  0.00    +0.016 C 
BRANCH  12  13
ATOM     13  C   UNL     1      -0.676   0.892   4.871  0.00  0.00    -0.049 A 
ATOM     14  C   UNL     1      -1.485  -0.133   5.323  0.00  0.00    +0.003 A 
ATOM     15  C   UNL     1      -1.160  -0.811   6.483  0.00  0.00    +0.000 A 
ATOM     16  C   UNL     1      -0.031  -0.455   7.197  0.00  0.00    +0.000 A 
ATOM     17  C   UNL     1       0.775   0.574   6.749  0.00  0.00    +0.000 A 
ATOM     18  C   UNL     1       0.453   1.248   5.585  0.00  0.00    +0.003 A 
ENDBRANCH  12  13
ENDBRANCH  11  12
ENDBRANCH   8  11
ENDBRANCH   7   8
BRANCH   7  20
ATOM     19  C   UNL     1       1.834   0.531  -1.406  0.00  0.00    +0.002 C 
ATOM     20  C   UNL     1       1.252   1.369  -0.265  0.00  0.00    -0.013 C 
ENDBRANCH   7  20
ENDBRANCH   1   7
BRANCH   5  21
ATOM     21  C   UNL     1      -1.784   4.284  -3.183  0.00  0.00    +0.286 C 
BRANCH  21  22
ATOM     22  O   UNL     1      -2.641   4.410  -4.320  0.00  0.00    -0.469 OA
BRANCH  22  23
ATOM     23  C   UNL     1      -2.746   5.642  -4.878  0.00  0.00    +0.241 A 
ATOM     24  C   UNL     1      -3.604   5.841  -6.051  0.00  0.00    +0.049 A 
ATOM     25  C   UNL     1      -4.333   4.792  -6.612  0.00  0.00    +0.014 A 
ATOM     26  C   UNL     1      -5.130   5.028  -7.710  0.00  0.00    +0.001 A 
ATOM     27  C   UNL     1      -5.220   6.300  -8.262  0.00  0.00    +0.001 A 
ATOM     28  C   UNL     1      -4.514   7.351  -7.721  0.00  0.00    +0.012 A 
ATOM     29  C   UNL     1      -3.701   7.135  -6.609  0.00  0.00    +0.033 A 
ATOM     30  C   UNL     1      -2.926   8.215  -5.991  0.00  0.00    +0.186 A 
ATOM     31  N   UNL     1      -2.783   9.498  -6.248  0.00  0.00    -0.127 NA
ATOM     32  N   UNL     1      -1.973  10.019  -5.394  0.00  0.00    -0.123 NA
ATOM     33  C   UNL     1      -1.559   9.107  -4.552  0.00  0.00    +0.258 A 
ATOM     34  N   UNL     1      -2.147   7.931  -4.899  0.00  0.00    -0.185 N 
ATOM     35  N   UNL     1      -2.080   6.642  -4.371  0.00  0.00    -0.125 NA
BRANCH  33  36
ATOM     36  C   UNL     1      -0.604   9.321  -3.406  0.00  0.00    +0.454 C 
ATOM     37  F   UNL     1      -0.479  10.691  -3.152  0.00  0.00    -0.163 F 
ATOM     38  F   UNL     1      -1.094   8.678  -2.264  0.00  0.00    -0.163 F 
ATOM     39  F   UNL     1       0.648   8.792  -3.738  0.00  0.00    -0.163 F 
ENDBRANCH  33  36
ENDBRANCH  22  23
ENDBRANCH  21  22
ENDBRANCH   5  21
TORSDOF 10
