REMARK  Name = ZINC09065159
REMARK  6 active torsions:
REMARK  status: ('A' for Active; 'I' for Inactive)
REMARK    1  A    between atoms: C_4  and  C_7
REMARK    2  A    between atoms: N_9  and  C_10
REMARK    3  A    between atoms: C_10  and  C_12
REMARK    4  A    between atoms: C_10  and  C_24
REMARK    5  A    between atoms: N_26  and  N_27
REMARK    6  A    between atoms: C_28  and  C_29
REMARK                            x       y       z     vdW  Elec       q    Type
REMARK                         _______ _______ _______ _____ _____    ______ ____
ROOT
ATOM      1  C   UNL     1       4.866   8.077   0.000  0.00  0.00    +0.212 C 
ENDROOT
BRANCH   1   2
ATOM      2  C   UNL     1       5.674   7.720   1.222  0.00  0.00    +0.099 A 
ATOM      3  C   UNL     1       6.538   6.540   1.207  0.00  0.00    +0.013 A 
ATOM      4  C   UNL     1       6.653   5.724   0.080  0.00  0.00    +0.010 A 
ATOM      5  C   UNL     1       7.480   4.636   0.114  0.00  0.00    +0.001 A 
ATOM      6  C   UNL     1       8.212   4.331   1.254  0.00  0.00    +0.001 A 
ATOM      7  C   UNL     1       8.123   5.120   2.379  0.00  0.00    +0.014 A 
ATOM      8  C   UNL     1       7.287   6.236   2.368  0.00  0.00    +0.050 A 
ATOM      9  C   UNL     1       7.148   7.117   3.534  0.00  0.00    +0.272 A 
ATOM     10  O   UNL     1       7.768   6.892   4.558  0.00  0.00    -0.266 OA
ATOM     11  N   UNL     1       6.320   8.179   3.450  0.00  0.00    -0.242 N 
ATOM     12  H   UNL     1       6.201   8.853   4.311  0.00  0.00    +0.192 HD
ATOM     13  N   UNL     1       5.598   8.457   2.289  0.00  0.00    -0.173 NA
ENDBRANCH   1   2
BRANCH   1  16
ATOM     14  C   UNL     1       5.472  10.386  -0.486  0.00  0.00    +0.245 C 
ATOM     15  O   UNL     1       6.524   9.983  -0.943  0.00  0.00    -0.270 OA
ATOM     16  N   UNL     1       4.574   9.512   0.011  0.00  0.00    -0.295 N 
ATOM     17  H   UNL     1       3.622   9.877   0.424  0.00  0.00    +0.150 HD
BRANCH  14  21
ATOM     18  C   UNL     1       4.624  14.549  -0.456  0.00  0.00    +0.000 A 
ATOM     19  C   UNL     1       5.823  14.093  -0.977  0.00  0.00    +0.001 A 
ATOM     20  C   UNL     1       6.104  12.743  -0.989  0.00  0.00    +0.013 A 
ATOM     21  C   UNL     1       5.177  11.835  -0.475  0.00  0.00    +0.037 A 
ATOM     22  C   UNL     1       3.967  12.300   0.043  0.00  0.00    +0.013 A 
ATOM     23  C   UNL     1       3.701  13.654   0.054  0.00  0.00    +0.001 A 
ENDBRANCH  14  21
ENDBRANCH   1  16
BRANCH   1  24
ATOM     24  C   UNL     1       3.574   7.301   0.008  0.00  0.00    +0.259 C 
ATOM     25  O   UNL     1       2.513   7.890   0.021  0.00  0.00    -0.272 OA
ATOM     26  N   UNL     1       3.597   5.954   0.001  0.00  0.00    -0.205 N 
ATOM     27  H   UNL     1       4.559   5.420  -0.011  0.00  0.00    +0.177 HD
BRANCH  26  28
ATOM     28  N   UNL     1       2.396   5.232   0.008  0.00  0.00    -0.188 NA
ATOM     29  C   UNL     1       2.418   3.935   0.001  0.00  0.00    +0.141 C 
BRANCH  29  30
ATOM     30  C   UNL     1       1.154   3.176   0.008  0.00  0.00    +0.030 A 
ATOM     31  C   UNL     1       1.173   1.779   0.000  0.00  0.00    +0.012 A 
ATOM     32  C   UNL     1      -0.013   1.076   0.008  0.00  0.00    +0.001 A 
ATOM     33  C   UNL     1      -1.222   1.749   0.017  0.00  0.00    +0.003 A 
ATOM     34  C   UNL     1      -1.251   3.132   0.031  0.00  0.00    +0.039 A 
ATOM     35  C   UNL     1      -0.071   3.851   0.023  0.00  0.00    +0.132 A 
ATOM     36  F   UNL     1      -0.101   5.202   0.030  0.00  0.00    -0.205 F 
ENDBRANCH  29  30
ENDBRANCH  26  28
ENDBRANCH   1  24
TORSDOF 6
