REMARK  Name = ZINC14466014
REMARK  3 active torsions:
REMARK  status: ('A' for Active; 'I' for Inactive)
REMARK    1  A    between atoms: C_5  and  C_7
REMARK    2  A    between atoms: C_18  and  S_23
REMARK    3  A    between atoms: S_23  and  N_26
REMARK                            x       y       z     vdW  Elec       q    Type
REMARK                         _______ _______ _______ _____ _____    ______ ____
ROOT
ATOM      1  C   UNL     1      -1.388  -0.425  -0.440  0.00  0.00    +0.106 C 
ATOM      2  C   UNL     1       0.039   0.011  -0.160  0.00  0.00    +0.029 C 
ATOM      3  C   UNL     1       1.056  -0.151  -1.297  0.00  0.00    +0.033 C 
ATOM      4  C   UNL     1       2.040   0.981  -0.994  0.00  0.00    -0.030 C 
ATOM      5  C   UNL     1       1.427   1.945  -0.317  0.00  0.00    -0.023 C 
ATOM      6  C   UNL     1       0.002   1.568  -0.140  0.00  0.00    +0.049 C 
ATOM      7  C   UNL     1      -0.776   1.987   1.047  0.00  0.00    -0.018 A 
ATOM      8  C   UNL     1      -0.477   3.125   1.763  0.00  0.00    +0.034 A 
ATOM      9  C   UNL     1      -1.243   3.483   2.858  0.00  0.00    +0.106 A 
ATOM     10  C   UNL     1      -2.316   2.697   3.236  0.00  0.00    +0.030 A 
ATOM     11  C   UNL     1      -2.621   1.553   2.528  0.00  0.00    +0.025 A 
ATOM     12  C   UNL     1      -1.854   1.181   1.431  0.00  0.00    +0.031 A 
ATOM     13  N   UNL     1      -2.173   0.007   0.738  0.00  0.00    -0.336 N 
ATOM     14  H   UNL     1      -2.923  -0.532   1.034  0.00  0.00    +0.147 HD
ENDROOT
BRANCH   1  19
ATOM     15  C   UNL     1      -0.478  -4.085  -0.271  0.00  0.00    +0.000 A 
ATOM     16  C   UNL     1      -1.580  -4.672  -0.866  0.00  0.00    +0.001 A 
ATOM     17  C   UNL     1      -2.619  -3.885  -1.323  0.00  0.00    +0.020 A 
ATOM     18  C   UNL     1      -2.558  -2.509  -1.185  0.00  0.00    +0.046 A 
ATOM     19  C   UNL     1      -1.456  -1.923  -0.590  0.00  0.00    -0.009 A 
ATOM     20  C   UNL     1      -0.414  -2.711  -0.137  0.00  0.00    +0.007 A 
ATOM     21 CL   UNL     1      -3.864  -1.520  -1.760  0.00  0.00    -0.083 Cl
ENDBRANCH   1  19
BRANCH   9  22
ATOM     22  S   UNL     1      -0.852   4.939   3.769  0.00  0.00    +0.061 S 
ATOM     23  O   UNL     1      -0.136   5.792   2.885  0.00  0.00    -0.153 OA
ATOM     24  O   UNL     1      -2.049   5.346   4.417  0.00  0.00    -0.153 OA
BRANCH  22  25
ATOM     25  N   UNL     1       0.207   4.500   4.964  0.00  0.00    -0.177 NA
ATOM     26  C   UNL     1      -0.324   4.095   6.246  0.00  0.00    +0.109 C 
ATOM     27  C   UNL     1      -0.483   5.326   7.162  0.00  0.00    +0.017 C 
ATOM     28  C   UNL     1       0.837   5.817   7.590  0.00  0.00    +0.001 C 
ATOM     29  C   UNL     1       1.725   6.304   6.449  0.00  0.00    +0.001 C 
ATOM     30  C   UNL     1       2.460   5.130   5.851  0.00  0.00    +0.017 C 
ATOM     31  C   UNL     1       1.654   4.543   4.678  0.00  0.00    +0.109 C 
ENDBRANCH  22  25
ENDBRANCH   9  22
TORSDOF 3
