REMARK  Name = ZINC14987042
REMARK  10 active torsions:
REMARK  status: ('A' for Active; 'I' for Inactive)
REMARK    1  A    between atoms: C_1  and  O_2
REMARK    2  A    between atoms: O_2  and  C_3
REMARK    3  A    between atoms: C_3  and  C_5
REMARK    4  A    between atoms: C_5  and  N_6
REMARK    5  A    between atoms: C_14  and  C_17
REMARK    6  A    between atoms: C_17  and  N_69
REMARK    7  A    between atoms: C_20  and  C_23
REMARK    8  A    between atoms: C_23  and  C_24
REMARK    9  A    between atoms: C_23  and  C_30
REMARK   10  A    between atoms: C_23  and  O_36
REMARK                            x       y       z     vdW  Elec       q    Type
REMARK                         _______ _______ _______ _____ _____    ______ ____
ROOT
ATOM      1  C   UNL     1      -5.055   1.495  -2.858  0.00  0.00    -0.078 C 
ATOM      2  C   UNL     1      -6.178   2.467  -3.231  0.00  0.00    -0.012 C 
ATOM      3  C   UNL     1      -6.603   2.217  -4.680  0.00  0.00    +0.026 C 
ATOM      4  C   UNL     1      -7.046   0.758  -4.829  0.00  0.00    -0.012 C 
ATOM      5  C   UNL     1      -5.899  -0.164  -4.411  0.00  0.00    -0.078 C 
ATOM      6  N   UNL     1      -5.553   0.110  -3.000  0.00  0.00    +0.383 N 
ATOM      7  H   UNL     1      -6.395  -0.001  -2.423  0.00  0.00    -0.081 HD
ENDROOT
BRANCH   6   8
ATOM      8  C   UNL     1      -4.525  -0.845  -2.537  0.00  0.00    -0.038 C 
BRANCH   8  17
ATOM      9  N   UNL     1      -2.430   0.973   0.019  0.00  0.00    -0.297 N 
ATOM     10  C   UNL     1      -2.935   0.518   1.218  0.00  0.00    +0.054 A 
ATOM     11  C   UNL     1      -2.415   0.964   2.429  0.00  0.00    +0.046 A 
ATOM     12  C   UNL     1      -2.939   0.492   3.614  0.00  0.00    +0.043 A 
ATOM     13  C   UNL     1      -3.983  -0.426   3.612  0.00  0.00    +0.021 A 
ATOM     14  C   UNL     1      -4.508  -0.877   2.435  0.00  0.00    +0.011 A 
ATOM     15  C   UNL     1      -3.992  -0.412   1.221  0.00  0.00    -0.001 A 
ATOM     16  C   UNL     1      -4.532  -0.875  -0.058  0.00  0.00    +0.017 A 
ATOM     17  C   UNL     1      -3.992  -0.389  -1.204  0.00  0.00    +0.001 A 
ATOM     18  C   UNL     1      -2.937   0.546  -1.151  0.00  0.00    +0.254 A 
ATOM     19  O   UNL     1      -2.470   0.974  -2.192  0.00  0.00    -0.267 OA
ATOM     20 CL   UNL     1      -2.288   1.050   5.124  0.00  0.00    -0.083 Cl
BRANCH   9  21
ATOM     21  C   UNL     1      -1.329   1.940   0.019  0.00  0.00    +0.245 C 
BRANCH  21  22
ATOM     22  C   UNL     1      -0.014   1.204   0.009  0.00  0.00    +0.327 C 
ATOM     23  O   UNL     1       0.002  -0.004   0.002  0.00  0.00    -0.249 OA
BRANCH  22  25
ATOM     24  C   UNL     1       2.367   1.117  -0.015  0.00  0.00    +0.280 C 
ATOM     25  O   UNL     1       1.139   1.891   0.001  0.00  0.00    -0.467 OA
ENDBRANCH  22  25
ENDBRANCH  21  22
ENDBRANCH   9  21
ENDBRANCH   8  17
ENDBRANCH   6   8
BRANCH   3  26
ATOM     26  C   UNL     1      -7.765   3.144  -5.040  0.00  0.00    +0.119 C 
BRANCH  26  27
ATOM     27  C   UNL     1      -7.328   4.578  -4.893  0.00  0.00    -0.011 A 
ATOM     28  C   UNL     1      -6.004   4.922  -5.096  0.00  0.00    +0.007 A 
ATOM     29  C   UNL     1      -5.604   6.238  -4.965  0.00  0.00    +0.000 A 
ATOM     30  C   UNL     1      -6.525   7.210  -4.622  0.00  0.00    +0.000 A 
ATOM     31  C   UNL     1      -7.848   6.866  -4.415  0.00  0.00    +0.000 A 
ATOM     32  C   UNL     1      -8.249   5.550  -4.550  0.00  0.00    +0.007 A 
ENDBRANCH  26  27
BRANCH  26  33
ATOM     33  C   UNL     1      -8.186   2.891  -6.465  0.00  0.00    -0.011 A 
ATOM     34  C   UNL     1      -7.256   2.466  -7.396  0.00  0.00    +0.007 A 
ATOM     35  C   UNL     1      -7.644   2.230  -8.702  0.00  0.00    +0.000 A 
ATOM     36  C   UNL     1      -8.959   2.428  -9.079  0.00  0.00    +0.000 A 
ATOM     37  C   UNL     1      -9.888   2.856  -8.149  0.00  0.00    +0.000 A 
ATOM     38  C   UNL     1      -9.501   3.088  -6.843  0.00  0.00    +0.007 A 
ENDBRANCH  26  33
BRANCH  26  39
ATOM     39  O   UNL     1      -8.866   2.889  -4.166  0.00  0.00    -0.379 OA
ATOM     40  H   UNL     1      -8.667   3.032  -3.231  0.00  0.00    +0.211 HD
ENDBRANCH  26  39
ENDBRANCH   3  26
TORSDOF 9
