REMARK  Name = ZINC09460203
REMARK  7 active torsions:
REMARK  status: ('A' for Active; 'I' for Inactive)
REMARK    1  A    between atoms: C_1  and  C_2
REMARK    2  A    between atoms: N_11  and  C_15
REMARK    3  A    between atoms: C_15  and  C_16
REMARK    4  A    between atoms: N_18  and  C_19
REMARK    5  A    between atoms: C_19  and  C_20
REMARK    6  A    between atoms: C_20  and  C_22
REMARK    7  A    between atoms: C_20  and  C_29
REMARK                            x       y       z     vdW  Elec       q    Type
REMARK                         _______ _______ _______ _____ _____    ______ ____
ROOT
ATOM      1  C   UNL     1       4.221   5.612   2.325  0.00  0.00    +0.231 C 
ATOM      2  O   UNL     1       4.332   4.767   3.188  0.00  0.00    -0.274 OA
ATOM      3  N   UNL     1       3.353   5.429   1.310  0.00  0.00    -0.313 N 
ATOM      4  H   UNL     1       3.265   6.105   0.620  0.00  0.00    +0.149 HD
ENDROOT
BRANCH   1   5
ATOM      5  C   UNL     1       5.054   6.867   2.387  0.00  0.00    +0.213 C 
BRANCH   5  15
ATOM      6  C   UNL     1       7.647   9.283   5.051  0.00  0.00    +0.010 C 
ATOM      7  C   UNL     1       7.293   8.365   6.223  0.00  0.00    +0.018 C 
ATOM      8  C   UNL     1       6.244   9.045   7.105  0.00  0.00    +0.006 C 
ATOM      9  C   UNL     1       5.876   8.118   8.265  0.00  0.00    +0.000 C 
ATOM     10  C   UNL     1       5.296   6.814   7.713  0.00  0.00    +0.003 C 
ATOM     11  C   UNL     1       6.342   6.125   6.833  0.00  0.00    +0.035 C 
ATOM     12  C   UNL     1       6.737   7.050   5.687  0.00  0.00    +0.115 C 
ATOM     13  C   UNL     1       5.554   7.312   4.783  0.00  0.00    +0.247 C 
ATOM     14  O   UNL     1       4.506   7.844   5.081  0.00  0.00    -0.273 OA
ATOM     15  N   UNL     1       5.910   6.826   3.575  0.00  0.00    -0.215 N 
ATOM     16  C   UNL     1       7.144   6.308   3.596  0.00  0.00    +0.310 C 
ATOM     17  O   UNL     1       7.686   5.814   2.627  0.00  0.00    -0.252 OA
ATOM     18  N   UNL     1       7.717   6.396   4.812  0.00  0.00    -0.285 N 
ATOM     19  H   UNL     1       8.603   6.087   5.060  0.00  0.00    +0.151 HD
ENDBRANCH   5  15
ENDBRANCH   1   5
BRANCH   3  20
ATOM     20  C   UNL     1       2.544   4.210   1.249  0.00  0.00    +0.117 C 
BRANCH  20  21
ATOM     21  C   UNL     1       1.650   4.252   0.009  0.00  0.00    +0.069 C 
BRANCH  21  22
ATOM     22  C   UNL     1       0.730   3.058   0.011  0.00  0.00    -0.013 A 
ATOM     23  C   UNL     1       1.098   1.767   0.001  0.00  0.00    +0.088 A 
ATOM     24  N   UNL     1      -0.011   0.966   0.007  0.00  0.00    -0.360 N 
ATOM     25  H   UNL     1       0.002  -0.004   0.002  0.00  0.00    +0.165 HD
ATOM     26  C   UNL     1      -1.149   1.741   0.016  0.00  0.00    +0.047 A 
ATOM     27  C   UNL     1      -0.734   3.086   0.024  0.00  0.00    +0.003 A 
ATOM     28  C   UNL     1      -1.685   4.108   0.038  0.00  0.00    +0.010 A 
ATOM     29  C   UNL     1      -3.016   3.796   0.048  0.00  0.00    +0.001 A 
ATOM     30  C   UNL     1      -3.430   2.472   0.045  0.00  0.00    +0.002 A 
ATOM     31  C   UNL     1      -2.508   1.447   0.032  0.00  0.00    +0.026 A 
ENDBRANCH  21  22
BRANCH  21  32
ATOM     32  C   UNL     1       2.508   4.223  -1.230  0.00  0.00    -0.020 A 
ATOM     33  C   UNL     1       3.355   3.155  -1.459  0.00  0.00    +0.006 A 
ATOM     34  C   UNL     1       4.138   3.126  -2.598  0.00  0.00    +0.000 A 
ATOM     35  C   UNL     1       4.083   4.170  -3.502  0.00  0.00    +0.001 A 
ATOM     36  C   UNL     1       3.241   5.241  -3.272  0.00  0.00    +0.020 A 
ATOM     37  C   UNL     1       2.452   5.268  -2.135  0.00  0.00    +0.045 A 
ATOM     38 CL   UNL     1       1.394   6.613  -1.844  0.00  0.00    -0.083 Cl
ENDBRANCH  21  32
ENDBRANCH  20  21
ENDBRANCH   3  20
TORSDOF 6
