REMARK  Name = ZINC29392850
REMARK  8 active torsions:
REMARK  status: ('A' for Active; 'I' for Inactive)
REMARK    1  A    between atoms: C_1  and  C_2
REMARK    2  A    between atoms: N_11  and  C_13
REMARK    3  A    between atoms: C_13  and  C_14
REMARK    4  A    between atoms: N_16  and  C_17
REMARK    5  A    between atoms: C_20  and  S_23
REMARK    6  A    between atoms: S_23  and  N_26
REMARK    7  A    between atoms: C_28  and  C_35
REMARK    8  A    between atoms: C_31  and  C_34
REMARK                            x       y       z     vdW  Elec       q    Type
REMARK                         _______ _______ _______ _____ _____    ______ ____
ROOT
ATOM      1  C   UNL     1      -3.635  -2.149   5.068  0.00  0.00    +0.239 C 
ATOM      2  O   UNL     1      -4.045  -3.273   5.266  0.00  0.00    -0.273 OA
ATOM      3  N   UNL     1      -4.437  -1.230   4.495  0.00  0.00    -0.284 N 
ATOM      4  H   UNL     1      -4.093  -0.192   4.384  0.00  0.00    +0.155 HD
ENDROOT
BRANCH   3   5
ATOM      5  C   UNL     1      -5.709  -1.598   4.041  0.00  0.00    +0.034 A 
ATOM      6  C   UNL     1      -6.238  -1.008   2.901  0.00  0.00    +0.025 A 
ATOM      7  C   UNL     1      -7.491  -1.377   2.452  0.00  0.00    +0.030 A 
ATOM      8  C   UNL     1      -8.223  -2.325   3.143  0.00  0.00    +0.106 A 
ATOM      9  C   UNL     1      -7.701  -2.910   4.282  0.00  0.00    +0.030 A 
ATOM     10  C   UNL     1      -6.447  -2.550   4.732  0.00  0.00    +0.025 A 
BRANCH   8  11
ATOM     11  S   UNL     1      -9.824  -2.788   2.570  0.00  0.00    +0.061 S 
ATOM     12  O   UNL     1      -9.858  -2.496   1.180  0.00  0.00    -0.153 OA
ATOM     13  O   UNL     1     -10.077  -4.089   3.082  0.00  0.00    -0.153 OA
BRANCH  11  14
ATOM     14  N   UNL     1     -10.915  -1.774   3.294  0.00  0.00    -0.176 NA
ATOM     15  C   UNL     1     -11.524  -2.127   4.584  0.00  0.00    +0.112 C 
ATOM     16  C   UNL     1     -11.300  -0.966   5.564  0.00  0.00    +0.002 C 
ATOM     17  C   UNL     1     -11.840   0.326   4.948  0.00  0.00    +0.009 C 
ATOM     18  C   UNL     1     -11.079   0.634   3.656  0.00  0.00    +0.002 C 
ATOM     19  C   UNL     1     -11.297  -0.507   2.656  0.00  0.00    +0.112 C 
ATOM     20  C   UNL     1     -11.598   1.943   3.057  0.00  0.00    +0.009 C 
ATOM     21  C   UNL     1      -9.803  -0.811   5.845  0.00  0.00    +0.009 C 
ENDBRANCH  11  14
ENDBRANCH   8  11
ENDBRANCH   3   5
BRANCH   1  22
ATOM     22  C   UNL     1      -2.228  -1.780   5.462  0.00  0.00    +0.243 C 
BRANCH  22  33
ATOM     23  C   UNL     1      -1.237  -4.306   9.532  0.00  0.00    +0.068 C 
ATOM     24  C   UNL     1      -1.100  -4.150   8.040  0.00  0.00    +0.066 A 
ATOM     25  C   UNL     1      -0.332  -5.128   7.269  0.00  0.00    +0.010 A 
ATOM     26  C   UNL     1       0.279  -6.228   7.876  0.00  0.00    +0.010 A 
ATOM     27  C   UNL     1       0.981  -7.118   7.112  0.00  0.00    +0.001 A 
ATOM     28  C   UNL     1       1.091  -6.949   5.738  0.00  0.00    +0.001 A 
ATOM     29  C   UNL     1       0.494  -5.876   5.112  0.00  0.00    +0.014 A 
ATOM     30  C   UNL     1      -0.227  -4.955   5.870  0.00  0.00    +0.050 A 
ATOM     31  C   UNL     1      -0.886  -3.793   5.263  0.00  0.00    +0.275 A 
ATOM     32  O   UNL     1      -0.819  -3.599   4.062  0.00  0.00    -0.266 OA
ATOM     33  N   UNL     1      -1.567  -2.943   6.060  0.00  0.00    -0.220 N 
ATOM     34  N   UNL     1      -1.658  -3.142   7.437  0.00  0.00    -0.172 NA
ENDBRANCH  22  33
ENDBRANCH   1  22
TORSDOF 5
