REMARK  Name = ZINC04654503
REMARK  11 active torsions:
REMARK  status: ('A' for Active; 'I' for Inactive)
REMARK    1  A    between atoms: C_1  and  C_2
REMARK    2  A    between atoms: C_2  and  C_3
REMARK    3  A    between atoms: C_2  and  C_4
REMARK    4  A    between atoms: C_7  and  N_10
REMARK    5  A    between atoms: N_10  and  C_11
REMARK    6  A    between atoms: N_10  and  S_12
REMARK    7  A    between atoms: S_12  and  C_15
REMARK    8  A    between atoms: C_23  and  C_27
REMARK    9  A    between atoms: N_29  and  C_30
REMARK   10  A    between atoms: C_30  and  C_31
REMARK   11  A    between atoms: C_31  and  C_32
REMARK                            x       y       z     vdW  Elec       q    Type
REMARK                         _______ _______ _______ _____ _____    ______ ____
ROOT
ATOM      1  C   UNL     1      -1.893   7.327   1.100  0.00  0.00    +0.110 A 
ATOM      2  C   UNL     1      -3.190   7.204   1.578  0.00  0.00    +0.031 A 
ATOM      3  C   UNL     1      -3.537   6.162   2.409  0.00  0.00    +0.028 A 
ATOM      4  C   UNL     1      -2.582   5.219   2.779  0.00  0.00    +0.050 A 
ATOM      5  C   UNL     1      -1.269   5.346   2.294  0.00  0.00    +0.048 A 
ATOM      6  C   UNL     1      -0.932   6.406   1.453  0.00  0.00    +0.042 A 
ATOM      7  C   UNL     1      -0.267   4.340   2.693  0.00  0.00    +0.202 A 
ATOM      8  O   UNL     1       0.885   4.402   2.303  0.00  0.00    -0.286 OA
ATOM      9  C   UNL     1      -0.718   3.259   3.583  0.00  0.00    +0.100 A 
ATOM     10  C   UNL     1      -2.035   3.239   3.994  0.00  0.00    +0.100 A 
ATOM     11  N   UNL     1      -2.918   4.169   3.606  0.00  0.00    -0.360 N 
ATOM     12  H   UNL     1      -3.861   4.098   3.930  0.00  0.00    +0.165 HD
ENDROOT
BRANCH   9  13
ATOM     13  C   UNL     1       0.220   2.216   4.028  0.00  0.00    +0.249 C 
ATOM     14  O   UNL     1       1.379   2.243   3.659  0.00  0.00    -0.270 OA
ATOM     15  N   UNL     1      -0.205   1.231   4.844  0.00  0.00    -0.311 N 
ATOM     16  H   UNL     1      -1.129   1.209   5.137  0.00  0.00    +0.149 HD
BRANCH  15  17
ATOM     17  C   UNL     1       0.729   0.192   5.286  0.00  0.00    +0.109 C 
BRANCH  17  18
ATOM     18  C   UNL     1      -0.002  -0.796   6.197  0.00  0.00    +0.054 C 
BRANCH  18  19
ATOM     19  C   UNL     1       0.958  -1.864   6.652  0.00  0.00    -0.046 A 
ATOM     20  C   UNL     1       1.107  -3.022   5.911  0.00  0.00    +0.004 A 
ATOM     21  C   UNL     1       1.992  -3.999   6.326  0.00  0.00    +0.000 A 
ATOM     22  C   UNL     1       2.720  -3.824   7.488  0.00  0.00    +0.000 A 
ATOM     23  C   UNL     1       2.567  -2.669   8.232  0.00  0.00    +0.000 A 
ATOM     24  C   UNL     1       1.686  -1.689   7.814  0.00  0.00    +0.004 A 
ENDBRANCH  18  19
ENDBRANCH  17  18
ENDBRANCH  15  17
ENDBRANCH   9  13
BRANCH   1  25
ATOM     25  S   UNL     1      -1.473   8.669   0.038  0.00  0.00    +0.074 S 
ATOM     26  O   UNL     1      -2.490   9.649   0.201  0.00  0.00    -0.150 OA
ATOM     27  O   UNL     1      -0.099   8.952   0.264  0.00  0.00    -0.150 OA
BRANCH  25  28
ATOM     28  N   UNL     1      -1.593   8.117  -1.519  0.00  0.00    -0.206 N 
ATOM     29  C   UNL     1      -0.468   7.409  -2.134  0.00  0.00    +0.157 C 
BRANCH  28  33
ATOM     30  C   UNL     1      -5.093   8.742  -3.687  0.00  0.00    -0.045 A 
ATOM     31  C   UNL     1      -3.911   9.330  -4.100  0.00  0.00    +0.006 A 
ATOM     32  C   UNL     1      -2.749   9.125  -3.383  0.00  0.00    +0.025 A 
ATOM     33  C   UNL     1      -2.767   8.327  -2.246  0.00  0.00    +0.051 A 
ATOM     34  C   UNL     1      -3.955   7.734  -1.837  0.00  0.00    +0.025 A 
ATOM     35  C   UNL     1      -5.115   7.948  -2.555  0.00  0.00    +0.006 A 
BRANCH  30  37
ATOM     36  C   UNL     1      -6.896   7.627  -4.972  0.00  0.00    +0.012 C 
ATOM     37  C   UNL     1      -6.359   8.969  -4.471  0.00  0.00    +0.013 C 
ATOM     38  C   UNL     1      -7.404   9.632  -3.572  0.00  0.00    +0.012 C 
ENDBRANCH  30  37
ENDBRANCH  28  33
ENDBRANCH  25  28
ENDBRANCH   1  25
TORSDOF 8
