REMARK  Name = ZINC09512724
REMARK  7 active torsions:
REMARK  status: ('A' for Active; 'I' for Inactive)
REMARK    1  A    between atoms: C_1  and  C_2
REMARK    2  A    between atoms: C_2  and  C_3
REMARK    3  A    between atoms: C_3  and  C_25
REMARK    4  A    between atoms: N_6  and  C_10
REMARK    5  A    between atoms: C_10  and  C_11
REMARK    6  A    between atoms: N_13  and  C_14
REMARK    7  A    between atoms: C_15  and  C_22
REMARK                            x       y       z     vdW  Elec       q    Type
REMARK                         _______ _______ _______ _____ _____    ______ ____
ROOT
ATOM      1  C   UNL     1      -1.135  -2.201   0.001  0.00  0.00    +0.214 C 
ENDROOT
BRANCH   1   5
ATOM      2  C   UNL     1      -4.562  -3.472   0.661  0.00  0.00    +0.138 C 
ATOM      3  C   UNL     1      -3.208  -2.981   1.132  0.00  0.00    +0.251 C 
ATOM      4  O   UNL     1      -2.831  -2.858   2.277  0.00  0.00    -0.272 OA
ATOM      5  N   UNL     1      -2.510  -2.708   0.011  0.00  0.00    -0.215 N 
ATOM      6  C   UNL     1      -3.225  -2.962  -1.090  0.00  0.00    +0.310 C 
ATOM      7  O   UNL     1      -2.808  -2.798  -2.220  0.00  0.00    -0.252 OA
ATOM      8  N   UNL     1      -4.458  -3.420  -0.807  0.00  0.00    -0.281 N 
ATOM      9  H   UNL     1      -5.145  -3.668  -1.446  0.00  0.00    +0.152 HD
BRANCH   2  10
ATOM     10  C   UNL     1      -5.662  -2.563   1.147  0.00  0.00    -0.014 A 
ATOM     11  C   UNL     1      -6.346  -2.866   2.310  0.00  0.00    +0.006 A 
ATOM     12  C   UNL     1      -7.351  -2.030   2.758  0.00  0.00    +0.002 A 
ATOM     13  C   UNL     1      -7.681  -0.897   2.039  0.00  0.00    +0.020 A 
ATOM     14  C   UNL     1      -7.000  -0.596   0.873  0.00  0.00    +0.041 A 
ATOM     15  C   UNL     1      -5.990  -1.430   0.427  0.00  0.00    +0.026 A 
ATOM     16 CL   UNL     1      -7.414   0.827  -0.031  0.00  0.00    -0.084 Cl
ENDBRANCH   2  10
BRANCH   2  18
ATOM     17  C   UNL     1      -3.648  -5.797   0.673  0.00  0.00    +0.007 C 
ATOM     18  C   UNL     1      -4.804  -4.907   1.134  0.00  0.00    +0.037 C 
ENDBRANCH   2  18
ENDBRANCH   1   5
BRANCH   1  19
ATOM     19  C   UNL     1      -1.156  -0.694   0.009  0.00  0.00    +0.236 C 
ATOM     20  O   UNL     1      -2.214  -0.102   0.023  0.00  0.00    -0.274 OA
ATOM     21  N   UNL     1       0.002  -0.004   0.002  0.00  0.00    -0.278 N 
ATOM     22  H   UNL     1       0.849  -0.478  -0.009  0.00  0.00    +0.155 HD
BRANCH  21  23
ATOM     23  C   UNL     1      -0.017   1.382   0.010  0.00  0.00    +0.084 A 
ATOM     24  C   UNL     1       1.056   2.257   0.004  0.00  0.00    +0.068 A 
ATOM     25  C   UNL     1       0.761   3.690   0.014  0.00  0.00    -0.023 A 
ATOM     26  C   UNL     1      -0.546   4.004   0.030  0.00  0.00    -0.004 A 
ATOM     27  S   UNL     1      -1.387   2.439   0.021  0.00  0.00    -0.077 S 
ATOM     28  C   UNL     1      -0.769   5.492   0.043  0.00  0.00    +0.043 C 
ATOM     29  C   UNL     1       0.592   6.086   0.468  0.00  0.00    +0.010 C 
ATOM     30  C   UNL     1       1.571   4.987   0.008  0.00  0.00    +0.037 C 
BRANCH  24  31
ATOM     31  C   UNL     1       2.437   1.766  -0.011  0.00  0.00    +0.244 C 
ATOM     32  O   UNL     1       3.001   1.567  -1.071  0.00  0.00    -0.270 OA
ATOM     33  N   UNL     1       3.083   1.534   1.150  0.00  0.00    -0.325 N 
ATOM     34  H   UNL     1       2.633   1.692   1.994  0.00  0.00    +0.145 HD
ATOM     35  H   UNL     1       3.996   1.209   1.140  0.00  0.00    +0.145 HD
ENDBRANCH  24  31
ENDBRANCH  21  23
ENDBRANCH   1  19
TORSDOF 6
