REMARK  Name = ZINC08790589
REMARK  7 active torsions:
REMARK  status: ('A' for Active; 'I' for Inactive)
REMARK    1  A    between atoms: C_1  and  C_2
REMARK    2  A    between atoms: C_2  and  C_3
REMARK    3  A    between atoms: C_14  and  C_16
REMARK    4  A    between atoms: C_16  and  C_17
REMARK    5  A    between atoms: N_22  and  C_25
REMARK    6  A    between atoms: C_25  and  C_26
REMARK    7  A    between atoms: C_26  and  C_27
REMARK                            x       y       z     vdW  Elec       q    Type
REMARK                         _______ _______ _______ _____ _____    ______ ____
ROOT
ATOM      1  C   UNL     1      -5.093   4.737  -5.108  0.00  0.00    -0.047 A 
ATOM      2  C   UNL     1      -6.429   4.381  -5.081  0.00  0.00    +0.005 A 
ATOM      3  C   UNL     1      -7.027   4.010  -3.894  0.00  0.00    +0.024 A 
ATOM      4  C   UNL     1      -6.288   3.991  -2.713  0.00  0.00    +0.036 A 
ATOM      5  C   UNL     1      -4.944   4.351  -2.753  0.00  0.00    -0.027 A 
ATOM      6  C   UNL     1      -4.352   4.722  -3.939  0.00  0.00    +0.008 A 
ATOM      7  C   UNL     1      -4.445   4.228  -1.341  0.00  0.00    +0.050 C 
ATOM      8  C   UNL     1      -3.897   5.561  -0.819  0.00  0.00    +0.088 C 
ATOM      9  C   UNL     1      -2.702   5.162   0.091  0.00  0.00    +0.073 C 
ATOM     10  C   UNL     1      -2.657   3.621   0.034  0.00  0.00    -0.049 C 
ATOM     11  C   UNL     1      -1.504   5.725  -0.639  0.00  0.00    +0.224 C 
ATOM     12  O   UNL     1      -0.352   5.629  -0.274  0.00  0.00    -0.275 OA
ATOM     13  N   UNL     1      -1.913   6.344  -1.753  0.00  0.00    -0.241 N 
ATOM     14  C   UNL     1      -3.236   6.316  -1.950  0.00  0.00    +0.225 C 
ATOM     15  O   UNL     1      -3.815   6.818  -2.890  0.00  0.00    -0.275 OA
ATOM     16  C   UNL     1      -5.636   3.772  -0.543  0.00  0.00    +0.211 C 
ATOM     17  O   UNL     1      -5.667   3.550   0.649  0.00  0.00    -0.277 OA
ATOM     18  N   UNL     1      -6.662   3.659  -1.409  0.00  0.00    -0.286 N 
ATOM     19  H   UNL     1      -7.555   3.379  -1.157  0.00  0.00    +0.155 HD
ATOM     20  N   UNL     1      -3.341   3.293  -1.219  0.00  0.00    +0.394 N 
ATOM     21  H   UNL     1      -2.697   3.397  -2.012  0.00  0.00    -0.083 HD
ATOM     22  H   UNL     1      -3.693   2.329  -1.189  0.00  0.00    -0.083 HD
ENDROOT
BRANCH   1  24
ATOM     23  C   UNL     1      -4.588   6.653  -6.599  0.00  0.00    +0.009 C 
ATOM     24  C   UNL     1      -4.445   5.142  -6.407  0.00  0.00    +0.032 C 
ENDBRANCH   1  24
BRANCH  10  25
ATOM     25  C   UNL     1      -1.208   3.131   0.025  0.00  0.00    +0.080 C 
BRANCH  25  26
ATOM     26  C   UNL     1      -1.187   1.624   0.017  0.00  0.00    +0.209 C 
ATOM     27  O   UNL     1      -2.229   1.003   0.018  0.00  0.00    -0.276 OA
ATOM     28  N   UNL     1      -0.011   0.966   0.007  0.00  0.00    -0.329 N 
ATOM     29  H   UNL     1       0.002  -0.004   0.002  0.00  0.00    +0.145 HD
ATOM     30  H   UNL     1       0.822   1.462   0.002  0.00  0.00    +0.145 HD
ENDBRANCH  25  26
ENDBRANCH  10  25
BRANCH  13  31
ATOM     31  C   UNL     1      -0.988   7.001  -2.679  0.00  0.00    +0.121 C 
BRANCH  31  32
ATOM     32  C   UNL     1      -0.529   5.997  -3.739  0.00  0.00    +0.054 C 
BRANCH  32  33
ATOM     33  C   UNL     1       0.423   6.672  -4.692  0.00  0.00    -0.046 A 
ATOM     34  C   UNL     1      -0.061   7.292  -5.829  0.00  0.00    +0.004 A 
ATOM     35  C   UNL     1       0.812   7.915  -6.701  0.00  0.00    +0.000 A 
ATOM     36  C   UNL     1       2.170   7.910  -6.441  0.00  0.00    +0.000 A 
ATOM     37  C   UNL     1       2.654   7.286  -5.307  0.00  0.00    +0.000 A 
ATOM     38  C   UNL     1       1.781   6.667  -4.432  0.00  0.00    +0.004 A 
ENDBRANCH  32  33
ENDBRANCH  31  32
ENDBRANCH  13  31
TORSDOF 6
