REMARK  Name = ZINC49579045
REMARK  8 active torsions:
REMARK  status: ('A' for Active; 'I' for Inactive)
REMARK    1  A    between atoms: C_1  and  C_2
REMARK    2  A    between atoms: C_2  and  C_30
REMARK    3  A    between atoms: N_5  and  C_9
REMARK    4  A    between atoms: C_9  and  C_10
REMARK    5  A    between atoms: N_12  and  C_13
REMARK    6  A    between atoms: C_13  and  C_14
REMARK    7  A    between atoms: C_14  and  N_15
REMARK    8  A    between atoms: C_19  and  C_20
REMARK                            x       y       z     vdW  Elec       q    Type
REMARK                         _______ _______ _______ _____ _____    ______ ____
ROOT
ATOM      1  C   UNL     1      -0.993  -3.882  -0.521  0.00  0.00    +0.231 C 
ATOM      2  O   UNL     1      -0.333  -4.553  -1.286  0.00  0.00    -0.274 OA
ATOM      3  N   UNL     1      -2.057  -4.424   0.105  0.00  0.00    -0.312 N 
ATOM      4  H   UNL     1      -2.585  -3.888   0.716  0.00  0.00    +0.149 HD
ENDROOT
BRANCH   1   5
ATOM      5  C   UNL     1      -0.625  -2.442  -0.272  0.00  0.00    +0.213 C 
BRANCH   5  10
ATOM      6  C   UNL     1       2.227   0.079  -3.024  0.00  0.00    +0.047 C 
ATOM      7  C   UNL     1       1.955  -1.398  -2.731  0.00  0.00    +0.135 C 
ATOM      8  C   UNL     1       0.511  -1.603  -2.317  0.00  0.00    +0.251 C 
ATOM      9  O   UNL     1      -0.479  -1.371  -2.977  0.00  0.00    -0.272 OA
ATOM     10  N   UNL     1       0.557  -2.096  -1.064  0.00  0.00    -0.215 N 
ATOM     11  C   UNL     1       1.817  -2.230  -0.632  0.00  0.00    +0.310 C 
ATOM     12  O   UNL     1       2.112  -2.656   0.467  0.00  0.00    -0.252 OA
ATOM     13  N   UNL     1       2.719  -1.841  -1.552  0.00  0.00    -0.281 N 
ATOM     14  H   UNL     1       3.684  -1.851  -1.456  0.00  0.00    +0.152 HD
BRANCH   7  15
ATOM     15  C   UNL     1       2.292  -2.245  -3.930  0.00  0.00    -0.016 A 
ATOM     16  C   UNL     1       1.324  -2.515  -4.879  0.00  0.00    +0.006 A 
ATOM     17  C   UNL     1       1.633  -3.293  -5.980  0.00  0.00    +0.000 A 
ATOM     18  C   UNL     1       2.910  -3.800  -6.131  0.00  0.00    +0.000 A 
ATOM     19  C   UNL     1       3.878  -3.529  -5.182  0.00  0.00    +0.000 A 
ATOM     20  C   UNL     1       3.571  -2.748  -4.084  0.00  0.00    +0.006 A 
ENDBRANCH   7  15
ENDBRANCH   5  10
ENDBRANCH   1   5
BRANCH   3  21
ATOM     21  C   UNL     1      -2.414  -5.824  -0.138  0.00  0.00    +0.123 C 
BRANCH  21  22
ATOM     22  C   UNL     1      -3.650  -6.186   0.689  0.00  0.00    +0.136 C 
BRANCH  22  23
ATOM     23  N   UNL     1      -4.008  -7.585   0.446  0.00  0.00    -0.227 N 
ATOM     24  C   UNL     1      -4.842  -7.877  -0.537  0.00  0.00    +0.260 C 
ATOM     25  O   UNL     1      -5.321  -7.013  -1.247  0.00  0.00    -0.269 OA
ATOM     26  C   UNL     1      -5.162  -9.307  -0.730  0.00  0.00    +0.080 C 
ATOM     27  C   UNL     1      -5.974  -9.895  -1.644  0.00  0.00    +0.031 C 
ATOM     28  S   UNL     1      -4.187 -10.047   0.572  0.00  0.00    -0.026 S 
ATOM     29  C   UNL     1      -3.474  -8.547   1.227  0.00  0.00    +0.286 C 
ATOM     30  O   UNL     1      -2.697  -8.422   2.155  0.00  0.00    -0.262 OA
BRANCH  27  31
ATOM     31  C   UNL     1      -6.812  -9.068  -2.522  0.00  0.00    +0.011 A 
ATOM     32  C   UNL     1      -7.477  -7.948  -2.011  0.00  0.00    +0.011 A 
ATOM     33  C   UNL     1      -8.262  -7.178  -2.841  0.00  0.00    +0.001 A 
ATOM     34  C   UNL     1      -8.393  -7.507  -4.180  0.00  0.00    +0.003 A 
ATOM     35  C   UNL     1      -7.740  -8.611  -4.696  0.00  0.00    +0.039 A 
ATOM     36  C   UNL     1      -6.946  -9.393  -3.879  0.00  0.00    +0.131 A 
ATOM     37  F   UNL     1      -6.304 -10.469  -4.386  0.00  0.00    -0.205 F 
ENDBRANCH  27  31
ENDBRANCH  22  23
ENDBRANCH  21  22
ENDBRANCH   3  21
TORSDOF 7
