REMARK  Name = ZINC11314570
REMARK  11 active torsions:
REMARK  status: ('A' for Active; 'I' for Inactive)
REMARK    1  A    between atoms: C_1  and  C_2
REMARK    2  A    between atoms: C_8  and  N_10
REMARK    3  A    between atoms: C_14  and  C_16
REMARK    4  A    between atoms: C_16  and  S_17
REMARK    5  A    between atoms: S_17  and  C_18
REMARK    6  A    between atoms: C_21  and  C_28
REMARK    7  A    between atoms: N_22  and  C_23
REMARK    8  A    between atoms: C_23  and  C_24
REMARK    9  A    between atoms: C_24  and  C_25
REMARK   10  A    between atoms: C_25  and  O_26
REMARK   11  A    between atoms: O_26  and  C_27
REMARK                            x       y       z     vdW  Elec       q    Type
REMARK                         _______ _______ _______ _____ _____    ______ ____
ROOT
ATOM      1  S   UNL     1       2.848  -5.681  -0.542  0.00  0.00    -0.077 S 
ENDROOT
BRANCH   1   2
ATOM      2  C   UNL     1       1.894  -4.233  -0.230  0.00  0.00    +0.192 A 
ATOM      3  N   UNL     1       0.594  -4.181  -0.046  0.00  0.00    -0.122 NA
ATOM      4  N   UNL     1       0.226  -2.967   0.162  0.00  0.00    -0.128 NA
ATOM      5  C   UNL     1       1.267  -2.169   0.116  0.00  0.00    +0.166 A 
ATOM      6  N   UNL     1       2.368  -2.956  -0.134  0.00  0.00    -0.302 N 
BRANCH   5   7
ATOM      7  C   UNL     1       1.260  -0.703   0.303  0.00  0.00    +0.038 A 
ATOM      8  C   UNL     1       1.924   0.123  -0.605  0.00  0.00    +0.013 A 
ATOM      9  C   UNL     1       1.913   1.491  -0.425  0.00  0.00    +0.001 A 
ATOM     10  C   UNL     1       1.245   2.045   0.653  0.00  0.00    +0.001 A 
ATOM     11  C   UNL     1       0.585   1.233   1.557  0.00  0.00    +0.021 A 
ATOM     12  C   UNL     1       0.588  -0.138   1.389  0.00  0.00    +0.052 A 
ATOM     13 CL   UNL     1      -0.242  -1.155   2.524  0.00  0.00    -0.083 Cl
ENDBRANCH   5   7
BRANCH   6  14
ATOM     14  C   UNL     1       3.759  -2.516  -0.267  0.00  0.00    +0.128 C 
BRANCH  14  15
ATOM     15  C   UNL     1       4.420  -2.488   1.113  0.00  0.00    +0.050 C 
BRANCH  15  16
ATOM     16  C   UNL     1       5.872  -2.028   0.974  0.00  0.00    +0.161 C 
BRANCH  16  17
ATOM     17  O   UNL     1       6.489  -2.002   2.262  0.00  0.00    -0.383 OA
ATOM     18  C   UNL     1       7.856  -1.583   2.244  0.00  0.00    +0.193 C 
ENDBRANCH  16  17
ENDBRANCH  15  16
ENDBRANCH  14  15
ENDBRANCH   6  14
ENDBRANCH   1   2
BRANCH   1  19
ATOM     19  C   UNL     1       1.538  -6.931  -0.522  0.00  0.00    +0.173 C 
BRANCH  19  24
ATOM     20  N   UNL     1       1.089 -11.686  -1.061  0.00  0.00    -0.296 N 
ATOM     21  C   UNL     1       1.880 -10.596  -1.031  0.00  0.00    +0.306 C 
ATOM     22  O   UNL     1       3.078 -10.710  -1.208  0.00  0.00    -0.252 OA
ATOM     23  N   UNL     1       1.345  -9.380  -0.805  0.00  0.00    -0.239 N 
ATOM     24  C   UNL     1       2.137  -8.290  -0.775  0.00  0.00    +0.231 C 
ATOM     25  O   UNL     1       3.331  -8.403  -0.952  0.00  0.00    -0.274 OA
ATOM     26  H   UNL     1       0.133 -11.596  -0.920  0.00  0.00    +0.151 HD
ATOM     27  H   UNL     1       0.390  -9.290  -0.664  0.00  0.00    +0.159 HD
BRANCH  20  34
ATOM     28  C   UNL     1       0.096 -13.346  -3.217  0.00  0.00    +0.009 C 
ATOM     29  C   UNL     1       0.605 -13.933  -1.899  0.00  0.00    +0.006 C 
ATOM     30  C   UNL     1       1.213 -15.313  -2.156  0.00  0.00    +0.005 C 
ATOM     31  C   UNL     1       1.721 -15.899  -0.837  0.00  0.00    +0.000 C 
ATOM     32  C   UNL     1       2.787 -14.975  -0.245  0.00  0.00    +0.002 C 
ATOM     33  C   UNL     1       2.179 -13.595   0.011  0.00  0.00    +0.022 C 
ATOM     34  C   UNL     1       1.671 -13.008  -1.307  0.00  0.00    +0.077 C 
ENDBRANCH  20  34
ENDBRANCH  19  24
ENDBRANCH   1  19
TORSDOF 9
