REMARK  Name = ZINC09452127
REMARK  13 active torsions:
REMARK  status: ('A' for Active; 'I' for Inactive)
REMARK    1  A    between atoms: C_1  and  C_2
REMARK    2  A    between atoms: C_2  and  N_63
REMARK    3  A    between atoms: C_3  and  C_4
REMARK    4  A    between atoms: C_3  and  N_63
REMARK    5  A    between atoms: C_5  and  C_6
REMARK    6  A    between atoms: C_5  and  N_63
REMARK    7  A    between atoms: C_6  and  N_7
REMARK    8  A    between atoms: C_8  and  C_28
REMARK    9  A    between atoms: C_10  and  C_15
REMARK   10  A    between atoms: C_11  and  O_14
REMARK   11  A    between atoms: C_15  and  C_17
REMARK   12  A    between atoms: C_24  and  C_27
REMARK   13  A    between atoms: C_32  and  O_34
REMARK                            x       y       z     vdW  Elec       q    Type
REMARK                         _______ _______ _______ _____ _____    ______ ____
ROOT
ATOM      1  N   UNL     1      -1.998  -2.720  -0.144  0.00  0.00    -0.285 N 
ATOM      2  C   UNL     1      -1.442  -1.363  -0.071  0.00  0.00    +0.144 C 
ATOM      3  C   UNL     1      -2.625  -0.423  -0.059  0.00  0.00    +0.071 C 
ATOM      4  C   UNL     1      -3.736  -1.193  -0.129  0.00  0.00    +0.188 C 
ATOM      5  C   UNL     1      -3.338  -2.616  -0.181  0.00  0.00    +0.282 C 
ATOM      6  O   UNL     1      -4.109  -3.553  -0.248  0.00  0.00    -0.267 OA
ENDROOT
BRANCH   2   7
ATOM      7  C   UNL     1      -0.640  -1.202   1.195  0.00  0.00    -0.019 A 
ATOM      8  C   UNL     1      -1.034  -1.853   2.349  0.00  0.00    +0.006 A 
ATOM      9  C   UNL     1      -0.300  -1.708   3.512  0.00  0.00    +0.004 A 
ATOM     10  C   UNL     1       0.828  -0.911   3.523  0.00  0.00    +0.045 A 
ATOM     11  C   UNL     1       1.226  -0.257   2.366  0.00  0.00    +0.117 A 
ATOM     12  C   UNL     1       0.491  -0.409   1.199  0.00  0.00    +0.051 A 
BRANCH  11  13
ATOM     13  O   UNL     1       2.336   0.527   2.374  0.00  0.00    -0.507 OA
ATOM     14  H   UNL     1       3.151   0.056   2.152  0.00  0.00    +0.292 HD
ENDBRANCH  11  13
ENDBRANCH   2   7
BRANCH   4  15
ATOM     15  O   UNL     1      -5.008  -0.734  -0.147  0.00  0.00    -0.502 OA
ATOM     16  H   UNL     1      -5.641  -1.506  -0.202  0.00  0.00    +0.292 HD
ENDBRANCH   4  15
BRANCH   3  17
ATOM     17  C   UNL     1      -2.579   1.041   0.008  0.00  0.00    +0.195 C 
ATOM     18  O   UNL     1      -3.001   1.618   0.993  0.00  0.00    -0.287 OA
BRANCH  17  19
ATOM     19  C   UNL     1      -2.021   1.814  -1.119  0.00  0.00    +0.023 A 
ATOM     20  C   UNL     1      -1.461   1.155  -2.218  0.00  0.00    +0.015 A 
ATOM     21  C   UNL     1      -0.950   1.876  -3.269  0.00  0.00    +0.046 A 
ATOM     22  C   UNL     1      -0.977   3.272  -3.249  0.00  0.00    +0.124 A 
ATOM     23  C   UNL     1      -1.525   3.923  -2.148  0.00  0.00    -0.002 A 
ATOM     24  C   UNL     1      -2.042   3.213  -1.093  0.00  0.00    +0.019 A 
ATOM     25  C   UNL     1      -1.401   5.413  -2.406  0.00  0.00    +0.083 C 
ATOM     26  C   UNL     1      -0.375   5.451  -3.563  0.00  0.00    +0.175 C 
ATOM     27  O   UNL     1      -0.540   4.163  -4.179  0.00  0.00    -0.488 OA
ATOM     28  C   UNL     1      -0.712   6.571  -4.549  0.00  0.00    +0.052 C 
ENDBRANCH  17  19
ENDBRANCH   3  17
BRANCH   1  29
ATOM     29  C   UNL     1      -1.228  -3.966  -0.178  0.00  0.00    +0.090 C 
BRANCH  29  30
ATOM     30  C   UNL     1      -0.916  -4.334  -1.629  0.00  0.00    -0.060 C 
BRANCH  30  31
ATOM     31  N   UNL     1      -0.121  -5.580  -1.645  0.00  0.00    +0.380 N 
ATOM     32  H   UNL     1       0.680  -5.473  -1.013  0.00  0.00    -0.082 HD
BRANCH  31  34
ATOM     33  C   UNL     1      -2.121  -6.947  -2.137  0.00  0.00    -0.017 C 
ATOM     34  C   UNL     1      -0.950  -6.713  -1.181  0.00  0.00    -0.082 C 
ENDBRANCH  31  34
BRANCH  31  35
ATOM     35  C   UNL     1       0.377  -5.845  -3.011  0.00  0.00    -0.082 C 
ATOM     36  C   UNL     1       1.464  -6.919  -2.939  0.00  0.00    -0.017 C 
ENDBRANCH  31  35
ENDBRANCH  30  31
ENDBRANCH  29  30
ENDBRANCH   1  29
TORSDOF 10
