REMARK  Name = ZINC39465975
REMARK  5 active torsions:
REMARK  status: ('A' for Active; 'I' for Inactive)
REMARK    1  A    between atoms: C_4  and  O_7
REMARK    2  A    between atoms: O_7  and  S_8
REMARK    3  A    between atoms: S_8  and  P_11
REMARK    4  A    between atoms: C_20  and  C_27
REMARK    5  A    between atoms: C_32  and  O_33
REMARK                            x       y       z     vdW  Elec       q    Type
REMARK                         _______ _______ _______ _____ _____    ______ ____
ROOT
ATOM      1  P   UNL     1       3.000  -2.544   2.135  0.00  0.00    +0.458 P 
ATOM      2  O   UNL     1       1.581  -2.143   2.271  0.00  0.00    -0.243 OA
ATOM      3  N   UNL     1       3.607  -3.010   3.601  0.00  0.00    -0.158 NA
ATOM      4  N   UNL     1       4.723  -3.817   3.576  0.00  0.00    -0.224 NA
ATOM      5  C   UNL     1       5.124  -4.155   4.950  0.00  0.00    +0.108 C 
ATOM      6  C   UNL     1       6.529  -4.755   4.919  0.00  0.00    +0.052 C 
ATOM      7  C   UNL     1       6.579  -5.878   3.914  0.00  0.00    -0.040 A 
ATOM      8  C   UNL     1       7.614  -6.798   4.002  0.00  0.00    +0.024 A 
ATOM      9  C   UNL     1       7.702  -7.841   3.104  0.00  0.00    +0.049 A 
ATOM     10  C   UNL     1       6.741  -7.970   2.101  0.00  0.00    +0.004 A 
ATOM     11  C   UNL     1       5.706  -7.044   2.017  0.00  0.00    +0.015 A 
ATOM     12  C   UNL     1       5.627  -5.999   2.924  0.00  0.00    -0.023 A 
ATOM     13  C   UNL     1       4.485  -5.026   2.788  0.00  0.00    +0.129 C 
ATOM     14  C   UNL     1       4.292  -4.687   1.307  0.00  0.00    +0.195 C 
ATOM     15  O   UNL     1       3.125  -3.850   1.174  0.00  0.00    -0.296 OA
ATOM     16 CL   UNL     1       9.000  -8.987   3.222  0.00  0.00    -0.083 Cl
ATOM     17  H   UNL     1       3.198  -2.730   4.435  0.00  0.00    +0.152 HD
ENDROOT
BRANCH  10  18
ATOM     18  C   UNL     1       6.823  -9.087   1.129  0.00  0.00    +0.025 A 
ATOM     19  C   UNL     1       7.054  -8.825  -0.220  0.00  0.00    +0.012 A 
ATOM     20  C   UNL     1       7.129  -9.868  -1.121  0.00  0.00    +0.001 A 
ATOM     21  C   UNL     1       6.977 -11.174  -0.689  0.00  0.00    +0.004 A 
ATOM     22  C   UNL     1       6.748 -11.445   0.646  0.00  0.00    +0.046 A 
ATOM     23  C   UNL     1       6.676 -10.407   1.562  0.00  0.00    +0.125 A 
BRANCH  23  24
ATOM     24  O   UNL     1       6.456 -10.673   2.877  0.00  0.00    -0.506 OA
ATOM     25  H   UNL     1       5.521 -10.696   3.122  0.00  0.00    +0.292 HD
ENDBRANCH  23  24
ENDBRANCH  10  18
BRANCH   1  26
ATOM     26  S   UNL     1       4.140  -0.941   1.346  0.00  0.00    +0.211 S 
ATOM     27  O   UNL     1       5.458  -1.436   1.154  0.00  0.00    -0.126 OA
ATOM     28  O   UNL     1       3.863   0.192   2.158  0.00  0.00    -0.126 OA
BRANCH  26  29
ATOM     29  O   UNL     1       3.586  -0.632  -0.037  0.00  0.00    -0.339 OA
BRANCH  29  33
ATOM     30  C   UNL     1      -0.017   1.378   0.010  0.00  0.00    +0.000 A 
ATOM     31  C   UNL     1       1.170   2.088   0.002  0.00  0.00    +0.004 A 
ATOM     32  C   UNL     1       2.377   1.417  -0.013  0.00  0.00    +0.048 A 
ATOM     33  C   UNL     1       2.399   0.030  -0.021  0.00  0.00    +0.157 A 
ATOM     34  C   UNL     1       1.207  -0.680  -0.013  0.00  0.00    +0.048 A 
ATOM     35  C   UNL     1       0.002  -0.004   0.002  0.00  0.00    +0.004 A 
ENDBRANCH  29  33
ENDBRANCH  26  29
ENDBRANCH   1  26
TORSDOF 5
