REMARK  Name = ZINC22739783
REMARK  10 active torsions:
REMARK  status: ('A' for Active; 'I' for Inactive)
REMARK    1  A    between atoms: C_1  and  C_2
REMARK    2  A    between atoms: C_9  and  N_15
REMARK    3  A    between atoms: C_10  and  C_11
REMARK    4  A    between atoms: C_11  and  O_13
REMARK    5  A    between atoms: O_13  and  C_14
REMARK    6  A    between atoms: C_16  and  C_18
REMARK    7  A    between atoms: C_18  and  N_19
REMARK    8  A    between atoms: C_22  and  C_26
REMARK    9  A    between atoms: C_22  and  C_27
REMARK   10  A    between atoms: C_30  and  C_33
REMARK                            x       y       z     vdW  Elec       q    Type
REMARK                         _______ _______ _______ _____ _____    ______ ____
ROOT
ATOM      1  N   UNL     1      -4.165   0.653   1.689  0.00  0.00    -0.278 N 
ATOM      2  C   UNL     1      -2.944   1.168   1.441  0.00  0.00    +0.236 C 
ATOM      3  O   UNL     1      -2.214   1.469   2.362  0.00  0.00    -0.274 OA
ATOM      4  H   UNL     1      -4.827   0.380   0.854  0.00  0.00    +0.155 HD
ENDROOT
BRANCH   1  12
ATOM      5  C   UNL     1      -6.194  -0.154   9.200  0.00  0.00    +0.008 C 
ATOM      6  C   UNL     1      -6.279   0.132   7.699  0.00  0.00    -0.009 C 
ATOM      7  C   UNL     1      -6.942  -1.051   6.988  0.00  0.00    +0.008 C 
ATOM      8  C   UNL     1      -7.255  -0.677   5.538  0.00  0.00    +0.037 C 
ATOM      9  C   UNL     1      -5.988  -0.138   4.887  0.00  0.00    -0.021 A 
ATOM     10  C   UNL     1      -4.950   0.294   5.636  0.00  0.00    -0.004 A 
ATOM     11  S   UNL     1      -3.731   0.816   4.463  0.00  0.00    -0.077 S 
ATOM     12  C   UNL     1      -4.585   0.466   2.997  0.00  0.00    +0.086 A 
ATOM     13  C   UNL     1      -5.796  -0.041   3.449  0.00  0.00    +0.091 A 
ATOM     14  C   UNL     1      -4.865   0.321   7.131  0.00  0.00    +0.046 C 
BRANCH  13  15
ATOM     15  C   UNL     1      -6.840  -0.465   2.514  0.00  0.00    +0.342 C 
ATOM     16  O   UNL     1      -6.870  -1.614   2.116  0.00  0.00    -0.245 OA
BRANCH  15  17
ATOM     17  O   UNL     1      -7.768   0.418   2.092  0.00  0.00    -0.464 OA
ATOM     18  C   UNL     1      -8.772  -0.072   1.165  0.00  0.00    +0.280 C 
ENDBRANCH  15  17
ENDBRANCH  13  15
ENDBRANCH   1  12
BRANCH   2  19
ATOM     19  C   UNL     1      -2.487   1.371   0.020  0.00  0.00    +0.214 C 
BRANCH  19  20
ATOM     20  N   UNL     1      -1.137   1.940   0.018  0.00  0.00    -0.215 N 
ATOM     21  C   UNL     1      -0.871   3.261   0.028  0.00  0.00    +0.251 C 
ATOM     22  O   UNL     1      -1.675   4.169   0.041  0.00  0.00    -0.272 OA
ATOM     23  C   UNL     1       0.640   3.376   0.014  0.00  0.00    +0.135 C 
ATOM     24  N   UNL     1       1.094   1.974   0.002  0.00  0.00    -0.281 N 
ATOM     25  C   UNL     1      -0.014   1.211   0.009  0.00  0.00    +0.310 C 
ATOM     26  O   UNL     1       0.002  -0.004   0.002  0.00  0.00    -0.252 OA
ATOM     27  C   UNL     1       1.137   4.092   1.272  0.00  0.00    +0.047 C 
ATOM     28  H   UNL     1       2.169   1.744  -0.009  0.00  0.00    +0.152 HD
BRANCH  23  29
ATOM     29  C   UNL     1       1.106   4.094  -1.226  0.00  0.00    -0.015 A 
ATOM     30  C   UNL     1       0.334   5.108  -1.765  0.00  0.00    +0.007 A 
ATOM     31  C   UNL     1       0.757   5.773  -2.897  0.00  0.00    +0.019 A 
ATOM     32  C   UNL     1       1.962   5.414  -3.506  0.00  0.00    +0.052 A 
ATOM     33  C   UNL     1       2.733   4.386  -2.959  0.00  0.00    +0.019 A 
ATOM     34  C   UNL     1       2.301   3.733  -1.823  0.00  0.00    +0.007 A 
BRANCH  32  35
ATOM     35  C   UNL     1       2.404   6.096  -4.685  0.00  0.00    +0.099 C 
ATOM     36  N   UNL     1       2.754   6.636  -5.620  0.00  0.00    -0.191 NA
ENDBRANCH  32  35
ENDBRANCH  23  29
ENDBRANCH  19  20
ENDBRANCH   2  19
TORSDOF 7
