REMARK  Name = ZINC64040726
REMARK  12 active torsions:
REMARK  status: ('A' for Active; 'I' for Inactive)
REMARK    1  A    between atoms: C_1  and  C_2
REMARK    2  A    between atoms: C_2  and  C_3
REMARK    3  A    between atoms: C_2  and  C_4
REMARK    4  A    between atoms: C_4  and  C_5
REMARK    5  A    between atoms: C_5  and  C_6
REMARK    6  A    between atoms: C_6  and  C_18
REMARK    7  A    between atoms: N_9  and  C_13
REMARK    8  A    between atoms: C_13  and  C_14
REMARK    9  A    between atoms: C_14  and  N_15
REMARK   10  A    between atoms: N_15  and  C_16
REMARK   11  A    between atoms: N_15  and  C_17
REMARK   12  A    between atoms: C_24  and  C_26
REMARK                            x       y       z     vdW  Elec       q    Type
REMARK                         _______ _______ _______ _____ _____    ______ ____
ROOT
ATOM      1  C   UNL     1      -3.571  -0.661  -1.275  0.00  0.00    +0.115 C 
ATOM      2  C   UNL     1      -4.341  -0.090  -0.100  0.00  0.00    +0.247 C 
ATOM      3  O   UNL     1      -4.584   1.077   0.118  0.00  0.00    -0.273 OA
ATOM      4  N   UNL     1      -4.699  -1.151   0.650  0.00  0.00    -0.226 N 
ATOM      5  C   UNL     1      -4.266  -2.300   0.119  0.00  0.00    +0.309 C 
ATOM      6  O   UNL     1      -4.466  -3.392   0.615  0.00  0.00    -0.252 OA
ATOM      7  N   UNL     1      -3.586  -2.113  -1.026  0.00  0.00    -0.285 N 
ATOM      8  H   UNL     1      -3.183  -2.800  -1.581  0.00  0.00    +0.151 HD
ENDROOT
BRANCH   1   9
ATOM      9  C   UNL     1      -4.274  -0.333  -2.594  0.00  0.00    +0.024 C 
ATOM     10  C   UNL     1      -4.194   1.173  -2.853  0.00  0.00    +0.025 C 
ATOM     11  C   UNL     1      -4.869   1.493  -4.191  0.00  0.00    +0.108 C 
ATOM     12  N   UNL     1      -6.236   0.955  -4.172  0.00  0.00    -0.300 N 
ATOM     13  C   UNL     1      -6.432  -0.464  -3.844  0.00  0.00    +0.108 C 
ATOM     14  C   UNL     1      -5.740  -0.761  -2.510  0.00  0.00    +0.025 C 
ATOM     15  C   UNL     1      -7.290   1.748  -4.450  0.00  0.00    +0.242 C 
ATOM     16  O   UNL     1      -7.114   2.917  -4.719  0.00  0.00    -0.273 OA
BRANCH  15  17
ATOM     17  C   UNL     1      -8.686   1.181  -4.426  0.00  0.00    +0.190 C 
ATOM     18  C   UNL     1      -8.828   0.101  -5.475  0.00  0.00    +0.016 C 
ATOM     19  C   UNL     1      -9.794   0.524  -6.321  0.00  0.00    -0.004 A 
ATOM     20  C   UNL     1     -10.387  -0.065  -7.528  0.00  0.00    +0.010 A 
ATOM     21  C   UNL     1     -11.360   0.613  -8.178  0.00  0.00    +0.001 A 
ATOM     22  C   UNL     1     -11.816   1.860  -7.729  0.00  0.00    +0.002 A 
ATOM     23  C   UNL     1     -11.320   2.465  -6.629  0.00  0.00    +0.026 A 
ATOM     24  C   UNL     1     -10.292   1.843  -5.868  0.00  0.00    +0.043 A 
ATOM     25  N   UNL     1      -9.659   2.220  -4.782  0.00  0.00    -0.370 N 
ATOM     26  H   UNL     1      -9.809   3.046  -4.296  0.00  0.00    +0.161 HD
ENDBRANCH  15  17
ENDBRANCH   1   9
BRANCH   1  27
ATOM     27  C   UNL     1      -2.135  -0.131  -1.286  0.00  0.00    +0.036 C 
BRANCH  27  28
ATOM     28  C   UNL     1      -1.433  -0.534   0.013  0.00  0.00    +0.005 C 
BRANCH  28  30
ATOM     29  C   UNL     1      -0.019   1.526   0.010  0.00  0.00    +0.007 C 
ATOM     30  C   UNL     1       0.002  -0.004   0.002  0.00  0.00    -0.017 C 
ATOM     31  C   UNL     1       0.742  -0.511   1.242  0.00  0.00    +0.007 C 
ENDBRANCH  28  30
ENDBRANCH  27  28
ENDBRANCH   1  27
BRANCH   4  32
ATOM     32  C   UNL     1      -5.465  -1.057   1.895  0.00  0.00    +0.099 C 
BRANCH  32  33
ATOM     33  C   UNL     1      -6.960  -1.139   1.580  0.00  0.00    -0.060 C 
BRANCH  33  34
ATOM     34  N   UNL     1      -7.730  -1.045   2.828  0.00  0.00    +0.377 N 
ATOM     35  C   UNL     1      -7.531   0.281   3.427  0.00  0.00    -0.097 C 
ATOM     36  C   UNL     1      -9.156  -1.244   2.540  0.00  0.00    -0.097 C 
ATOM     37  H   UNL     1      -7.414  -1.756   3.472  0.00  0.00    -0.083 HD
ENDBRANCH  33  34
ENDBRANCH  32  33
ENDBRANCH   4  32
TORSDOF 8
