REMARK  Name = ZINC00907470
REMARK  5 active torsions:
REMARK  status: ('A' for Active; 'I' for Inactive)
REMARK    1  A    between atoms: C_1  and  C_2
REMARK    2  A    between atoms: C_9  and  C_14
REMARK    3  A    between atoms: C_14  and  C_16
REMARK    4  A    between atoms: C_14  and  N_71
REMARK    5  A    between atoms: N_20  and  C_21
REMARK                            x       y       z     vdW  Elec       q    Type
REMARK                         _______ _______ _______ _____ _____    ______ ____
ROOT
ATOM      1  C   UNL     1      -0.013   1.086   0.008  0.00  0.00    +0.039 C 
ENDROOT
BRANCH   1  16
ATOM      2  C   UNL     1      -0.763   2.974   1.327  0.00  0.00    -0.058 C 
ATOM      3  C   UNL     1      -1.493   3.369   2.612  0.00  0.00    +0.088 C 
ATOM      4  N   UNL     1      -0.750   2.857   3.772  0.00  0.00    -0.313 N 
ATOM      5  C   UNL     1      -0.629   1.393   3.711  0.00  0.00    +0.088 C 
ATOM      6  C   UNL     1       0.101   0.997   2.425  0.00  0.00    -0.058 C 
ATOM      7  C   UNL     1      -1.341   3.255   4.953  0.00  0.00    +0.162 A 
ATOM      8  N   UNL     1      -1.616   4.471   5.368  0.00  0.00    -0.225 NA
ATOM      9  C   UNL     1      -2.204   4.716   6.560  0.00  0.00    +0.080 A 
ATOM     10  C   UNL     1      -2.552   5.966   7.121  0.00  0.00    +0.029 A 
ATOM     11  C   UNL     1      -3.148   6.039   8.353  0.00  0.00    +0.002 A 
ATOM     12  C   UNL     1      -3.431   4.898   9.090  0.00  0.00    +0.001 A 
ATOM     13  C   UNL     1      -3.104   3.658   8.572  0.00  0.00    +0.017 A 
ATOM     14  C   UNL     1      -2.506   3.576   7.339  0.00  0.00    +0.041 A 
ATOM     15  S   UNL     1      -1.935   2.248   6.305  0.00  0.00    -0.052 S 
ATOM     16  N   UNL     1      -0.668   1.500   1.267  0.00  0.00    +0.391 N 
ATOM     17  H   UNL     1      -1.614   1.103   1.297  0.00  0.00    -0.080 HD
ENDBRANCH   1  16
BRANCH   1  26
ATOM     18  C   UNL     1      -0.544   5.222  -6.175  0.00  0.00    +0.044 C 
ATOM     19  C   UNL     1      -1.160   4.304  -5.151  0.00  0.00    -0.050 A 
ATOM     20  C   UNL     1      -2.496   3.942  -5.266  0.00  0.00    +0.005 A 
ATOM     21  C   UNL     1      -3.080   3.104  -4.341  0.00  0.00    +0.026 A 
ATOM     22  C   UNL     1      -2.325   2.614  -3.280  0.00  0.00    +0.049 A 
ATOM     23  C   UNL     1      -0.972   2.983  -3.167  0.00  0.00    -0.001 A 
ATOM     24  C   UNL     1      -0.400   3.835  -4.117  0.00  0.00    +0.013 A 
ATOM     25  C   UNL     1      -0.186   2.462  -2.047  0.00  0.00    +0.017 A 
ATOM     26  C   UNL     1      -0.793   1.640  -1.156  0.00  0.00    +0.011 A 
ATOM     27  C   UNL     1      -2.152   1.296  -1.319  0.00  0.00    +0.251 A 
ATOM     28  O   UNL     1      -2.678   0.551  -0.509  0.00  0.00    -0.268 OA
ATOM     29  N   UNL     1      -2.884   1.774  -2.341  0.00  0.00    -0.322 N 
ATOM     30  H   UNL     1      -3.846   1.515  -2.421  0.00  0.00    +0.169 HD
ENDBRANCH   1  26
BRANCH   1  31
ATOM     31  C   UNL     1       1.402   1.602  -0.045  0.00  0.00    +0.143 A 
ATOM     32  N   UNL     1       1.807   2.809   0.265  0.00  0.00    -0.115 NA
ATOM     33  N   UNL     1       3.083   2.859   0.090  0.00  0.00    -0.023 NA
ATOM     34  N   UNL     1       3.502   1.714  -0.323  0.00  0.00    -0.044 NA
ATOM     35  N   UNL     1       2.497   0.910  -0.413  0.00  0.00    -0.227 N 
BRANCH  35  36
ATOM     36  C   UNL     1       2.538  -0.490  -0.840  0.00  0.00    +0.111 C 
ATOM     37  C   UNL     1       3.440  -1.286   0.105  0.00  0.00    +0.027 C 
ATOM     38  C   UNL     1       3.483  -2.749  -0.341  0.00  0.00    +0.002 C 
ATOM     39  C   UNL     1       4.037  -2.832  -1.764  0.00  0.00    +0.000 C 
ATOM     40  C   UNL     1       3.135  -2.036  -2.710  0.00  0.00    +0.002 C 
ATOM     41  C   UNL     1       3.092  -0.574  -2.264  0.00  0.00    +0.027 C 
ENDBRANCH  35  36
ENDBRANCH   1  31
TORSDOF 4
