REMARK  Name = ZINC33282546
REMARK  4 active torsions:
REMARK  status: ('A' for Active; 'I' for Inactive)
REMARK    1  A    between atoms: C_7  and  C_20
REMARK    2  A    between atoms: C_9  and  N_11
REMARK    3  A    between atoms: C_14  and  C_17
REMARK    4  A    between atoms: C_22  and  C_25
REMARK                            x       y       z     vdW  Elec       q    Type
REMARK                         _______ _______ _______ _____ _____    ______ ____
ROOT
ATOM      1  C   UNL     1       8.157   5.992  -0.047  0.00  0.00    +0.001 A 
ATOM      2  C   UNL     1       8.724   7.264  -0.047  0.00  0.00    +0.002 A 
ATOM      3  C   UNL     1       7.944   8.380  -0.032  0.00  0.00    +0.026 A 
ATOM      4  C   UNL     1       6.544   8.252  -0.018  0.00  0.00    +0.048 A 
ATOM      5  C   UNL     1       5.973   6.957  -0.020  0.00  0.00    +0.011 A 
ATOM      6  C   UNL     1       6.803   5.830  -0.034  0.00  0.00    +0.011 A 
ATOM      7  C   UNL     1       4.515   6.832  -0.005  0.00  0.00    +0.052 A 
ATOM      8  C   UNL     1       3.776   8.007   0.004  0.00  0.00    +0.055 A 
ATOM      9  C   UNL     1       4.441   9.239   0.010  0.00  0.00    +0.100 A 
ATOM     10  N   UNL     1       5.753   9.330  -0.004  0.00  0.00    -0.343 N 
ATOM     11  H   UNL     1       6.195  10.337  -0.003  0.00  0.00    +0.167 HD
ENDROOT
BRANCH   9  12
ATOM     12  N   UNL     1       3.690  10.405   0.024  0.00  0.00    -0.317 N 
ATOM     13  C   UNL     1       2.744  10.436  -1.099  0.00  0.00    +0.107 C 
ATOM     14  C   UNL     1       1.836  11.661  -0.970  0.00  0.00    +0.031 C 
ATOM     15  C   UNL     1       2.695  12.928  -0.966  0.00  0.00    +0.078 C 
ATOM     16  C   UNL     1       3.703  12.849   0.184  0.00  0.00    +0.031 C 
ATOM     17  C   UNL     1       4.557  11.590   0.021  0.00  0.00    +0.107 C 
BRANCH  15  18
ATOM     18  C   UNL     1       1.812  14.136  -0.780  0.00  0.00    +0.214 C 
ATOM     19  O   UNL     1       1.972  14.862   0.178  0.00  0.00    -0.276 OA
ATOM     20  N   UNL     1       0.844  14.408  -1.678  0.00  0.00    -0.329 N 
ATOM     21  H   UNL     1       0.200  15.289  -1.542  0.00  0.00    +0.145 HD
ATOM     22  H   UNL     1       0.699  13.749  -2.546  0.00  0.00    +0.145 HD
ENDBRANCH  15  18
ENDBRANCH   9  12
BRANCH   7  23
ATOM     23  C   UNL     1       3.856   5.510  -0.006  0.00  0.00    +0.259 A 
ATOM     24  N   UNL     1       2.557   5.279   0.000  0.00  0.00    -0.187 NA
ATOM     25  C   UNL     1       2.429   3.936  -0.001  0.00  0.00    +0.202 A 
ATOM     26  N   UNL     1       3.635   3.429  -0.016  0.00  0.00    -0.056 NA
ATOM     27  O   UNL     1       4.465   4.313  -0.019  0.00  0.00    -0.332 OA
BRANCH  25  28
ATOM     28  C   UNL     1       1.155   3.174   0.008  0.00  0.00    +0.025 A 
ATOM     29  C   UNL     1       1.174   1.781   0.000  0.00  0.00    +0.012 A 
ATOM     30  C   UNL     1      -0.013   1.076   0.008  0.00  0.00    +0.003 A 
ATOM     31  C   UNL     1      -1.220   1.749   0.017  0.00  0.00    +0.038 A 
ATOM     32  C   UNL     1      -1.246   3.134   0.031  0.00  0.00    +0.124 A 
ATOM     33  C   UNL     1      -0.062   3.849   0.023  0.00  0.00    +0.050 A 
ATOM     34  F   UNL     1      -2.429   3.787   0.045  0.00  0.00    -0.205 F 
ENDBRANCH  25  28
ENDBRANCH   7  23
TORSDOF 4
