REMARK  Name = ZINC63731398
REMARK  11 active torsions:
REMARK  status: ('A' for Active; 'I' for Inactive)
REMARK    1  A    between atoms: C_1  and  C_2
REMARK    2  A    between atoms: C_2  and  C_3
REMARK    3  A    between atoms: C_2  and  C_4
REMARK    4  A    between atoms: C_2  and  C_5
REMARK    5  A    between atoms: C_8  and  N_18
REMARK    6  A    between atoms: N_10  and  C_12
REMARK    7  A    between atoms: C_19  and  C_21
REMARK    8  A    between atoms: C_21  and  O_22
REMARK    9  A    between atoms: O_22  and  C_23
REMARK   10  A    between atoms: C_23  and  C_25
REMARK   11  A    between atoms: C_25  and  C_26
REMARK                            x       y       z     vdW  Elec       q    Type
REMARK                         _______ _______ _______ _____ _____    ______ ____
ROOT
ATOM      1  N   UNL     1       1.286  -2.198  -3.675  0.00  0.00    -0.293 N 
ATOM      2  C   UNL     1       1.735  -3.096  -4.574  0.00  0.00    +0.252 C 
ATOM      3  O   UNL     1       2.532  -3.946  -4.236  0.00  0.00    -0.272 OA
ATOM      4  H   UNL     1       0.591  -1.569  -3.923  0.00  0.00    +0.151 HD
ENDROOT
BRANCH   1   7
ATOM      5  C   UNL     1       0.703  -0.588  -0.937  0.00  0.00    +0.082 C 
ATOM      6  C   UNL     1       0.712  -2.105  -1.272  0.00  0.00    +0.064 C 
ATOM      7  C   UNL     1       1.847  -2.173  -2.321  0.00  0.00    +0.178 C 
ATOM      8  N   UNL     1       2.640  -0.950  -2.120  0.00  0.00    -0.246 N 
ATOM      9  N   UNL     1       2.143  -0.242  -1.056  0.00  0.00    -0.235 NA
ATOM     10  H   UNL     1       2.266   0.750  -1.191  0.00  0.00    +0.145 HD
BRANCH   8  11
ATOM     11  C   UNL     1       3.736  -0.567  -2.896  0.00  0.00    +0.046 A 
ATOM     12  C   UNL     1       4.279  -1.452  -3.819  0.00  0.00    +0.024 A 
ATOM     13  C   UNL     1       5.362  -1.070  -4.586  0.00  0.00    +0.002 A 
ATOM     14  C   UNL     1       5.907   0.192  -4.435  0.00  0.00    +0.000 A 
ATOM     15  C   UNL     1       5.369   1.075  -3.517  0.00  0.00    +0.002 A 
ATOM     16  C   UNL     1       4.282   0.702  -2.752  0.00  0.00    +0.024 A 
ENDBRANCH   8  11
BRANCH   5  18
ATOM     17  C   UNL     1       0.276   1.149   0.807  0.00  0.00    +0.012 C 
ATOM     18  C   UNL     1       0.198  -0.345   0.487  0.00  0.00    -0.021 C 
ATOM     19  C   UNL     1       1.065  -1.125   1.476  0.00  0.00    +0.012 C 
ATOM     20  C   UNL     1      -1.254  -0.816   0.600  0.00  0.00    +0.012 C 
ENDBRANCH   5  18
ENDBRANCH   1   7
BRANCH   2  21
ATOM     21  C   UNL     1       1.246  -3.044  -5.998  0.00  0.00    +0.327 C 
BRANCH  21  22
ATOM     22  O   UNL     1       1.863  -4.091  -6.752  0.00  0.00    -0.455 OA
BRANCH  22  23
ATOM     23  C   UNL     1       1.532  -4.184  -8.049  0.00  0.00    +0.312 C 
ATOM     24  O   UNL     1       0.746  -3.403  -8.530  0.00  0.00    -0.250 OA
BRANCH  23  25
ATOM     25  C   UNL     1       2.142  -5.263  -8.906  0.00  0.00    +0.153 C 
BRANCH  25  26
ATOM     26  C   UNL     1       1.609  -5.149 -10.312  0.00  0.00    -0.031 C 
ATOM     27  C   UNL     1       2.188  -4.506 -11.351  0.00  0.00    -0.001 A 
ATOM     28  C   UNL     1       3.439  -3.748 -11.479  0.00  0.00    +0.010 A 
ATOM     29  C   UNL     1       3.757  -3.206 -12.677  0.00  0.00    +0.001 A 
ATOM     30  C   UNL     1       2.925  -3.350 -13.796  0.00  0.00    +0.002 A 
ATOM     31  C   UNL     1       1.761  -4.032 -13.756  0.00  0.00    +0.026 A 
ATOM     32  C   UNL     1       1.327  -4.644 -12.547  0.00  0.00    +0.043 A 
ATOM     33  N   UNL     1       0.258  -5.345 -12.259  0.00  0.00    -0.380 N 
ATOM     34  C   UNL     1       0.323  -5.737 -10.847  0.00  0.00    +0.145 C 
ATOM     35  H   UNL     1      -0.455  -5.570 -12.877  0.00  0.00    +0.160 HD
ENDBRANCH  25  26
ENDBRANCH  23  25
ENDBRANCH  22  23
ENDBRANCH  21  22
ENDBRANCH   2  21
TORSDOF 8
