REMARK  Name = ZINC64794465
REMARK  9 active torsions:
REMARK  status: ('A' for Active; 'I' for Inactive)
REMARK    1  A    between atoms: C_1  and  O_2
REMARK    2  A    between atoms: O_2  and  C_3
REMARK    3  A    between atoms: C_6  and  C_9
REMARK    4  A    between atoms: C_9  and  S_10
REMARK    5  A    between atoms: S_10  and  C_11
REMARK    6  A    between atoms: C_14  and  C_22
REMARK    7  A    between atoms: N_15  and  C_16
REMARK    8  A    between atoms: C_16  and  C_17
REMARK    9  A    between atoms: C_23  and  N_31
REMARK                            x       y       z     vdW  Elec       q    Type
REMARK                         _______ _______ _______ _____ _____    ______ ____
ROOT
ATOM      1  C   UNL     1      -7.079  -3.727  -1.493  0.00  0.00    +0.193 A 
ATOM      2  N   UNL     1      -7.670  -4.037  -0.362  0.00  0.00    -0.122 NA
ATOM      3  N   UNL     1      -8.788  -4.627  -0.593  0.00  0.00    -0.128 NA
ATOM      4  C   UNL     1      -8.981  -4.731  -1.891  0.00  0.00    +0.174 A 
ATOM      5  N   UNL     1      -7.894  -4.151  -2.507  0.00  0.00    -0.294 N 
ENDROOT
BRANCH   4   6
ATOM      6  C   UNL     1     -10.139  -5.343  -2.556  0.00  0.00    +0.080 A 
ATOM      7  C   UNL     1     -11.235  -5.915  -1.984  0.00  0.00    +0.052 A 
ATOM      8  C   UNL     1     -12.269  -6.463  -2.848  0.00  0.00    +0.029 A 
ATOM      9  C   UNL     1     -13.482  -7.098  -2.487  0.00  0.00    +0.014 A 
ATOM     10  C   UNL     1     -14.321  -7.546  -3.481  0.00  0.00    +0.020 A 
ATOM     11  C   UNL     1     -13.982  -7.377  -4.815  0.00  0.00    +0.112 A 
ATOM     12  N   UNL     1     -12.850  -6.785  -5.147  0.00  0.00    -0.248 NA
ATOM     13  C   UNL     1     -12.016  -6.340  -4.234  0.00  0.00    +0.111 A 
ATOM     14  S   UNL     1     -10.449  -5.508  -4.303  0.00  0.00    -0.064 S 
BRANCH   7  15
ATOM     15  N   UNL     1     -11.364  -5.974  -0.591  0.00  0.00    -0.356 N 
ATOM     16  H   UNL     1     -10.669  -5.605  -0.023  0.00  0.00    +0.142 HD
ATOM     17  H   UNL     1     -12.149  -6.383  -0.193  0.00  0.00    +0.142 HD
ENDBRANCH   7  15
ENDBRANCH   4   6
BRANCH   1  18
ATOM     18  S   UNL     1      -5.529  -2.909  -1.672  0.00  0.00    -0.081 S 
BRANCH  18  19
ATOM     19  C   UNL     1      -4.981  -2.629   0.035  0.00  0.00    +0.112 C 
BRANCH  19  23
ATOM     20  C   UNL     1      -1.200  -0.637   0.010  0.00  0.00    +0.120 A 
ATOM     21  C   UNL     1      -2.375   0.101   0.019  0.00  0.00    +0.046 A 
ATOM     22  C   UNL     1      -3.596  -0.545   0.027  0.00  0.00    +0.008 A 
ATOM     23  C   UNL     1      -3.648  -1.927   0.026  0.00  0.00    -0.037 A 
ATOM     24  C   UNL     1      -2.479  -2.665   0.017  0.00  0.00    +0.008 A 
ATOM     25  C   UNL     1      -1.255  -2.024   0.003  0.00  0.00    +0.046 A 
BRANCH  20  27
ATOM     26  C   UNL     1      -0.017   1.425   0.010  0.00  0.00    +0.277 C 
ATOM     27  O   UNL     1       0.002  -0.004   0.002  0.00  0.00    -0.495 OA
ENDBRANCH  20  27
ENDBRANCH  19  23
ENDBRANCH  18  19
ENDBRANCH   1  18
BRANCH   5  28
ATOM     28  C   UNL     1      -7.658  -4.019  -3.947  0.00  0.00    +0.200 C 
BRANCH  28  29
ATOM     29  C   UNL     1      -6.915  -5.230  -4.448  0.00  0.00    +0.125 A 
ATOM     30  C   UNL     1      -7.476  -6.360  -4.915  0.00  0.00    +0.046 A 
ATOM     31  C   UNL     1      -6.418  -7.226  -5.273  0.00  0.00    +0.041 A 
ATOM     32  C   UNL     1      -5.273  -6.574  -5.002  0.00  0.00    +0.195 A 
ATOM     33  O   UNL     1      -5.580  -5.364  -4.508  0.00  0.00    -0.466 OA
ENDBRANCH  28  29
ENDBRANCH   5  28
TORSDOF 8
