REMARK  Name = ZINC09154442
REMARK  12 active torsions:
REMARK  status: ('A' for Active; 'I' for Inactive)
REMARK    1  A    between atoms: C_1  and  C_2
REMARK    2  A    between atoms: C_2  and  C_4
REMARK    3  A    between atoms: C_2  and  O_30
REMARK    4  A    between atoms: C_4  and  C_6
REMARK    5  A    between atoms: C_4  and  N_19
REMARK    6  A    between atoms: C_6  and  O_8
REMARK    7  A    between atoms: O_8  and  C_9
REMARK    8  A    between atoms: C_9  and  C_10
REMARK    9  A    between atoms: C_10  and  O_11
REMARK   10  A    between atoms: O_11  and  C_12
REMARK   11  A    between atoms: N_19  and  S_20
REMARK   12  A    between atoms: S_20  and  C_23
REMARK                            x       y       z     vdW  Elec       q    Type
REMARK                         _______ _______ _______ _____ _____    ______ ____
ROOT
ATOM      1  C   UNL     1       2.304  -2.517  -2.508  0.00  0.00    +0.213 C 
ENDROOT
BRANCH   1   3
ATOM      2  C   UNL     1       2.599  -4.890  -3.232  0.00  0.00    +0.040 C 
ATOM      3  C   UNL     1       3.306  -3.664  -2.651  0.00  0.00    +0.141 C 
BRANCH   3   4
ATOM      4  O   UNL     1       4.365  -3.266  -3.524  0.00  0.00    -0.390 OA
ATOM      5  H   UNL     1       4.812  -2.452  -3.255  0.00  0.00    +0.210 HD
ENDBRANCH   3   4
ENDBRANCH   1   3
BRANCH   1   6
ATOM      6  C   UNL     1       1.776  -2.140  -3.868  0.00  0.00    +0.329 C 
ATOM      7  O   UNL     1       0.592  -2.218  -4.099  0.00  0.00    -0.249 OA
BRANCH   6   8
ATOM      8  O   UNL     1       2.619  -1.716  -4.822  0.00  0.00    -0.460 OA
BRANCH   8   9
ATOM      9  C   UNL     1       2.040  -1.370  -6.108  0.00  0.00    +0.273 C 
BRANCH   9  10
ATOM     10  C   UNL     1       3.147  -0.913  -7.059  0.00  0.00    +0.270 C 
BRANCH  10  11
ATOM     11  O   UNL     1       4.029  -2.006  -7.324  0.00  0.00    -0.489 OA
BRANCH  11  12
ATOM     12  C   UNL     1       5.075  -1.767  -8.158  0.00  0.00    +0.121 A 
ATOM     13  C   UNL     1       5.246  -0.507  -8.715  0.00  0.00    +0.047 A 
ATOM     14  C   UNL     1       6.313  -0.265  -9.557  0.00  0.00    +0.019 A 
ATOM     15  C   UNL     1       7.205  -1.280  -9.856  0.00  0.00    +0.018 A 
ATOM     16  C   UNL     1       7.033  -2.538  -9.306  0.00  0.00    +0.019 A 
ATOM     17  C   UNL     1       5.970  -2.783  -8.459  0.00  0.00    +0.047 A 
ATOM     18 BR   UNL     1       8.661  -0.947 -11.015  0.00  0.00    -0.050 Br
ENDBRANCH  11  12
ENDBRANCH  10  11
ENDBRANCH   9  10
ENDBRANCH   8   9
ENDBRANCH   6   8
ENDBRANCH   1   6
BRANCH   1  19
ATOM     19  N   UNL     1       1.193  -2.943  -1.653  0.00  0.00    -0.174 NA
ATOM     20  H   UNL     1       0.451  -3.438  -2.033  0.00  0.00    +0.149 HD
BRANCH  19  21
ATOM     21  S   UNL     1       1.204  -2.578  -0.038  0.00  0.00    +0.059 S 
ATOM     22  O   UNL     1       2.486  -2.945   0.453  0.00  0.00    -0.153 OA
ATOM     23  O   UNL     1       0.001  -3.103   0.506  0.00  0.00    -0.153 OA
BRANCH  21  24
ATOM     24  C   UNL     1       1.096  -0.824   0.101  0.00  0.00    +0.105 A 
ATOM     25  C   UNL     1      -0.141  -0.213   0.181  0.00  0.00    +0.030 A 
ATOM     26  C   UNL     1      -0.227   1.162   0.290  0.00  0.00    +0.022 A 
ATOM     27  C   UNL     1       0.926   1.927   0.319  0.00  0.00    +0.041 A 
ATOM     28  C   UNL     1       2.163   1.314   0.238  0.00  0.00    +0.022 A 
ATOM     29  C   UNL     1       2.248  -0.061   0.129  0.00  0.00    +0.030 A 
ATOM     30 CL   UNL     1       0.819   3.654   0.455  0.00  0.00    -0.084 Cl
ENDBRANCH  21  24
ENDBRANCH  19  21
ENDBRANCH   1  19
TORSDOF 11
