REMARK  Name = ZINC57545531
REMARK  4 active torsions:
REMARK  status: ('A' for Active; 'I' for Inactive)
REMARK    1  A    between atoms: C_1  and  O_2
REMARK    2  A    between atoms: O_2  and  C_3
REMARK    3  A    between atoms: C_6  and  N_9
REMARK    4  A    between atoms: C_10  and  C_16
REMARK                            x       y       z     vdW  Elec       q    Type
REMARK                         _______ _______ _______ _____ _____    ______ ____
ROOT
ATOM      1  N   UNL     1       2.541  -2.504   4.231  0.00  0.00    -0.244 N 
ATOM      2  C   UNL     1       2.591  -3.956   4.457  0.00  0.00    +0.166 C 
ATOM      3  C   UNL     1       3.411  -4.100   5.754  0.00  0.00    +0.136 C 
ATOM      4  N   UNL     1       3.736  -2.713   6.121  0.00  0.00    -0.297 N 
ATOM      5  C   UNL     1       3.214  -1.883   5.209  0.00  0.00    +0.307 C 
ATOM      6  O   UNL     1       3.336  -0.674   5.266  0.00  0.00    -0.252 OA
ATOM      7  H   UNL     1       4.251  -2.444   6.898  0.00  0.00    +0.150 HD
ENDROOT
BRANCH   1  11
ATOM      8  C   UNL     1       0.626  -0.619   1.042  0.00  0.00    +0.120 A 
ATOM      9  C   UNL     1       1.187   0.139   2.060  0.00  0.00    +0.047 A 
ATOM     10  C   UNL     1       1.821  -0.485   3.116  0.00  0.00    +0.027 A 
ATOM     11  C   UNL     1       1.897  -1.870   3.159  0.00  0.00    +0.039 A 
ATOM     12  C   UNL     1       1.336  -2.628   2.141  0.00  0.00    +0.027 A 
ATOM     13  C   UNL     1       0.697  -2.003   1.088  0.00  0.00    +0.047 A 
BRANCH   8  15
ATOM     14  C   UNL     1      -0.034   1.424   0.019  0.00  0.00    +0.277 C 
ATOM     15  O   UNL     1       0.002  -0.004   0.002  0.00  0.00    -0.495 OA
ENDBRANCH   8  15
ENDBRANCH   1  11
BRANCH   2  16
ATOM     16  C   UNL     1       1.202  -4.511   4.641  0.00  0.00    +0.127 A 
ATOM     17  C   UNL     1       0.750  -5.678   4.150  0.00  0.00    +0.046 A 
ATOM     18  C   UNL     1      -0.598  -5.801   4.561  0.00  0.00    +0.041 A 
ATOM     19  C   UNL     1      -0.887  -4.701   5.279  0.00  0.00    +0.195 A 
ATOM     20  O   UNL     1       0.208  -3.926   5.330  0.00  0.00    -0.466 OA
ENDBRANCH   2  16
TORSDOF 3
