REMARK  Name = ZINC13639874
REMARK  5 active torsions:
REMARK  status: ('A' for Active; 'I' for Inactive)
REMARK    1  A    between atoms: C_3  and  C_9
REMARK    2  A    between atoms: C_4  and  O_8
REMARK    3  A    between atoms: C_6  and  O_7
REMARK    4  A    between atoms: C_20  and  S_25
REMARK    5  A    between atoms: S_25  and  N_28
REMARK                            x       y       z     vdW  Elec       q    Type
REMARK                         _______ _______ _______ _____ _____    ______ ____
ROOT
ATOM      1  C   UNL     1      -1.296  -0.768   0.075  0.00  0.00    +0.108 C 
ATOM      2  C   UNL     1      -1.724  -1.129  -1.351  0.00  0.00    +0.029 C 
ATOM      3  C   UNL     1      -0.469  -1.692  -2.081  0.00  0.00    +0.033 C 
ATOM      4  C   UNL     1       0.268  -0.442  -2.524  0.00  0.00    -0.030 C 
ATOM      5  C   UNL     1      -0.552   0.579  -2.578  0.00  0.00    -0.023 C 
ATOM      6  C   UNL     1      -1.944   0.154  -2.175  0.00  0.00    +0.049 C 
ATOM      7  C   UNL     1      -2.626   1.236  -1.399  0.00  0.00    -0.018 A 
ATOM      8  C   UNL     1      -3.112   2.342  -2.083  0.00  0.00    +0.034 A 
ATOM      9  C   UNL     1      -3.748   3.362  -1.406  0.00  0.00    +0.106 A 
ATOM     10  C   UNL     1      -3.911   3.293  -0.034  0.00  0.00    +0.030 A 
ATOM     11  C   UNL     1      -3.433   2.199   0.658  0.00  0.00    +0.025 A 
ATOM     12  C   UNL     1      -2.791   1.172  -0.024  0.00  0.00    +0.031 A 
ATOM     13  N   UNL     1      -2.338   0.063   0.688  0.00  0.00    -0.336 N 
ATOM     14  H   UNL     1      -2.685  -0.145   1.569  0.00  0.00    +0.147 HD
ENDROOT
BRANCH   1  17
ATOM     15  C   UNL     1       1.176   2.071  -0.214  0.00  0.00    +0.046 A 
ATOM     16  C   UNL     1      -0.012   1.365  -0.176  0.00  0.00    +0.012 A 
ATOM     17  C   UNL     1       0.001  -0.001   0.033  0.00  0.00    +0.015 A 
ATOM     18  C   UNL     1       1.206  -0.667   0.204  0.00  0.00    +0.125 A 
ATOM     19  C   UNL     1       2.398   0.039   0.166  0.00  0.00    +0.091 A 
ATOM     20  C   UNL     1       2.384   1.410  -0.044  0.00  0.00    +0.120 A 
BRANCH  20  21
ATOM     21  O   UNL     1       3.551   2.104  -0.082  0.00  0.00    -0.507 OA
ATOM     22  H   UNL     1       3.939   2.173  -0.965  0.00  0.00    +0.292 HD
ENDBRANCH  20  21
BRANCH  18  23
ATOM     23  O   UNL     1       1.218  -2.010   0.410  0.00  0.00    -0.506 OA
ATOM     24  H   UNL     1       1.370  -2.530  -0.391  0.00  0.00    +0.292 HD
ENDBRANCH  18  23
ENDBRANCH   1  17
BRANCH   9  25
ATOM     25  S   UNL     1      -4.357   4.757  -2.293  0.00  0.00    +0.061 S 
ATOM     26  O   UNL     1      -4.565   4.329  -3.631  0.00  0.00    -0.153 OA
ATOM     27  O   UNL     1      -5.396   5.319  -1.503  0.00  0.00    -0.153 OA
BRANCH  25  28
ATOM     28  N   UNL     1      -3.139   5.878  -2.339  0.00  0.00    -0.172 NA
ATOM     29  C   UNL     1      -3.006   6.896  -1.284  0.00  0.00    +0.137 C 
ATOM     30  C   UNL     1      -1.554   6.878  -0.781  0.00  0.00    +0.177 C 
ATOM     31  O   UNL     1      -0.669   7.001  -1.897  0.00  0.00    -0.377 OA
ATOM     32  C   UNL     1      -0.753   5.923  -2.832  0.00  0.00    +0.177 C 
ATOM     33  C   UNL     1      -2.161   5.889  -3.438  0.00  0.00    +0.137 C 
ENDBRANCH  25  28
ENDBRANCH   9  25
TORSDOF 5
