REMARK  Name = ZINC00954818
REMARK  7 active torsions:
REMARK  status: ('A' for Active; 'I' for Inactive)
REMARK    1  A    between atoms: C_1  and  C_2
REMARK    2  A    between atoms: C_2  and  C_4
REMARK    3  A    between atoms: C_2  and  N_17
REMARK    4  A    between atoms: N_6  and  N_7
REMARK    5  A    between atoms: C_8  and  C_9
REMARK    6  A    between atoms: C_12  and  O_15
REMARK    7  A    between atoms: O_15  and  C_16
REMARK                            x       y       z     vdW  Elec       q    Type
REMARK                         _______ _______ _______ _____ _____    ______ ____
ROOT
ATOM      1  C   UNL     1      -0.793   4.855  -6.787  0.00  0.00    +0.041 C 
ATOM      2  C   UNL     1      -1.838   4.137  -5.931  0.00  0.00    +0.176 C 
ENDROOT
BRANCH   2   3
ATOM      3  N   UNL     1      -1.653   4.503  -4.524  0.00  0.00    -0.287 N 
ATOM      4  C   UNL     1      -1.760   5.809  -4.178  0.00  0.00    +0.204 A 
ATOM      5  N   UNL     1      -1.611   6.237  -2.944  0.00  0.00    -0.230 NA
ATOM      6  C   UNL     1      -1.344   5.329  -2.010  0.00  0.00    +0.116 A 
ATOM      7  C   UNL     1      -1.213   3.947  -2.271  0.00  0.00    +0.076 A 
ATOM      8  C   UNL     1      -1.383   3.522  -3.631  0.00  0.00    +0.263 A 
ATOM      9  O   UNL     1      -1.290   2.352  -3.962  0.00  0.00    -0.267 OA
ATOM     10  C   UNL     1      -0.921   3.104  -1.126  0.00  0.00    -0.023 A 
ATOM     11  C   UNL     1      -0.804   3.725   0.071  0.00  0.00    -0.004 A 
ATOM     12  S   UNL     1      -1.075   5.446  -0.270  0.00  0.00    -0.073 S 
ATOM     13  C   UNL     1      -0.509   3.093   1.397  0.00  0.00    +0.043 C 
ATOM     14  C   UNL     1      -0.726   1.578   1.270  0.00  0.00    +0.005 C 
ATOM     15  C   UNL     1      -0.013   1.086   0.008  0.00  0.00    +0.005 C 
ATOM     16  C   UNL     1      -0.749   1.591  -1.233  0.00  0.00    +0.037 C 
ENDBRANCH   2   3
BRANCH   2  17
ATOM     17  C   UNL     1      -3.219   4.542  -6.378  0.00  0.00    +0.255 C 
ATOM     18  O   UNL     1      -3.974   5.083  -5.598  0.00  0.00    -0.272 OA
ATOM     19  N   UNL     1      -3.615   4.302  -7.644  0.00  0.00    -0.205 N 
ATOM     20  H   UNL     1      -3.010   3.869  -8.267  0.00  0.00    +0.177 HD
BRANCH  19  21
ATOM     21  N   UNL     1      -4.898   4.678  -8.059  0.00  0.00    -0.188 NA
ATOM     22  C   UNL     1      -5.280   4.447  -9.278  0.00  0.00    +0.138 C 
BRANCH  22  23
ATOM     23  C   UNL     1      -6.630   4.843  -9.716  0.00  0.00    -0.005 A 
ATOM     24  C   UNL     1      -7.505   5.462  -8.818  0.00  0.00    +0.013 A 
ATOM     25  C   UNL     1      -8.765   5.834  -9.232  0.00  0.00    +0.046 A 
ATOM     26  C   UNL     1      -9.171   5.587 -10.537  0.00  0.00    +0.120 A 
ATOM     27  C   UNL     1      -8.307   4.967 -11.432  0.00  0.00    +0.046 A 
ATOM     28  C   UNL     1      -7.043   4.596 -11.027  0.00  0.00    +0.013 A 
BRANCH  26  29
ATOM     29  O   UNL     1     -10.416   5.951 -10.940  0.00  0.00    -0.495 OA
ATOM     30  C   UNL     1     -11.252   6.583  -9.970  0.00  0.00    +0.277 C 
ENDBRANCH  26  29
ENDBRANCH  22  23
ENDBRANCH  19  21
ENDBRANCH   2  17
TORSDOF 5
