REMARK  Name = ZINC14240890
REMARK  9 active torsions:
REMARK  status: ('A' for Active; 'I' for Inactive)
REMARK    1  A    between atoms: C_1  and  C_2
REMARK    2  A    between atoms: C_2  and  C_3
REMARK    3  A    between atoms: C_3  and  C_4
REMARK    4  A    between atoms: C_3  and  C_5
REMARK    5  A    between atoms: C_3  and  C_6
REMARK    6  A    between atoms: C_13  and  N_17
REMARK    7  A    between atoms: C_14  and  C_15
REMARK    8  A    between atoms: C_18  and  C_20
REMARK    9  A    between atoms: C_20  and  N_21
REMARK                            x       y       z     vdW  Elec       q    Type
REMARK                         _______ _______ _______ _____ _____    ______ ____
ROOT
ATOM      1  N   UNL     1       1.836  -3.152   6.945  0.00  0.00    -0.278 N 
ATOM      2  C   UNL     1       2.107  -4.426   6.599  0.00  0.00    +0.236 C 
ATOM      3  O   UNL     1       1.937  -4.794   5.456  0.00  0.00    -0.274 OA
ATOM      4  H   UNL     1       1.972  -2.858   7.859  0.00  0.00    +0.155 HD
ENDROOT
BRANCH   1  11
ATOM      5  C   UNL     1       0.011   1.072   2.506  0.00  0.00    -0.000 C 
ATOM      6  C   UNL     1      -0.713   1.550   3.768  0.00  0.00    +0.009 C 
ATOM      7  C   UNL     1       0.145   1.264   5.001  0.00  0.00    +0.037 C 
ATOM      8  C   UNL     1       0.551  -0.205   4.986  0.00  0.00    -0.018 A 
ATOM      9  C   UNL     1       0.483  -0.933   3.849  0.00  0.00    -0.004 A 
ATOM     10  S   UNL     1       1.042  -2.548   4.314  0.00  0.00    -0.077 S 
ATOM     11  C   UNL     1       1.361  -2.261   5.992  0.00  0.00    +0.090 A 
ATOM     12  C   UNL     1       1.028  -0.924   6.154  0.00  0.00    +0.084 A 
ATOM     13  C   UNL     1       0.034  -0.463   2.501  0.00  0.00    +0.047 C 
BRANCH   5  14
ATOM     14  C   UNL     1      -0.729   1.579   1.267  0.00  0.00    -0.032 C 
ATOM     15  C   UNL     1      -0.750   3.109   1.275  0.00  0.00    +0.011 C 
ATOM     16  C   UNL     1      -2.164   1.050   1.278  0.00  0.00    +0.011 C 
BRANCH  14  18
ATOM     17  C   UNL     1      -0.753   1.593  -1.232  0.00  0.00    +0.004 C 
ATOM     18  C   UNL     1      -0.013   1.086   0.008  0.00  0.00    +0.003 C 
ENDBRANCH  14  18
ENDBRANCH   5  14
BRANCH  12  19
ATOM     19  C   UNL     1       1.150  -0.277   7.425  0.00  0.00    +0.102 C 
ATOM     20  N   UNL     1       1.247   0.236   8.434  0.00  0.00    -0.191 NA
ENDBRANCH  12  19
ENDBRANCH   1  11
BRANCH   2  21
ATOM     21  C   UNL     1       2.623  -5.394   7.633  0.00  0.00    +0.214 C 
BRANCH  21  22
ATOM     22  N   UNL     1       2.838  -6.703   7.012  0.00  0.00    -0.215 N 
ATOM     23  C   UNL     1       3.999  -7.090   6.440  0.00  0.00    +0.251 C 
ATOM     24  O   UNL     1       5.023  -6.448   6.344  0.00  0.00    -0.272 OA
ATOM     25  C   UNL     1       3.749  -8.491   5.945  0.00  0.00    +0.138 C 
ATOM     26  C   UNL     1       3.949  -8.589   4.427  0.00  0.00    +0.045 C 
ATOM     27  C   UNL     1       4.488 -10.028   4.262  0.00  0.00    +0.038 C 
ATOM     28  C   UNL     1       5.137 -10.365   5.589  0.00  0.00    -0.042 A 
ATOM     29  C   UNL     1       4.705  -9.477   6.560  0.00  0.00    -0.012 A 
ATOM     30  C   UNL     1       5.170  -9.601   7.859  0.00  0.00    +0.006 A 
ATOM     31  C   UNL     1       6.061 -10.604   8.187  0.00  0.00    +0.000 A 
ATOM     32  C   UNL     1       6.492 -11.489   7.217  0.00  0.00    +0.000 A 
ATOM     33  C   UNL     1       6.030 -11.368   5.921  0.00  0.00    +0.004 A 
ATOM     34  N   UNL     1       2.362  -8.773   6.319  0.00  0.00    -0.281 N 
ATOM     35  C   UNL     1       1.911  -7.667   6.946  0.00  0.00    +0.310 C 
ATOM     36  O   UNL     1       0.787  -7.557   7.396  0.00  0.00    -0.252 OA
ATOM     37  H   UNL     1       1.869  -9.591   6.154  0.00  0.00    +0.152 HD
ENDBRANCH  21  22
ENDBRANCH   2  21
TORSDOF 6
