REMARK  Name = ZINC36490660
REMARK  9 active torsions:
REMARK  status: ('A' for Active; 'I' for Inactive)
REMARK    1  A    between atoms: C_1  and  C_2
REMARK    2  A    between atoms: C_2  and  C_3
REMARK    3  A    between atoms: C_2  and  C_4
REMARK    4  A    between atoms: C_2  and  N_5
REMARK    5  A    between atoms: C_6  and  C_8
REMARK    6  A    between atoms: C_8  and  C_10
REMARK    7  A    between atoms: C_8  and  N_24
REMARK    8  A    between atoms: N_24  and  C_25
REMARK    9  A    between atoms: C_31  and  C_33
REMARK                            x       y       z     vdW  Elec       q    Type
REMARK                         _______ _______ _______ _____ _____    ______ ____
ROOT
ATOM      1  C   UNL     1       2.594  -0.566  -2.626  0.00  0.00    +0.193 C 
ENDROOT
BRANCH   1   2
ATOM      2  C   UNL     1       2.422  -1.979  -3.121  0.00  0.00    -0.010 A 
ATOM      3  C   UNL     1       3.478  -2.817  -3.102  0.00  0.00    +0.015 A 
ATOM      4  C   UNL     1       3.368  -4.152  -3.556  0.00  0.00    -0.017 A 
ATOM      5  C   UNL     1       4.471  -5.017  -3.531  0.00  0.00    +0.008 A 
ATOM      6  C   UNL     1       4.337  -6.299  -3.975  0.00  0.00    +0.001 A 
ATOM      7  C   UNL     1       3.118  -6.765  -4.454  0.00  0.00    +0.001 A 
ATOM      8  C   UNL     1       2.024  -5.948  -4.492  0.00  0.00    +0.009 A 
ATOM      9  C   UNL     1       2.130  -4.630  -4.044  0.00  0.00    -0.010 A 
ATOM     10  C   UNL     1       0.983  -3.718  -4.065  0.00  0.00    -0.010 A 
ATOM     11  C   UNL     1       1.156  -2.398  -3.592  0.00  0.00    -0.012 A 
ATOM     12  C   UNL     1       0.063  -1.519  -3.603  0.00  0.00    +0.009 A 
ATOM     13  C   UNL     1      -1.147  -1.950  -4.062  0.00  0.00    +0.001 A 
ATOM     14  C   UNL     1      -1.315  -3.251  -4.521  0.00  0.00    +0.001 A 
ATOM     15  C   UNL     1      -0.267  -4.127  -4.535  0.00  0.00    +0.009 A 
ENDBRANCH   1   2
BRANCH   1  17
ATOM     16  N   UNL     1       0.870  -0.786  -0.866  0.00  0.00    -0.309 N 
ATOM     17  C   UNL     1       2.141  -0.479  -1.191  0.00  0.00    +0.239 C 
ATOM     18  O   UNL     1       2.921  -0.132  -0.329  0.00  0.00    -0.273 OA
ATOM     19  H   UNL     1       0.246  -1.063  -1.555  0.00  0.00    +0.149 HD
BRANCH  16  21
ATOM     20  C   UNL     1       0.604   0.734   1.033  0.00  0.00    +0.031 C 
ATOM     21  C   UNL     1       0.429  -0.701   0.529  0.00  0.00    +0.026 C 
ATOM     22  C   UNL     1       1.270  -1.648   1.388  0.00  0.00    +0.031 C 
ATOM     23  C   UNL     1      -1.045  -1.099   0.624  0.00  0.00    +0.031 C 
ENDBRANCH  16  21
ENDBRANCH   1  17
BRANCH   1  24
ATOM     24  N   UNL     1       4.005  -0.185  -2.716  0.00  0.00    -0.281 N 
ATOM     25  C   UNL     1       4.915  -0.774  -1.915  0.00  0.00    +0.237 C 
ATOM     26  O   UNL     1       4.554  -1.549  -1.055  0.00  0.00    -0.274 OA
BRANCH  25  27
ATOM     27  C   UNL     1       6.381  -0.469  -2.088  0.00  0.00    +0.159 C 
ATOM     28  C   UNL     1       6.968  -1.308  -3.245  0.00  0.00    +0.041 C 
ATOM     29  C   UNL     1       7.517  -2.542  -2.493  0.00  0.00    +0.098 C 
ATOM     30  C   UNL     1       7.772  -2.038  -1.090  0.00  0.00    +0.214 C 
ATOM     31  O   UNL     1       8.457  -2.602  -0.263  0.00  0.00    -0.276 OA
ATOM     32  N   UNL     1       7.128  -0.872  -0.892  0.00  0.00    -0.304 N 
ATOM     33  H   UNL     1       7.155  -0.364  -0.066  0.00  0.00    +0.149 HD
ENDBRANCH  25  27
BRANCH  24  34
ATOM     34  C   UNL     1       4.428   0.837  -3.678  0.00  0.00    +0.077 C 
ATOM     35  C   UNL     1       3.817   2.185  -3.291  0.00  0.00    +0.022 C 
ATOM     36  C   UNL     1       4.258   3.252  -4.295  0.00  0.00    +0.002 C 
ATOM     37  C   UNL     1       3.784   2.861  -5.696  0.00  0.00    +0.000 C 
ATOM     38  C   UNL     1       4.395   1.512  -6.083  0.00  0.00    +0.002 C 
ATOM     39  C   UNL     1       3.953   0.446  -5.079  0.00  0.00    +0.022 C 
ENDBRANCH  24  34
ENDBRANCH   1  24
TORSDOF 6
