REMARK  Name = ZINC36821045
REMARK  7 active torsions:
REMARK  status: ('A' for Active; 'I' for Inactive)
REMARK    1  A    between atoms: C_1  and  C_2
REMARK    2  A    between atoms: C_11  and  N_29
REMARK    3  A    between atoms: C_13  and  S_15
REMARK    4  A    between atoms: S_15  and  C_16
REMARK    5  A    between atoms: C_16  and  C_17
REMARK    6  A    between atoms: N_19  and  C_20
REMARK    7  A    between atoms: C_25  and  N_26
REMARK                            x       y       z     vdW  Elec       q    Type
REMARK                         _______ _______ _______ _____ _____    ______ ____
ROOT
ATOM      1  C   UNL     1      -0.435   0.966  -0.411  0.00  0.00    +0.008 C 
ATOM      2  C   UNL     1      -0.333  -0.559  -0.356  0.00  0.00    -0.009 C 
ATOM      3  C   UNL     1       0.438  -1.067  -1.578  0.00  0.00    +0.008 C 
ATOM      4  C   UNL     1       0.332  -2.590  -1.662  0.00  0.00    +0.037 C 
ATOM      5  C   UNL     1       0.758  -3.190  -0.324  0.00  0.00    -0.025 A 
ATOM      6  C   UNL     1       0.783  -2.429   0.793  0.00  0.00    -0.004 A 
ATOM      7  S   UNL     1       1.327  -3.516   2.087  0.00  0.00    -0.073 S 
ATOM      8  C   UNL     1       1.522  -4.986   1.133  0.00  0.00    +0.115 A 
ATOM      9  C   UNL     1       1.154  -4.581  -0.175  0.00  0.00    +0.051 A 
ATOM     10  C   UNL     1       1.210  -5.572  -1.198  0.00  0.00    +0.129 A 
ATOM     11  N   UNL     1       1.606  -6.783  -0.815  0.00  0.00    -0.207 NA
ATOM     12  C   UNL     1       1.936  -7.093   0.430  0.00  0.00    +0.191 A 
ATOM     13  N   UNL     1       1.904  -6.212   1.432  0.00  0.00    -0.214 NA
ATOM     14  C   UNL     1       0.421  -0.980   0.914  0.00  0.00    +0.046 C 
ENDROOT
BRANCH  10  15
ATOM     15  N   UNL     1       0.874  -5.292  -2.510  0.00  0.00    -0.343 N 
ATOM     16  H   UNL     1       1.331  -5.744  -3.236  0.00  0.00    +0.144 HD
ATOM     17  H   UNL     1       0.180  -4.642  -2.704  0.00  0.00    +0.144 HD
ENDBRANCH  10  15
BRANCH  12  18
ATOM     18  S   UNL     1       2.441  -8.745   0.780  0.00  0.00    -0.077 S 
BRANCH  18  19
ATOM     19  C   UNL     1       2.340  -9.583  -0.826  0.00  0.00    +0.173 C 
BRANCH  19  20
ATOM     20  C   UNL     1       2.751 -11.024  -0.666  0.00  0.00    +0.228 C 
ATOM     21  O   UNL     1       3.079 -11.445   0.423  0.00  0.00    -0.275 OA
ATOM     22  N   UNL     1       2.753 -11.847  -1.734  0.00  0.00    -0.283 N 
ATOM     23  H   UNL     1       2.573 -11.492  -2.619  0.00  0.00    +0.155 HD
BRANCH  22  24
ATOM     24  C   UNL     1       3.015 -13.211  -1.567  0.00  0.00    +0.064 A 
ATOM     25  C   UNL     1       2.579 -13.868  -0.423  0.00  0.00    +0.025 A 
ATOM     26  C   UNL     1       2.839 -15.214  -0.261  0.00  0.00    +0.002 A 
ATOM     27  C   UNL     1       3.534 -15.908  -1.235  0.00  0.00    +0.002 A 
ATOM     28  C   UNL     1       3.970 -15.257  -2.374  0.00  0.00    +0.034 A 
ATOM     29  C   UNL     1       3.707 -13.912  -2.545  0.00  0.00    +0.147 A 
BRANCH  29  30
ATOM     30  N   UNL     1       4.168 -13.217  -3.768  0.00  0.00    +0.058 N 
ATOM     31  O   UNL     1       4.846 -13.805  -4.579  0.00  0.00    -0.126 OA
ATOM     32  O   UNL     1       3.868 -12.061  -3.957  0.00  0.00    -0.126 OA
ENDBRANCH  29  30
ENDBRANCH  22  24
ENDBRANCH  19  20
ENDBRANCH  18  19
ENDBRANCH  12  18
TORSDOF 6
