REMARK  Name = ZINC49236959
REMARK  5 active torsions:
REMARK  status: ('A' for Active; 'I' for Inactive)
REMARK    1  A    between atoms: C_2  and  C_10
REMARK    2  A    between atoms: C_6  and  N_7
REMARK    3  A    between atoms: N_14  and  C_15
REMARK    4  A    between atoms: C_15  and  C_16
REMARK    5  A    between atoms: C_15  and  C_19
REMARK                            x       y       z     vdW  Elec       q    Type
REMARK                         _______ _______ _______ _____ _____    ______ ____
ROOT
ATOM      1  C   UNL     1       1.213   3.580  -0.107  0.00  0.00    +0.182 A 
ATOM      2  N   UNL     1       0.188   4.351  -0.401  0.00  0.00    -0.108 NA
ATOM      3  N   UNL     1       0.459   5.579  -0.139  0.00  0.00    -0.023 NA
ATOM      4  N   UNL     1       1.654   5.684   0.332  0.00  0.00    -0.043 NA
ATOM      5  N   UNL     1       2.191   4.385   0.377  0.00  0.00    -0.221 N 
ENDROOT
BRANCH   1   7
ATOM      6  C   UNL     1       2.030   1.344   0.626  0.00  0.00    +0.036 A 
ATOM      7  C   UNL     1       1.284   2.110  -0.268  0.00  0.00    +0.024 A 
ATOM      8  C   UNL     1       0.602   1.488  -1.314  0.00  0.00    +0.033 A 
ATOM      9  C   UNL     1       0.668   0.116  -1.463  0.00  0.00    +0.062 A 
ATOM     10  C   UNL     1       1.409  -0.645  -0.575  0.00  0.00    +0.080 A 
ATOM     11  C   UNL     1       2.092  -0.032   0.470  0.00  0.00    +0.045 A 
ATOM     12 CL   UNL     1       1.487  -2.368  -0.768  0.00  0.00    -0.080 Cl
ATOM     13 CL   UNL     1      -0.181  -0.656  -2.765  0.00  0.00    -0.082 Cl
BRANCH  11  14
ATOM     14  N   UNL     1       2.840  -0.804   1.364  0.00  0.00    -0.357 N 
ATOM     15  H   UNL     1       3.316  -0.377   2.093  0.00  0.00    +0.142 HD
ATOM     16  H   UNL     1       2.883  -1.767   1.255  0.00  0.00    +0.142 HD
ENDBRANCH  11  14
ENDBRANCH   1   7
BRANCH   5  17
ATOM     17  C   UNL     1       3.521   3.988   0.844  0.00  0.00    +0.117 C 
BRANCH  17  18
ATOM     18  C   UNL     1       4.588   4.656  -0.027  0.00  0.00    +0.014 C 
ATOM     19  C   UNL     1       5.414   3.755  -0.947  0.00  0.00    +0.006 C 
ATOM     20  C   UNL     1       6.053   4.364   0.302  0.00  0.00    +0.006 C 
ENDBRANCH  17  18
BRANCH  17  21
ATOM     21  C   UNL     1       3.704   4.426   2.298  0.00  0.00    +0.014 C 
ATOM     22  C   UNL     1       4.176   3.370   3.300  0.00  0.00    +0.006 C 
ATOM     23  C   UNL     1       2.728   3.863   3.333  0.00  0.00    +0.006 C 
ENDBRANCH  17  21
ENDBRANCH   5  17
TORSDOF 5
