REMARK  Name = ZINC09137819
REMARK  3 active torsions:
REMARK  status: ('A' for Active; 'I' for Inactive)
REMARK    1  A    between atoms: C_4  and  C_7
REMARK    2  A    between atoms: N_17  and  N_18
REMARK    3  A    between atoms: C_19  and  C_20
REMARK                            x       y       z     vdW  Elec       q    Type
REMARK                         _______ _______ _______ _____ _____    ______ ____
ROOT
ATOM      1  C   UNL     1      -7.120   1.900   0.049  0.00  0.00    +0.084 A 
ATOM      2  C   UNL     1      -7.219   0.501  -0.155  0.00  0.00    +0.028 A 
ATOM      3  C   UNL     1      -8.449  -0.135  -0.354  0.00  0.00    +0.027 A 
ATOM      4  C   UNL     1      -8.484  -1.486  -0.545  0.00  0.00    +0.019 A 
ATOM      5  C   UNL     1      -7.312  -2.240  -0.545  0.00  0.00    +0.017 A 
ATOM      6  C   UNL     1      -6.098  -1.650  -0.355  0.00  0.00    +0.029 A 
ATOM      7  C   UNL     1      -6.025  -0.264  -0.155  0.00  0.00    +0.077 A 
ATOM      8  N   UNL     1      -4.857   0.364   0.032  0.00  0.00    -0.213 NA
ATOM      9  C   UNL     1      -4.823   1.669   0.222  0.00  0.00    +0.236 A 
ATOM     10  N   UNL     1      -5.917   2.425   0.230  0.00  0.00    -0.213 NA
ATOM     11  N   UNL     1      -3.594   2.279   0.418  0.00  0.00    -0.205 N 
ATOM     12 BR   UNL     1     -10.146  -2.347  -0.814  0.00  0.00    -0.050 Br
ATOM     13  H   UNL     1      -3.544   3.238   0.556  0.00  0.00    +0.177 HD
ENDROOT
BRANCH   1  17
ATOM     14  C   UNL     1     -10.593   4.349   0.080  0.00  0.00    +0.000 A 
ATOM     15  C   UNL     1     -10.593   3.145   0.762  0.00  0.00    +0.001 A 
ATOM     16  C   UNL     1      -9.469   2.346   0.756  0.00  0.00    +0.010 A 
ATOM     17  C   UNL     1      -8.330   2.753   0.060  0.00  0.00    +0.001 A 
ATOM     18  C   UNL     1      -8.335   3.971  -0.622  0.00  0.00    +0.010 A 
ATOM     19  C   UNL     1      -9.468   4.759  -0.612  0.00  0.00    +0.001 A 
ENDBRANCH   1  17
BRANCH  11  20
ATOM     20  N   UNL     1      -2.422   1.511   0.415  0.00  0.00    -0.185 NA
ATOM     21  C   UNL     1      -1.269   2.083   0.599  0.00  0.00    +0.171 C 
BRANCH  21  22
ATOM     22  C   UNL     1      -0.041   1.277   0.597  0.00  0.00    +0.113 C 
ATOM     23  C   UNL     1       1.368  -0.452   0.522  0.00  0.00    +0.128 C 
ATOM     24  C   UNL     1       1.905  -1.546  -0.332  0.00  0.00    -0.001 C 
ATOM     25  C   UNL     1       3.247  -1.546  -0.475  0.00  0.00    -0.002 C 
ATOM     26  C   UNL     1       4.055  -0.517   0.211  0.00  0.00    -0.003 C 
ATOM     27  C   UNL     1       3.516   0.688   0.487  0.00  0.00    -0.003 C 
ATOM     28  C   UNL     1       2.095   0.854   0.067  0.00  0.00    +0.121 C 
ATOM     29  N   UNL     1       1.245   1.806   0.780  0.00  0.00    -0.321 N 
ATOM     30  H   UNL     1       1.507   2.607   1.262  0.00  0.00    +0.148 HD
ATOM     31  N   UNL     1      -0.003  -0.025   0.418  0.00  0.00    -0.364 N 
ATOM     32  H   UNL     1      -0.811  -0.632   0.236  0.00  0.00    +0.161 HD
ENDBRANCH  21  22
ENDBRANCH  11  20
TORSDOF 3
