REMARK  Name = ZINC24927607
REMARK  8 active torsions:
REMARK  status: ('A' for Active; 'I' for Inactive)
REMARK    1  A    between atoms: C_1  and  C_2
REMARK    2  A    between atoms: C_2  and  C_3
REMARK    3  A    between atoms: C_3  and  N_4
REMARK    4  A    between atoms: N_4  and  C_5
REMARK    5  A    between atoms: N_4  and  C_17
REMARK    6  A    between atoms: C_5  and  C_6
REMARK    7  A    between atoms: C_17  and  C_18
REMARK    8  A    between atoms: N_20  and  C_21
REMARK                            x       y       z     vdW  Elec       q    Type
REMARK                         _______ _______ _______ _____ _____    ______ ____
ROOT
ATOM      1  N   UNL     1       3.560   1.979   0.077  0.00  0.00    +0.390 N 
ATOM      2  H   UNL     1       3.400   2.662  -0.770  0.00  0.00    -0.081 HD
ENDROOT
BRANCH   1   3
ATOM      3  C   UNL     1       3.548   2.778   1.310  0.00  0.00    -0.078 C 
BRANCH   3   5
ATOM      4  C   UNL     1       3.705   2.677   3.801  0.00  0.00    +0.002 C 
ATOM      5  C   UNL     1       3.842   1.872   2.507  0.00  0.00    -0.022 C 
ENDBRANCH   3   5
ENDBRANCH   1   3
BRANCH   1   6
ATOM      6  C   UNL     1       4.860   1.321  -0.112  0.00  0.00    -0.003 C 
BRANCH   6   7
ATOM      7  C   UNL     1       5.890   2.349  -0.504  0.00  0.00    +0.094 A 
ATOM      8  N   UNL     1       7.143   1.923  -0.814  0.00  0.00    -0.311 N 
ATOM      9  H   UNL     1       7.384   0.851  -0.775  0.00  0.00    +0.170 HD
ATOM     10  C   UNL     1       8.084   2.830  -1.170  0.00  0.00    +0.266 A 
ATOM     11  O   UNL     1       9.217   2.480  -1.453  0.00  0.00    -0.267 OA
ATOM     12  C   UNL     1       7.720   4.177  -1.202  0.00  0.00    +0.102 A 
ATOM     13  C   UNL     1       6.417   4.591  -0.877  0.00  0.00    +0.085 A 
ATOM     14  N   UNL     1       5.537   3.594  -0.535  0.00  0.00    -0.235 NA
ATOM     15  C   UNL     1       6.187   5.972  -0.951  0.00  0.00    +0.036 A 
ATOM     16  C   UNL     1       7.183   6.808  -1.315  0.00  0.00    +0.048 A 
ATOM     17  S   UNL     1       8.551   5.695  -1.588  0.00  0.00    -0.090 S 
ENDBRANCH   6   7
ENDBRANCH   1   6
BRANCH   1  18
ATOM     18  C   UNL     1       2.468   0.996   0.077  0.00  0.00    +0.019 C 
BRANCH  18  19
ATOM     19  C   UNL     1       1.145   1.715   0.025  0.00  0.00    +0.201 C 
ATOM     20  O   UNL     1       1.114   2.927  -0.008  0.00  0.00    -0.278 OA
ATOM     21  N   UNL     1      -0.004   1.011   0.016  0.00  0.00    -0.287 N 
ATOM     22  H   UNL     1       0.024  -0.088  -0.020  0.00  0.00    +0.155 HD
BRANCH  21  23
ATOM     23  C   UNL     1      -1.234   1.679   0.052  0.00  0.00    +0.035 A 
ATOM     24  C   UNL     1      -2.308   1.122   0.735  0.00  0.00    +0.025 A 
ATOM     25  C   UNL     1      -3.519   1.784   0.774  0.00  0.00    +0.023 A 
ATOM     26  C   UNL     1      -3.667   2.998   0.125  0.00  0.00    +0.059 A 
ATOM     27  C   UNL     1      -2.600   3.553  -0.561  0.00  0.00    +0.061 A 
ATOM     28  C   UNL     1      -1.384   2.896  -0.598  0.00  0.00    +0.044 A 
ATOM     29 CL   UNL     1      -2.788   5.075  -1.373  0.00  0.00    -0.082 Cl
ATOM     30 CL   UNL     1      -5.192   3.825   0.171  0.00  0.00    -0.082 Cl
ENDBRANCH  21  23
ENDBRANCH  18  19
ENDBRANCH   1  18
TORSDOF 7
