REMARK  Name = ZINC01630426
REMARK  3 active torsions:
REMARK  status: ('A' for Active; 'I' for Inactive)
REMARK    1  A    between atoms: C_4  and  S_7
REMARK    2  A    between atoms: S_7  and  C_10
REMARK    3  A    between atoms: C_15  and  N_16
REMARK                            x       y       z     vdW  Elec       q    Type
REMARK                         _______ _______ _______ _____ _____    ______ ____
ROOT
ATOM      1  S   UNL     1       2.659   4.081   0.126  0.00  0.00    +0.105 S 
ATOM      2  N   UNL     1       2.405   5.427   0.719  0.00  0.00    -0.244 NA
ATOM      3  O   UNL     1       3.175   4.233  -1.190  0.00  0.00    -0.238 OA
ATOM      4  H   UNL     1       2.924   5.729   1.641  0.00  0.00    +0.198 HD
ENDROOT
BRANCH   1   8
ATOM      5  C   UNL     1       5.663   1.851   2.675  0.00  0.00    +0.000 A 
ATOM      6  C   UNL     1       5.595   1.609   1.316  0.00  0.00    +0.001 A 
ATOM      7  C   UNL     1       4.678   2.290   0.537  0.00  0.00    +0.018 A 
ATOM      8  C   UNL     1       3.829   3.213   1.118  0.00  0.00    +0.052 A 
ATOM      9  C   UNL     1       3.900   3.459   2.476  0.00  0.00    +0.018 A 
ATOM     10  C   UNL     1       4.814   2.775   3.256  0.00  0.00    +0.001 A 
ENDBRANCH   1   8
BRANCH   1  11
ATOM     11  C   UNL     1       1.151   3.171   0.064  0.00  0.00    +0.082 A 
ATOM     12  C   UNL     1       1.114   1.864   0.513  0.00  0.00    +0.021 A 
ATOM     13  C   UNL     1      -0.069   1.151   0.464  0.00  0.00    +0.001 A 
ATOM     14  C   UNL     1      -1.213   1.743  -0.038  0.00  0.00    +0.002 A 
ATOM     15  C   UNL     1      -1.177   3.051  -0.482  0.00  0.00    +0.034 A 
ATOM     16  C   UNL     1       0.007   3.765  -0.433  0.00  0.00    +0.143 A 
BRANCH  16  17
ATOM     17  N   UNL     1       0.047   5.164  -0.914  0.00  0.00    +0.058 N 
ATOM     18  O   UNL     1      -0.986   5.737  -1.210  0.00  0.00    -0.126 OA
ATOM     19  O   UNL     1       1.114   5.743  -1.013  0.00  0.00    -0.126 OA
ENDBRANCH  16  17
ENDBRANCH   1  11
TORSDOF 3
