REMARK  Name = ZINC15942672
REMARK  7 active torsions:
REMARK  status: ('A' for Active; 'I' for Inactive)
REMARK    1  A    between atoms: C_1  and  C_2
REMARK    2  A    between atoms: C_4  and  C_7
REMARK    3  A    between atoms: C_10  and  C_27
REMARK    4  A    between atoms: C_11  and  S_13
REMARK    5  A    between atoms: S_13  and  N_16
REMARK    6  A    between atoms: C_27  and  C_28
REMARK    7  A    between atoms: C_27  and  C_29
REMARK                            x       y       z     vdW  Elec       q    Type
REMARK                         _______ _______ _______ _____ _____    ______ ____
ROOT
ATOM      1  C   UNL     1       0.138  -3.385  -0.684  0.00  0.00    +0.022 A 
ATOM      2  C   UNL     1       0.293  -2.878  -1.975  0.00  0.00    +0.012 A 
ATOM      3  C   UNL     1       0.401  -3.743  -3.044  0.00  0.00    +0.006 A 
ATOM      4  C   UNL     1       0.354  -5.111  -2.838  0.00  0.00    -0.018 A 
ATOM      5  C   UNL     1       0.200  -5.620  -1.561  0.00  0.00    +0.113 A 
ATOM      6  C   UNL     1       0.098  -4.765  -0.483  0.00  0.00    +0.040 A 
ENDROOT
BRANCH   1  10
ATOM      7  C   UNL     1      -0.117   0.838   2.119  0.00  0.00    +0.069 C 
ATOM      8  C   UNL     1      -0.092  -0.615   1.718  0.00  0.00    +0.081 A 
ATOM      9  C   UNL     1       0.046  -1.104   0.411  0.00  0.00    +0.075 A 
ATOM     10  C   UNL     1       0.023  -2.463   0.466  0.00  0.00    +0.168 A 
ATOM     11  O   UNL     1      -0.125  -2.818   1.757  0.00  0.00    -0.354 OA
ATOM     12  N   UNL     1      -0.190  -1.632   2.528  0.00  0.00    -0.083 NA
ENDBRANCH   1  10
BRANCH   5  13
ATOM     13  S   UNL     1       0.141  -7.363  -1.310  0.00  0.00    +0.075 S 
ATOM     14  O   UNL     1      -0.049  -7.566   0.083  0.00  0.00    -0.150 OA
ATOM     15  O   UNL     1      -0.752  -7.884  -2.285  0.00  0.00    -0.150 OA
BRANCH  13  16
ATOM     16  N   UNL     1       1.642  -7.960  -1.675  0.00  0.00    -0.192 N 
ATOM     17  C   UNL     1       1.921  -8.556  -2.990  0.00  0.00    +0.227 C 
ATOM     18  C   UNL     1       2.754  -9.799  -2.800  0.00  0.00    +0.236 C 
ATOM     19  O   UNL     1       2.668 -10.706  -3.601  0.00  0.00    -0.274 OA
ATOM     20  N   UNL     1       3.591  -9.914  -1.752  0.00  0.00    -0.283 N 
ATOM     21  C   UNL     1       3.671  -8.903  -0.787  0.00  0.00    +0.056 A 
ATOM     22  C   UNL     1       2.688  -7.909  -0.743  0.00  0.00    +0.073 A 
ATOM     23  C   UNL     1       2.751  -6.904   0.204  0.00  0.00    +0.026 A 
ATOM     24  C   UNL     1       3.799  -6.878   1.108  0.00  0.00    +0.002 A 
ATOM     25  C   UNL     1       4.778  -7.852   1.065  0.00  0.00    +0.002 A 
ATOM     26  C   UNL     1       4.715  -8.873   0.123  0.00  0.00    +0.025 A 
ATOM     27  H   UNL     1       4.144 -10.706  -1.664  0.00  0.00    +0.155 HD
ENDBRANCH  13  16
ENDBRANCH   5  13
BRANCH   4  28
ATOM     28  C   UNL     1       0.470  -6.050  -4.011  0.00  0.00    +0.015 C 
ATOM     29  C   UNL     1      -0.739  -5.871  -4.930  0.00  0.00    +0.012 C 
ATOM     30  C   UNL     1       1.752  -5.740  -4.787  0.00  0.00    +0.012 C 
ENDBRANCH   4  28
TORSDOF 4
