REMARK  Name = ZINC59019791
REMARK  7 active torsions:
REMARK  status: ('A' for Active; 'I' for Inactive)
REMARK    1  A    between atoms: C_3  and  C_8
REMARK    2  A    between atoms: N_9  and  N_10
REMARK    3  A    between atoms: C_13  and  S_16
REMARK    4  A    between atoms: S_16  and  C_17
REMARK    5  A    between atoms: C_17  and  C_18
REMARK    6  A    between atoms: N_20  and  C_21
REMARK    7  A    between atoms: C_22  and  C_30
REMARK                            x       y       z     vdW  Elec       q    Type
REMARK                         _______ _______ _______ _____ _____    ______ ____
ROOT
ATOM      1  N   UNL     1       5.991   2.238  -0.044  0.00  0.00    -0.205 N 
ATOM      2  C   UNL     1       7.196   1.561  -0.059  0.00  0.00    +0.232 A 
ATOM      3  N   UNL     1       7.349   0.253  -0.073  0.00  0.00    -0.186 NA
ATOM      4  C   UNL     1       8.652  -0.047  -0.085  0.00  0.00    +0.211 A 
ATOM      5  N   UNL     1       9.346   1.066  -0.079  0.00  0.00    -0.144 NA
ATOM      6  N   UNL     1       8.423   2.124  -0.068  0.00  0.00    -0.245 N 
ATOM      7  H   UNL     1       5.980   3.208  -0.039  0.00  0.00    +0.177 HD
ATOM      8  H   UNL     1       8.627   3.072  -0.066  0.00  0.00    +0.192 HD
ENDROOT
BRANCH   1  10
ATOM      9  C   UNL     1       3.654   2.160  -0.022  0.00  0.00    +0.138 C 
ATOM     10  N   UNL     1       4.786   1.524  -0.036  0.00  0.00    -0.188 NA
BRANCH   9  13
ATOM     11  C   UNL     1      -0.017   1.379   0.010  0.00  0.00    +0.002 A 
ATOM     12  C   UNL     1       1.166   2.089   0.002  0.00  0.00    +0.009 A 
ATOM     13  C   UNL     1       2.386   1.407  -0.013  0.00  0.00    -0.004 A 
ATOM     14  C   UNL     1       2.398   0.011  -0.021  0.00  0.00    +0.029 A 
ATOM     15  C   UNL     1       1.207  -0.687  -0.013  0.00  0.00    +0.042 A 
ATOM     16  C   UNL     1       0.002  -0.004   0.002  0.00  0.00    +0.020 A 
ATOM     17 CL   UNL     1       1.220  -2.423  -0.023  0.00  0.00    -0.084 Cl
ENDBRANCH   9  13
ENDBRANCH   1  10
BRANCH   4  18
ATOM     18  S   UNL     1       9.328  -1.675  -0.105  0.00  0.00    -0.075 S 
BRANCH  18  19
ATOM     19  C   UNL     1      11.121  -1.405  -0.116  0.00  0.00    +0.173 C 
BRANCH  19  20
ATOM     20  C   UNL     1      11.829  -2.736  -0.133  0.00  0.00    +0.228 C 
ATOM     21  O   UNL     1      11.186  -3.764  -0.138  0.00  0.00    -0.275 OA
ATOM     22  N   UNL     1      13.176  -2.782  -0.143  0.00  0.00    -0.278 N 
ATOM     23  H   UNL     1      13.690  -1.960  -0.139  0.00  0.00    +0.155 HD
BRANCH  22  24
ATOM     24  C   UNL     1      13.828  -4.008  -0.160  0.00  0.00    +0.090 A 
ATOM     25  C   UNL     1      15.192  -4.247  -0.166  0.00  0.00    +0.084 A 
ATOM     26  C   UNL     1      15.624  -5.633  -0.183  0.00  0.00    -0.018 A 
ATOM     27  C   UNL     1      14.611  -6.527  -0.191  0.00  0.00    -0.004 A 
ATOM     28  S   UNL     1      13.143  -5.541  -0.169  0.00  0.00    -0.077 S 
ATOM     29  C   UNL     1      14.730  -8.020  -0.210  0.00  0.00    +0.043 C 
ATOM     30  C   UNL     1      16.170  -8.384  -0.600  0.00  0.00    +0.005 C 
ATOM     31  C   UNL     1      17.138  -7.550   0.244  0.00  0.00    +0.005 C 
ATOM     32  C   UNL     1      17.077  -6.084  -0.191  0.00  0.00    +0.037 C 
BRANCH  25  33
ATOM     33  C   UNL     1      16.137  -3.171  -0.157  0.00  0.00    +0.102 C 
ATOM     34  N   UNL     1      16.887  -2.317  -0.149  0.00  0.00    -0.191 NA
ENDBRANCH  25  33
ENDBRANCH  22  24
ENDBRANCH  19  20
ENDBRANCH  18  19
ENDBRANCH   4  18
TORSDOF 7
