REMARK  Name = ZINC63587517
REMARK  10 active torsions:
REMARK  status: ('A' for Active; 'I' for Inactive)
REMARK    1  A    between atoms: C_1  and  O_2
REMARK    2  A    between atoms: O_2  and  C_3
REMARK    3  A    between atoms: C_6  and  O_32
REMARK    4  A    between atoms: C_7  and  C_9
REMARK    5  A    between atoms: C_11  and  C_28
REMARK    6  A    between atoms: C_12  and  C_26
REMARK    7  A    between atoms: C_13  and  S_15
REMARK    8  A    between atoms: S_15  and  C_16
REMARK    9  A    between atoms: C_16  and  C_17
REMARK   10  A    between atoms: O_32  and  C_33
REMARK                            x       y       z     vdW  Elec       q    Type
REMARK                         _______ _______ _______ _____ _____    ______ ____
ROOT
ATOM      1  C   UNL     1       1.394  -4.107   2.219  0.00  0.00    +0.076 A 
ATOM      2  C   UNL     1       0.817  -4.864   1.198  0.00  0.00    +0.042 A 
ATOM      3  C   UNL     1       0.881  -6.241   1.254  0.00  0.00    +0.077 A 
ATOM      4  C   UNL     1       1.530  -6.835   2.346  0.00  0.00    +0.095 A 
ATOM      5  C   UNL     1       2.088  -6.010   3.339  0.00  0.00    +0.116 A 
ATOM      6  N   UNL     1       2.007  -4.693   3.241  0.00  0.00    -0.239 NA
ENDROOT
BRANCH   1  11
ATOM      7  C   UNL     1       0.626  -0.619   1.042  0.00  0.00    +0.121 A 
ATOM      8  C   UNL     1       1.202   0.141   2.051  0.00  0.00    +0.049 A 
ATOM      9  C   UNL     1       1.838  -0.475   3.111  0.00  0.00    +0.050 A 
ATOM     10  C   UNL     1       1.905  -1.858   3.173  0.00  0.00    +0.129 A 
ATOM     11  C   UNL     1       1.326  -2.629   2.160  0.00  0.00    +0.045 A 
ATOM     12  C   UNL     1       0.681  -2.000   1.095  0.00  0.00    +0.059 A 
BRANCH   7  14
ATOM     13  C   UNL     1      -0.017   1.425   0.010  0.00  0.00    +0.277 C 
ATOM     14  O   UNL     1       0.002  -0.004   0.002  0.00  0.00    -0.495 OA
ENDBRANCH   7  14
BRANCH  10  15
ATOM     15  O   UNL     1       2.531  -2.464   4.216  0.00  0.00    -0.494 OA
ATOM     16  C   UNL     1       3.099  -1.613   5.214  0.00  0.00    +0.277 C 
ENDBRANCH  10  15
ENDBRANCH   1  11
BRANCH   3  17
ATOM     17  C   UNL     1       0.269  -7.087   0.168  0.00  0.00    +0.419 C 
ATOM     18  F   UNL     1      -0.312  -6.257  -0.797  0.00  0.00    -0.166 F 
ATOM     19  F   UNL     1       1.261  -7.872  -0.428  0.00  0.00    -0.166 F 
ATOM     20  F   UNL     1      -0.713  -7.917   0.721  0.00  0.00    -0.166 F 
ENDBRANCH   3  17
BRANCH   4  21
ATOM     21  C   UNL     1       1.621  -8.261   2.449  0.00  0.00    +0.102 C 
ATOM     22  N   UNL     1       1.694  -9.391   2.531  0.00  0.00    -0.191 NA
ENDBRANCH   4  21
BRANCH   5  23
ATOM     23  S   UNL     1       2.908  -6.735   4.720  0.00  0.00    -0.101 S 
BRANCH  23  24
ATOM     24  C   UNL     1       3.449  -5.312   5.706  0.00  0.00    +0.122 C 
BRANCH  24  25
ATOM     25  C   UNL     1       4.185  -5.805   6.953  0.00  0.00    +0.184 C 
ATOM     26  N   UNL     1       5.317  -6.657   6.566  0.00  0.00    -0.363 N 
ATOM     27  C   UNL     1       5.114  -7.835   7.083  0.00  0.00    +0.060 A 
ATOM     28  C   UNL     1       5.882  -9.087   7.047  0.00  0.00    +0.027 A 
ATOM     29  C   UNL     1       5.412 -10.174   7.692  0.00  0.00    +0.002 A 
ATOM     30  C   UNL     1       4.203 -10.166   8.409  0.00  0.00    +0.002 A 
ATOM     31  C   UNL     1       3.422  -9.071   8.505  0.00  0.00    +0.027 A 
ATOM     32  C   UNL     1       3.834  -7.826   7.842  0.00  0.00    +0.060 A 
ATOM     33  N   UNL     1       3.294  -6.644   7.766  0.00  0.00    -0.363 N 
ATOM     34  H   UNL     1       6.076  -6.391   6.025  0.00  0.00    +0.162 HD
ATOM     35  H   UNL     1       2.458  -6.368   8.171  0.00  0.00    +0.162 HD
ENDBRANCH  24  25
ENDBRANCH  23  24
ENDBRANCH   5  23
TORSDOF 8
