REMARK  Name = ZINC16923508
REMARK  9 active torsions:
REMARK  status: ('A' for Active; 'I' for Inactive)
REMARK    1  A    between atoms: C_1  and  C_2
REMARK    2  A    between atoms: C_2  and  O_4
REMARK    3  A    between atoms: O_4  and  C_5
REMARK    4  A    between atoms: C_11  and  C_38
REMARK    5  A    between atoms: N_23  and  N_24
REMARK    6  A    between atoms: N_24  and  C_25
REMARK    7  A    between atoms: C_25  and  N_27
REMARK    8  A    between atoms: N_27  and  C_28
REMARK    9  A    between atoms: C_36  and  C_37
REMARK                            x       y       z     vdW  Elec       q    Type
REMARK                         _______ _______ _______ _____ _____    ______ ____
ROOT
ATOM      1  C   UNL     1       1.980  15.020  -2.472  0.00  0.00    +0.183 C 
ATOM      2  C   UNL     1       3.344  14.597  -3.069  0.00  0.00    +0.045 C 
ATOM      3  C   UNL     1       3.654  13.183  -2.506  0.00  0.00    +0.008 C 
ATOM      4  C   UNL     1       2.299  12.723  -1.948  0.00  0.00    +0.002 C 
ATOM      5  C   UNL     1       1.748  14.019  -1.319  0.00  0.00    +0.008 C 
ATOM      6  C   UNL     1       0.297  13.854  -0.933  0.00  0.00    +0.011 C 
ATOM      7  C   UNL     1       0.016  12.411  -0.492  0.00  0.00    +0.005 C 
ATOM      8  C   UNL     1       1.263  11.769   0.106  0.00  0.00    +0.002 C 
ATOM      9  C   UNL     1       2.316  11.573  -0.987  0.00  0.00    -0.003 C 
ATOM     10  C   UNL     1       3.680  11.272  -0.389  0.00  0.00    +0.008 C 
ATOM     11  C   UNL     1       3.533  10.284   0.772  0.00  0.00    +0.031 C 
ATOM     12  C   UNL     1       2.204   9.574   0.664  0.00  0.00    -0.062 C 
ATOM     13  C   UNL     1       2.163   8.256   0.533  0.00  0.00    +0.024 C 
ATOM     14  C   UNL     1       0.890   7.538   0.430  0.00  0.00    +0.059 C 
ATOM     15  N   UNL     1       0.881   6.240   0.346  0.00  0.00    -0.186 NA
ATOM     16  C   UNL     1      -0.409   8.302   0.421  0.00  0.00    +0.058 C 
ATOM     17  C   UNL     1      -0.164   9.720  -0.096  0.00  0.00    +0.017 C 
ATOM     18  C   UNL     1       0.938  10.396   0.713  0.00  0.00    -0.007 C 
ATOM     19  C   UNL     1       0.498  10.579   2.167  0.00  0.00    +0.016 C 
ATOM     20  C   UNL     1       2.581  14.498  -0.130  0.00  0.00    +0.015 C 
ENDROOT
BRANCH  15  21
ATOM     21  N   UNL     1       2.088   5.529   0.353  0.00  0.00    -0.218 N 
ATOM     22  H   UNL     1       2.931   6.005   0.421  0.00  0.00    +0.176 HD
BRANCH  21  23
ATOM     23  C   UNL     1       2.079   4.185   0.266  0.00  0.00    +0.154 C 
ATOM     24  S   UNL     1       3.554   3.316   0.275  0.00  0.00    -0.017 S 
BRANCH  23  25
ATOM     25  N   UNL     1       0.908   3.523   0.172  0.00  0.00    -0.296 N 
ATOM     26  H   UNL     1       0.078   4.017   0.083  0.00  0.00    +0.154 HD
BRANCH  25  27
ATOM     27  C   UNL     1       0.890   2.125   0.202  0.00  0.00    +0.033 A 
ATOM     28  C   UNL     1       1.711   1.438   1.087  0.00  0.00    +0.023 A 
ATOM     29  C   UNL     1       1.691   0.057   1.114  0.00  0.00    +0.002 A 
ATOM     30  C   UNL     1       0.855  -0.641   0.262  0.00  0.00    +0.000 A 
ATOM     31  C   UNL     1       0.037   0.041  -0.621  0.00  0.00    +0.002 A 
ATOM     32  C   UNL     1       0.052   1.421  -0.653  0.00  0.00    +0.023 A 
ENDBRANCH  25  27
ENDBRANCH  23  25
ENDBRANCH  21  23
ENDBRANCH  15  21
BRANCH   1  33
ATOM     33  O   UNL     1       2.050  16.367  -1.943  0.00  0.00    -0.461 OA
BRANCH  33  35
ATOM     34  C   UNL     1       1.680  18.787  -2.263  0.00  0.00    +0.136 C 
ATOM     35  C   UNL     1       1.636  17.360  -2.745  0.00  0.00    +0.304 C 
ATOM     36  O   UNL     1       1.227  17.110  -3.855  0.00  0.00    -0.251 OA
ENDBRANCH  33  35
ENDBRANCH   1  33
TORSDOF 6
