REMARK  Name = ZINC27594963
REMARK  12 active torsions:
REMARK  status: ('A' for Active; 'I' for Inactive)
REMARK    1  A    between atoms: C_1  and  N_2
REMARK    2  A    between atoms: N_2  and  C_3
REMARK    3  A    between atoms: N_2  and  C_4
REMARK    4  A    between atoms: C_4  and  C_6
REMARK    5  A    between atoms: C_4  and  C_27
REMARK    6  A    between atoms: C_6  and  N_7
REMARK    7  A    between atoms: C_8  and  C_10
REMARK    8  A    between atoms: C_10  and  S_11
REMARK    9  A    between atoms: S_11  and  C_12
REMARK   10  A    between atoms: C_12  and  C_13
REMARK   11  A    between atoms: C_31  and  O_33
REMARK   12  A    between atoms: O_33  and  C_34
REMARK                            x       y       z     vdW  Elec       q    Type
REMARK                         _______ _______ _______ _____ _____    ______ ____
ROOT
ATOM      1  N   UNL     1       0.205  -2.151   0.753  0.00  0.00    -0.316 N 
ATOM      2  C   UNL     1       0.641  -3.421   0.865  0.00  0.00    +0.223 C 
ATOM      3  O   UNL     1       0.254  -4.266   0.085  0.00  0.00    -0.275 OA
ATOM      4  H   UNL     1       0.515  -1.476   1.377  0.00  0.00    +0.149 HD
ENDROOT
BRANCH   1   5
ATOM      5  C   UNL     1      -0.737  -1.790  -0.309  0.00  0.00    +0.093 C 
BRANCH   5   6
ATOM      6  C   UNL     1      -1.168  -0.333  -0.135  0.00  0.00    -0.021 C 
BRANCH   6   7
ATOM      7  C   UNL     1      -1.945  -0.188   1.148  0.00  0.00    -0.056 A 
ATOM      8  C   UNL     1      -3.277  -0.557   1.194  0.00  0.00    +0.002 A 
ATOM      9  C   UNL     1      -3.992  -0.425   2.370  0.00  0.00    +0.004 A 
ATOM     10  C   UNL     1      -3.378   0.076   3.502  0.00  0.00    +0.045 A 
ATOM     11  C   UNL     1      -2.042   0.447   3.457  0.00  0.00    +0.120 A 
ATOM     12  C   UNL     1      -1.324   0.308   2.278  0.00  0.00    +0.047 A 
BRANCH  11  13
ATOM     13  O   UNL     1      -1.435   0.940   4.569  0.00  0.00    -0.495 OA
ATOM     14  C   UNL     1      -2.234   1.049   5.749  0.00  0.00    +0.277 C 
ENDBRANCH  11  13
ENDBRANCH   6   7
BRANCH   6  16
ATOM     15  C   UNL     1      -2.469   1.450  -1.076  0.00  0.00    -0.096 C 
ATOM     16  N   UNL     1      -2.014   0.066  -1.268  0.00  0.00    +0.382 N 
ATOM     17  C   UNL     1      -1.241  -0.027  -2.514  0.00  0.00    -0.096 C 
ATOM     18  H   UNL     1      -2.814  -0.547  -1.322  0.00  0.00    -0.082 HD
ENDBRANCH   6  16
ENDBRANCH   5   6
ENDBRANCH   1   5
BRANCH   2  19
ATOM     19  C   UNL     1       1.610  -3.792   1.958  0.00  0.00    +0.165 C 
BRANCH  19  20
ATOM     20  S   UNL     1       2.003  -5.560   1.843  0.00  0.00    -0.144 S 
BRANCH  20  21
ATOM     21  C   UNL     1       3.164  -5.841   3.208  0.00  0.00    +0.143 C 
BRANCH  21  22
ATOM     22  C   UNL     1       3.576  -7.290   3.227  0.00  0.00    +0.121 A 
ATOM     23  N   UNL     1       4.442  -7.724   4.179  0.00  0.00    -0.310 N 
ATOM     24  H   UNL     1       4.784  -7.095   4.833  0.00  0.00    +0.170 HD
ATOM     25  C   UNL     1       4.837  -9.010   4.232  0.00  0.00    +0.260 A 
ATOM     26  O   UNL     1       5.615  -9.386   5.091  0.00  0.00    -0.267 OA
ATOM     27  C   UNL     1       4.325  -9.929   3.259  0.00  0.00    +0.075 A 
ATOM     28  C   UNL     1       4.614 -11.365   3.127  0.00  0.00    -0.023 A 
ATOM     29  C   UNL     1       4.005 -12.018   2.123  0.00  0.00    -0.004 A 
ATOM     30  S   UNL     1       3.021 -10.784   1.304  0.00  0.00    -0.073 S 
ATOM     31  C   UNL     1       3.437  -9.391   2.318  0.00  0.00    +0.116 A 
ATOM     32  N   UNL     1       3.088  -8.107   2.332  0.00  0.00    -0.226 NA
ATOM     33  C   UNL     1       4.379 -13.475   2.082  0.00  0.00    +0.043 C 
ATOM     34  C   UNL     1       5.655 -13.572   2.948  0.00  0.00    +0.010 C 
ATOM     35  C   UNL     1       5.484 -12.366   3.893  0.00  0.00    +0.037 C 
ENDBRANCH  21  22
ENDBRANCH  20  21
ENDBRANCH  19  20
ENDBRANCH   2  19
TORSDOF 9
