REMARK  Name = ZINC39664051
REMARK  8 active torsions:
REMARK  status: ('A' for Active; 'I' for Inactive)
REMARK    1  A    between atoms: C_1  and  O_2
REMARK    2  A    between atoms: O_2  and  C_3
REMARK    3  A    between atoms: C_6  and  C_9
REMARK    4  A    between atoms: C_9  and  C_11
REMARK    5  A    between atoms: C_9  and  N_35
REMARK    6  A    between atoms: C_11  and  N_12
REMARK    7  A    between atoms: C_13  and  C_15
REMARK    8  A    between atoms: C_26  and  C_28
REMARK                            x       y       z     vdW  Elec       q    Type
REMARK                         _______ _______ _______ _____ _____    ______ ____
ROOT
ATOM      1  C   UNL     1       1.909  -4.454  -8.693  0.00  0.00    +0.100 C 
ATOM      2  C   UNL     1       3.083  -3.782  -9.441  0.00  0.00    +0.121 C 
ATOM      3  N   UNL     1       3.082  -4.412 -10.782  0.00  0.00    -0.296 N 
ATOM      4  C   UNL     1       1.646  -4.545 -11.126  0.00  0.00    +0.115 C 
ATOM      5  C   UNL     1       0.968  -4.953  -9.803  0.00  0.00    -0.004 C 
ATOM      6  C   UNL     1      -0.396  -4.281  -9.680  0.00  0.00    -0.010 C 
ATOM      7  C   UNL     1      -1.332  -4.836 -10.757  0.00  0.00    -0.082 C 
ATOM      8  N   UNL     1      -1.464  -6.289 -10.593  0.00  0.00    +0.379 N 
ATOM      9  C   UNL     1      -0.163  -6.936 -10.804  0.00  0.00    -0.082 C 
ATOM     10  C   UNL     1       0.822  -6.470  -9.729  0.00  0.00    -0.010 C 
ATOM     11  C   UNL     1       4.146  -4.780 -11.522  0.00  0.00    +0.247 C 
ATOM     12  O   UNL     1       5.265  -4.721 -11.050  0.00  0.00    -0.270 OA
ATOM     13  H   UNL     1      -1.791  -6.492  -9.661  0.00  0.00    -0.086 HD
ATOM     14  H   UNL     1      -2.128  -6.643 -11.265  0.00  0.00    -0.086 HD
ENDROOT
BRANCH  11  15
ATOM     15  C   UNL     1       3.953  -5.257 -12.908  0.00  0.00    +0.037 A 
ATOM     16  C   UNL     1       2.784  -4.940 -13.602  0.00  0.00    +0.014 A 
ATOM     17  C   UNL     1       2.610  -5.388 -14.894  0.00  0.00    +0.021 A 
ATOM     18  C   UNL     1       3.592  -6.151 -15.504  0.00  0.00    +0.041 A 
ATOM     19  C   UNL     1       4.754  -6.468 -14.821  0.00  0.00    +0.021 A 
ATOM     20  C   UNL     1       4.942  -6.022 -13.530  0.00  0.00    +0.014 A 
ATOM     21 CL   UNL     1       3.365  -6.711 -17.131  0.00  0.00    -0.084 Cl
ENDBRANCH  11  15
BRANCH   1  23
ATOM     22  N   UNL     1       0.476  -3.873  -6.763  0.00  0.00    -0.316 N 
ATOM     23  C   UNL     1       1.202  -3.452  -7.817  0.00  0.00    +0.218 C 
ATOM     24  O   UNL     1       1.288  -2.267  -8.060  0.00  0.00    -0.275 OA
ATOM     25  H   UNL     1       0.408  -4.821  -6.568  0.00  0.00    +0.149 HD
BRANCH  22  26
ATOM     26  C   UNL     1      -0.211  -2.899  -5.911  0.00  0.00    +0.093 C 
BRANCH  26  27
ATOM     27  C   UNL     1      -0.848  -3.621  -4.722  0.00  0.00    -0.020 C 
BRANCH  27  31
ATOM     28  C   UNL     1       2.222  -5.204  -2.206  0.00  0.00    +0.120 A 
ATOM     29  C   UNL     1       1.565  -6.031  -3.105  0.00  0.00    +0.046 A 
ATOM     30  C   UNL     1       0.573  -5.517  -3.917  0.00  0.00    +0.005 A 
ATOM     31  C   UNL     1       0.234  -4.179  -3.834  0.00  0.00    -0.059 A 
ATOM     32  C   UNL     1       0.888  -3.352  -2.939  0.00  0.00    +0.005 A 
ATOM     33  C   UNL     1       1.876  -3.863  -2.120  0.00  0.00    +0.046 A 
BRANCH  28  35
ATOM     34  C   UNL     1       3.501  -7.096  -1.547  0.00  0.00    +0.277 C 
ATOM     35  O   UNL     1       3.198  -5.707  -1.405  0.00  0.00    -0.495 OA
ENDBRANCH  28  35
ENDBRANCH  27  31
BRANCH  27  36
ATOM     36  N   UNL     1      -1.669  -2.674  -3.956  0.00  0.00    +0.385 N 
ATOM     37  C   UNL     1      -2.826  -2.223  -4.771  0.00  0.00    -0.078 C 
ATOM     38  C   UNL     1      -3.840  -1.733  -3.707  0.00  0.00    -0.020 C 
ATOM     39  C   UNL     1      -3.652  -2.748  -2.557  0.00  0.00    -0.020 C 
ATOM     40  C   UNL     1      -2.247  -3.342  -2.770  0.00  0.00    -0.078 C 
ATOM     41  H   UNL     1      -1.113  -1.881  -3.672  0.00  0.00    -0.081 HD
ENDBRANCH  27  36
ENDBRANCH  26  27
ENDBRANCH  22  26
ENDBRANCH   1  23
TORSDOF 7
