REMARK  Name = ZINC39143318
REMARK  5 active torsions:
REMARK  status: ('A' for Active; 'I' for Inactive)
REMARK    1  A    between atoms: C_1  and  C_2
REMARK    2  A    between atoms: C_4  and  C_20
REMARK    3  A    between atoms: N_12  and  C_13
REMARK    4  A    between atoms: C_13  and  C_14
REMARK    5  A    between atoms: C_21  and  C_22
REMARK                            x       y       z     vdW  Elec       q    Type
REMARK                         _______ _______ _______ _____ _____    ______ ____
ROOT
ATOM      1  C   UNL     1       0.203   1.739  -0.034  0.00  0.00    +0.029 C 
ATOM      2  C   UNL     1       0.138   0.214  -0.140  0.00  0.00    +0.082 C 
ATOM      3  C   UNL     1      -1.324  -0.261  -0.114  0.00  0.00    +0.064 C 
ATOM      4  C   UNL     1      -1.416  -1.140   1.113  0.00  0.00    -0.018 A 
ATOM      5  C   UNL     1      -2.480  -1.842   1.647  0.00  0.00    +0.006 A 
ATOM      6  C   UNL     1      -2.311  -2.588   2.798  0.00  0.00    +0.000 A 
ATOM      7  C   UNL     1      -1.074  -2.631   3.416  0.00  0.00    +0.002 A 
ATOM      8  C   UNL     1      -0.010  -1.932   2.887  0.00  0.00    +0.023 A 
ATOM      9  C   UNL     1      -0.172  -1.176   1.724  0.00  0.00    +0.034 A 
ATOM     10  N   UNL     1       0.765  -0.405   1.031  0.00  0.00    -0.322 N 
ENDROOT
BRANCH   3  11
ATOM     11  C   UNL     1      -2.257   0.917   0.009  0.00  0.00    -0.013 C 
ATOM     12  C   UNL     1      -3.161   1.151  -0.937  0.00  0.00    +0.043 C 
BRANCH  12  13
ATOM     13  C   UNL     1      -4.071   2.300  -0.817  0.00  0.00    +0.134 A 
ATOM     14  N   UNL     1      -4.994   2.509  -1.807  0.00  0.00    -0.307 N 
ATOM     15  H   UNL     1      -5.034   1.903  -2.564  0.00  0.00    +0.170 HD
ATOM     16  C   UNL     1      -5.851   3.554  -1.735  0.00  0.00    +0.259 A 
ATOM     17  O   UNL     1      -6.678   3.754  -2.606  0.00  0.00    -0.267 OA
ATOM     18  C   UNL     1      -5.746   4.438  -0.566  0.00  0.00    +0.065 A 
ATOM     19  C   UNL     1      -6.582   5.540  -0.400  0.00  0.00    +0.015 A 
ATOM     20  C   UNL     1      -6.441   6.336   0.717  0.00  0.00    +0.001 A 
ATOM     21  C   UNL     1      -5.474   6.047   1.672  0.00  0.00    +0.002 A 
ATOM     22  C   UNL     1      -4.644   4.972   1.529  0.00  0.00    +0.028 A 
ATOM     23  C   UNL     1      -4.763   4.146   0.408  0.00  0.00    +0.078 A 
ATOM     24  N   UNL     1      -3.965   3.073   0.235  0.00  0.00    -0.230 NA
ENDBRANCH  12  13
ENDBRANCH   3  11
BRANCH  10  25
ATOM     25  C   UNL     1       2.168  -0.237   1.419  0.00  0.00    +0.140 C 
BRANCH  25  26
ATOM     26  C   UNL     1       3.018  -1.229   0.667  0.00  0.00    -0.030 A 
ATOM     27  C   UNL     1       3.284  -2.469   1.219  0.00  0.00    +0.005 A 
ATOM     28  C   UNL     1       4.064  -3.379   0.530  0.00  0.00    +0.000 A 
ATOM     29  C   UNL     1       4.578  -3.049  -0.711  0.00  0.00    +0.000 A 
ATOM     30  C   UNL     1       4.311  -1.810  -1.262  0.00  0.00    +0.000 A 
ATOM     31  C   UNL     1       3.528  -0.902  -0.575  0.00  0.00    +0.005 A 
ENDBRANCH  25  26
ENDBRANCH  10  25
TORSDOF 4
