REMARK  Name = ZINC12555264
REMARK  6 active torsions:
REMARK  status: ('A' for Active; 'I' for Inactive)
REMARK    1  A    between atoms: C_1  and  C_2
REMARK    2  A    between atoms: C_4  and  C_29
REMARK    3  A    between atoms: C_9  and  C_13
REMARK    4  A    between atoms: C_9  and  C_14
REMARK    5  A    between atoms: N_17  and  C_19
REMARK    6  A    between atoms: C_24  and  C_25
REMARK                            x       y       z     vdW  Elec       q    Type
REMARK                         _______ _______ _______ _____ _____    ______ ____
ROOT
ATOM      1  C   UNL     1      -0.018   1.503   0.010  0.00  0.00    +0.062 C 
ATOM      2  C   UNL     1       0.002  -0.004   0.002  0.00  0.00    +0.027 C 
ATOM      3  C   UNL     1      -1.080  -0.802   0.003  0.00  0.00    +0.022 C 
ATOM      4  C   UNL     1      -2.571  -0.540   0.012  0.00  0.00    +0.090 C 
ATOM      5  C   UNL     1      -3.455  -1.773   0.011  0.00  0.00    +0.026 C 
ATOM      6  C   UNL     1      -2.847  -3.013  -0.002  0.00  0.00    +0.025 C 
ATOM      7  C   UNL     1      -3.696  -4.264  -0.009  0.00  0.00    +0.060 C 
ATOM      8  C   UNL     1      -5.012  -3.994   0.722  0.00  0.00    -0.023 C 
ATOM      9  C   UNL     1      -5.737  -2.836   0.029  0.00  0.00    +0.086 C 
ATOM     10  C   UNL     1      -4.835  -1.629   0.023  0.00  0.00    +0.162 C 
ATOM     11  O   UNL     1      -5.322  -0.514   0.029  0.00  0.00    -0.292 OA
ATOM     12  C   UNL     1      -4.723  -3.619   2.177  0.00  0.00    +0.011 C 
ATOM     13  C   UNL     1      -5.889  -5.247   0.678  0.00  0.00    +0.011 C 
ATOM     14  N   UNL     1      -1.528  -3.141  -0.009  0.00  0.00    -0.345 N 
ATOM     15  C   UNL     1      -0.654  -2.149  -0.007  0.00  0.00    +0.126 C 
ATOM     16  N   UNL     1       0.724  -2.128  -0.014  0.00  0.00    -0.205 N 
ATOM     17  N   UNL     1       1.123  -0.784  -0.013  0.00  0.00    -0.262 N 
ATOM     18  H   UNL     1       2.038  -0.464  -0.021  0.00  0.00    +0.170 HD
ATOM     19  H   UNL     1      -1.172  -4.043  -0.016  0.00  0.00    +0.167 HD
ENDROOT
BRANCH   4  20
ATOM     20  C   UNL     1      -2.900   0.270   1.239  0.00  0.00    -0.016 A 
ATOM     21  C   UNL     1      -2.618  -0.233   2.496  0.00  0.00    +0.006 A 
ATOM     22  C   UNL     1      -2.919   0.510   3.622  0.00  0.00    +0.002 A 
ATOM     23  C   UNL     1      -3.503   1.757   3.493  0.00  0.00    +0.021 A 
ATOM     24  C   UNL     1      -3.786   2.261   2.236  0.00  0.00    +0.060 A 
ATOM     25  C   UNL     1      -3.478   1.520   1.108  0.00  0.00    +0.063 A 
ATOM     26 CL   UNL     1      -3.826   2.155  -0.470  0.00  0.00    -0.082 Cl
ATOM     27 CL   UNL     1      -4.520   3.826   2.074  0.00  0.00    -0.082 Cl
ENDBRANCH   4  20
BRANCH  16  28
ATOM     28  C   UNL     1       1.568  -3.242  -0.023  0.00  0.00    +0.066 A 
ATOM     29  C   UNL     1       1.438  -4.205  -1.016  0.00  0.00    +0.026 A 
ATOM     30  C   UNL     1       2.274  -5.304  -1.023  0.00  0.00    +0.002 A 
ATOM     31  C   UNL     1       3.240  -5.446  -0.043  0.00  0.00    +0.001 A 
ATOM     32  C   UNL     1       3.371  -4.490   0.946  0.00  0.00    +0.014 A 
ATOM     33  C   UNL     1       2.542  -3.385   0.956  0.00  0.00    +0.078 A 
BRANCH  33  34
ATOM     34  C   UNL     1       2.690  -2.340   2.031  0.00  0.00    +0.419 C 
ATOM     35  F   UNL     1       3.730  -2.703   2.894  0.00  0.00    -0.166 F 
ATOM     36  F   UNL     1       2.982  -1.104   1.444  0.00  0.00    -0.166 F 
ATOM     37  F   UNL     1       1.497  -2.242   2.755  0.00  0.00    -0.166 F 
ENDBRANCH  33  34
ENDBRANCH  16  28
TORSDOF 3
