REMARK  Name = ZINC24850070
REMARK  8 active torsions:
REMARK  status: ('A' for Active; 'I' for Inactive)
REMARK    1  A    between atoms: C_1  and  C_2
REMARK    2  A    between atoms: C_2  and  O_3
REMARK    3  A    between atoms: O_3  and  C_4
REMARK    4  A    between atoms: C_11  and  C_18
REMARK    5  A    between atoms: C_13  and  O_14
REMARK    6  A    between atoms: C_18  and  N_19
REMARK    7  A    between atoms: C_22  and  C_26
REMARK    8  A    between atoms: C_22  and  C_27
REMARK                            x       y       z     vdW  Elec       q    Type
REMARK                         _______ _______ _______ _____ _____    ______ ____
ROOT
ATOM      1  C   UNL     1      -2.563   3.573  -4.923  0.00  0.00    +0.405 C 
ATOM      2  O   UNL     1      -2.627   4.390  -4.026  0.00  0.00    -0.226 OA
ATOM      3  N   UNL     1      -1.855   2.439  -4.752  0.00  0.00    -0.251 N 
ATOM      4  C   UNL     1      -1.117   2.246  -3.584  0.00  0.00    +0.040 A 
ATOM      5  C   UNL     1       0.101   1.568  -3.638  0.00  0.00    +0.024 A 
ATOM      6  C   UNL     1       0.834   1.373  -2.504  0.00  0.00    +0.014 A 
ATOM      7  C   UNL     1       0.359   1.853  -1.277  0.00  0.00    +0.022 A 
ATOM      8  C   UNL     1       1.124   1.656  -0.044  0.00  0.00    -0.012 A 
ATOM      9  C   UNL     1       0.611   2.146   1.114  0.00  0.00    +0.093 A 
ATOM     10  C   UNL     1      -0.629   2.817   1.104  0.00  0.00    +0.285 A 
ATOM     11  O   UNL     1      -1.322   2.999  -0.030  0.00  0.00    -0.425 OA
ATOM     12  C   UNL     1      -0.869   2.537  -1.216  0.00  0.00    +0.141 A 
ATOM     13  C   UNL     1      -1.601   2.728  -2.377  0.00  0.00    +0.070 A 
ATOM     14  H   UNL     1      -1.858   1.666  -5.535  0.00  0.00    +0.158 HD
ENDROOT
BRANCH  10  15
ATOM     15  O   UNL     1      -1.080   3.247   2.151  0.00  0.00    -0.480 OA
ATOM     16  H   UNL     1      -2.046   3.772   2.159  0.00  0.00    +0.295 HD
ENDBRANCH  10  15
BRANCH   1  17
ATOM     17  O   UNL     1      -3.200   3.800  -6.087  0.00  0.00    -0.450 OA
BRANCH  17  19
ATOM     18  C   UNL     1      -4.594   5.123  -7.582  0.00  0.00    +0.048 C 
ATOM     19  C   UNL     1      -3.944   5.042  -6.200  0.00  0.00    +0.230 C 
ENDBRANCH  17  19
ENDBRANCH   1  17
BRANCH   8  20
ATOM     20  C   UNL     1       2.445   0.930  -0.060  0.00  0.00    +0.154 C 
BRANCH  20  21
ATOM     21  N   UNL     1       3.046   0.981   1.275  0.00  0.00    -0.220 N 
ATOM     22  C   UNL     1       2.916   0.011   2.201  0.00  0.00    +0.251 C 
ATOM     23  O   UNL     1       2.301  -1.028   2.092  0.00  0.00    -0.272 OA
ATOM     24  C   UNL     1       3.697   0.490   3.409  0.00  0.00    +0.135 C 
ATOM     25  N   UNL     1       4.227   1.797   2.982  0.00  0.00    -0.281 N 
ATOM     26  C   UNL     1       3.798   1.993   1.722  0.00  0.00    +0.310 C 
ATOM     27  O   UNL     1       4.061   2.981   1.065  0.00  0.00    -0.252 OA
ATOM     28  C   UNL     1       2.774   0.653   4.618  0.00  0.00    +0.047 C 
ATOM     29  H   UNL     1       4.844   2.392   3.671  0.00  0.00    +0.152 HD
BRANCH  24  30
ATOM     30  C   UNL     1       4.822  -0.461   3.724  0.00  0.00    -0.015 A 
ATOM     31  C   UNL     1       4.693  -1.806   3.432  0.00  0.00    +0.006 A 
ATOM     32  C   UNL     1       5.728  -2.675   3.716  0.00  0.00    +0.004 A 
ATOM     33  C   UNL     1       6.892  -2.206   4.303  0.00  0.00    -0.044 A 
ATOM     34  C   UNL     1       7.019  -0.862   4.599  0.00  0.00    -0.044 A 
ATOM     35  C   UNL     1       5.982   0.009   4.309  0.00  0.00    +0.010 A 
ATOM     36  C   UNL     1       8.370  -0.602   5.230  0.00  0.00    +0.036 C 
ATOM     37  C   UNL     1       9.220  -1.844   4.888  0.00  0.00    +0.009 C 
ATOM     38  C   UNL     1       8.149  -2.941   4.713  0.00  0.00    +0.036 C 
ENDBRANCH  24  30
ENDBRANCH  20  21
ENDBRANCH   8  20
TORSDOF 6
