REMARK  Name = ZINC54302950
REMARK  4 active torsions:
REMARK  status: ('A' for Active; 'I' for Inactive)
REMARK    1  A    between atoms: C_3  and  N_17
REMARK    2  A    between atoms: C_6  and  N_7
REMARK    3  A    between atoms: C_8  and  C_9
REMARK    4  A    between atoms: C_14  and  O_15
REMARK                            x       y       z     vdW  Elec       q    Type
REMARK                         _______ _______ _______ _____ _____    ______ ____
ROOT
ATOM      1  C   UNL     1      -0.017   1.393   0.026  0.00  0.00    +0.029 A 
ATOM      2  C   UNL     1       1.168   2.096   0.018  0.00  0.00    +0.025 A 
ATOM      3  C   UNL     1       2.381   1.418  -0.013  0.00  0.00    +0.038 A 
ATOM      4  C   UNL     1       2.404   0.028  -0.037  0.00  0.00    +0.025 A 
ATOM      5  C   UNL     1       1.223  -0.682  -0.030  0.00  0.00    +0.029 A 
ATOM      6  C   UNL     1       0.002  -0.004   0.002  0.00  0.00    +0.064 A 
ENDROOT
BRANCH   3   7
ATOM      7  N   UNL     1       3.582   2.135  -0.021  0.00  0.00    -0.254 N 
ATOM      8  C   UNL     1       4.927   1.547   0.061  0.00  0.00    +0.134 C 
ATOM      9  C   UNL     1       5.867   2.766   0.012  0.00  0.00    +0.125 C 
ATOM     10  N   UNL     1       4.952   3.913  -0.093  0.00  0.00    -0.297 N 
ATOM     11  C   UNL     1       3.689   3.467  -0.111  0.00  0.00    +0.307 C 
ATOM     12  O   UNL     1       2.727   4.206  -0.196  0.00  0.00    -0.252 OA
ATOM     13  H   UNL     1       5.221   4.843  -0.145  0.00  0.00    +0.150 HD
ENDBRANCH   3   7
BRANCH   6  14
ATOM     14  N   UNL     1      -1.172  -0.706   0.009  0.00  0.00    -0.255 NA
ATOM     15  C   UNL     1      -1.336  -1.712  -0.803  0.00  0.00    +0.123 C 
BRANCH  15  16
ATOM     16  C   UNL     1      -2.598  -2.466  -0.795  0.00  0.00    +0.036 A 
ATOM     17  C   UNL     1      -2.775  -3.550  -1.661  0.00  0.00    +0.028 A 
ATOM     18  C   UNL     1      -3.961  -4.253  -1.648  0.00  0.00    +0.019 A 
ATOM     19  C   UNL     1      -4.979  -3.890  -0.780  0.00  0.00    +0.019 A 
ATOM     20  C   UNL     1      -4.817  -2.821   0.080  0.00  0.00    +0.047 A 
ATOM     21  C   UNL     1      -3.629  -2.107   0.085  0.00  0.00    +0.125 A 
ATOM     22 BR   UNL     1      -4.201  -5.718  -2.819  0.00  0.00    -0.050 Br
BRANCH  21  23
ATOM     23  O   UNL     1      -3.467  -1.061   0.934  0.00  0.00    -0.506 OA
ATOM     24  H   UNL     1      -3.750  -0.211   0.570  0.00  0.00    +0.292 HD
ENDBRANCH  21  23
ENDBRANCH  15  16
ENDBRANCH   6  14
TORSDOF 4
