REMARK  Name = ZINC33959483
REMARK  14 active torsions:
REMARK  status: ('A' for Active; 'I' for Inactive)
REMARK    1  A    between atoms: C_1  and  C_2
REMARK    2  A    between atoms: C_2  and  N_3
REMARK    3  A    between atoms: N_3  and  C_4
REMARK    4  A    between atoms: N_3  and  C_6
REMARK    5  A    between atoms: C_4  and  C_5
REMARK    6  A    between atoms: C_6  and  C_8
REMARK    7  A    between atoms: C_6  and  C_21
REMARK    8  A    between atoms: C_8  and  C_9
REMARK    9  A    between atoms: C_9  and  C_10
REMARK   10  A    between atoms: C_10  and  C_11
REMARK   11  A    between atoms: C_11  and  N_12
REMARK   12  A    between atoms: C_13  and  C_15
REMARK   13  A    between atoms: N_23  and  N_24
REMARK   14  A    between atoms: C_25  and  C_26
REMARK                            x       y       z     vdW  Elec       q    Type
REMARK                         _______ _______ _______ _____ _____    ______ ____
ROOT
ATOM      1  C   UNL     1      -0.038  -0.355  -2.510  0.00  0.00    +0.021 C 
ENDROOT
BRANCH   1   2
ATOM      2  C   UNL     1       0.646  -1.022  -3.675  0.00  0.00    +0.219 C 
ATOM      3  O   UNL     1       1.811  -1.349  -3.588  0.00  0.00    -0.276 OA
ATOM      4  N   UNL     1      -0.037  -1.256  -4.813  0.00  0.00    -0.208 N 
ATOM      5  H   UNL     1      -0.969  -0.995  -4.882  0.00  0.00    +0.177 HD
BRANCH   4   6
ATOM      6  N   UNL     1       0.599  -1.876  -5.896  0.00  0.00    -0.188 NA
ATOM      7  C   UNL     1      -0.059  -2.101  -6.992  0.00  0.00    +0.138 C 
BRANCH   7   8
ATOM      8  C   UNL     1       0.610  -2.755  -8.133  0.00  0.00    -0.005 A 
ATOM      9  C   UNL     1       1.950  -3.137  -8.034  0.00  0.00    +0.010 A 
ATOM     10  C   UNL     1       2.570  -3.748  -9.105  0.00  0.00    +0.016 A 
ATOM     11  C   UNL     1       1.867  -3.982 -10.274  0.00  0.00    +0.018 A 
ATOM     12  C   UNL     1       0.538  -3.605 -10.378  0.00  0.00    +0.016 A 
ATOM     13  C   UNL     1      -0.095  -2.998  -9.314  0.00  0.00    +0.010 A 
ATOM     14 BR   UNL     1       2.725  -4.819 -11.737  0.00  0.00    -0.050 Br
ENDBRANCH   7   8
ENDBRANCH   4   6
ENDBRANCH   1   2
BRANCH   1  15
ATOM     15  N   UNL     1       0.885  -0.296  -1.368  0.00  0.00    +0.387 N 
ATOM     16  H   UNL     1       1.521  -1.079  -1.409  0.00  0.00    -0.081 HD
BRANCH  15  18
ATOM     17  C   UNL     1       2.580   0.939  -2.633  0.00  0.00    -0.017 C 
ATOM     18  C   UNL     1       1.648   0.958  -1.419  0.00  0.00    -0.081 C 
ENDBRANCH  15  18
BRANCH  15  19
ATOM     19  C   UNL     1       0.119  -0.353  -0.116  0.00  0.00    -0.081 C 
ATOM     20  C   UNL     1      -0.547  -1.724   0.013  0.00  0.00    -0.017 C 
ENDBRANCH  15  19
ENDBRANCH   1  15
BRANCH   1  21
ATOM     21  C   UNL     1      -0.451   1.065  -2.905  0.00  0.00    -0.006 C 
BRANCH  21  22
ATOM     22  C   UNL     1      -1.278   1.688  -1.779  0.00  0.00    +0.000 C 
BRANCH  22  23
ATOM     23  C   UNL     1      -1.743   3.083  -2.200  0.00  0.00    +0.019 C 
BRANCH  23  24
ATOM     24  C   UNL     1      -2.570   3.706  -1.073  0.00  0.00    +0.104 C 
BRANCH  24  25
ATOM     25  N   UNL     1      -3.016   5.042  -1.476  0.00  0.00    -0.311 N 
ATOM     26  C   UNL     1      -3.765   5.785  -0.637  0.00  0.00    +0.244 C 
ATOM     27  O   UNL     1      -4.070   5.346   0.455  0.00  0.00    -0.270 OA
ATOM     28  H   UNL     1      -2.772   5.393  -2.347  0.00  0.00    +0.149 HD
BRANCH  26  29
ATOM     29  C   UNL     1      -4.214   7.133  -1.044  0.00  0.00    +0.037 A 
ATOM     30  C   UNL     1      -3.870   7.638  -2.299  0.00  0.00    +0.013 A 
ATOM     31  C   UNL     1      -4.293   8.897  -2.672  0.00  0.00    +0.001 A 
ATOM     32  C   UNL     1      -5.057   9.659  -1.806  0.00  0.00    +0.000 A 
ATOM     33  C   UNL     1      -5.401   9.164  -0.560  0.00  0.00    +0.001 A 
ATOM     34  C   UNL     1      -4.990   7.904  -0.177  0.00  0.00    +0.013 A 
ENDBRANCH  26  29
ENDBRANCH  24  25
ENDBRANCH  23  24
ENDBRANCH  22  23
ENDBRANCH  21  22
ENDBRANCH   1  21
TORSDOF 12
