REMARK  Name = ZINC09641900
REMARK  3 active torsions:
REMARK  status: ('A' for Active; 'I' for Inactive)
REMARK    1  A    between atoms: N_13  and  C_17
REMARK    2  A    between atoms: C_17  and  C_18
REMARK    3  A    between atoms: C_23  and  C_26
REMARK                            x       y       z     vdW  Elec       q    Type
REMARK                         _______ _______ _______ _____ _____    ______ ____
ROOT
ATOM      1  C   UNL     1      -3.793  -4.686   0.186  0.00  0.00    +0.237 C 
ATOM      2  O   UNL     1      -4.757  -3.955   0.099  0.00  0.00    -0.274 OA
ATOM      3  N   UNL     1      -2.550  -4.165   0.197  0.00  0.00    -0.263 N 
ATOM      4  C   UNL     1      -2.373  -2.789   0.107  0.00  0.00    +0.165 A 
ATOM      5  N   UNL     1      -1.254  -2.090   0.100  0.00  0.00    -0.225 NA
ATOM      6  C   UNL     1      -1.269  -0.769   0.007  0.00  0.00    +0.080 A 
ATOM      7  C   UNL     1      -2.467  -0.116  -0.078  0.00  0.00    +0.076 A 
ATOM      8  S   UNL     1      -3.601  -1.498  -0.029  0.00  0.00    -0.060 S 
ATOM      9  H   UNL     1      -1.779  -4.749   0.266  0.00  0.00    +0.157 HD
ENDROOT
BRANCH   6  10
ATOM     10  C   UNL     1       0.002  -0.004   0.002  0.00  0.00    +0.001 A 
ATOM     11  C   UNL     1      -0.017   1.390   0.010  0.00  0.00    +0.010 A 
ATOM     12  C   UNL     1       1.170   2.087   0.002  0.00  0.00    +0.004 A 
ATOM     13  C   UNL     1       2.388   1.416  -0.014  0.00  0.00    -0.044 A 
ATOM     14  C   UNL     1       2.413   0.038  -0.018  0.00  0.00    -0.044 A 
ATOM     15  C   UNL     1       1.222  -0.672  -0.011  0.00  0.00    +0.014 A 
ATOM     16  C   UNL     1       3.697  -0.750  -0.026  0.00  0.00    +0.035 C 
ATOM     17  C   UNL     1       4.865   0.131  -0.463  0.00  0.00    +0.005 C 
ATOM     18  C   UNL     1       4.851   1.409   0.385  0.00  0.00    +0.005 C 
ATOM     19  C   UNL     1       3.644   2.248  -0.031  0.00  0.00    +0.035 C 
ENDBRANCH   6  10
BRANCH   1  20
ATOM     20  C   UNL     1      -3.985  -6.178   0.283  0.00  0.00    +0.214 C 
BRANCH  20  33
ATOM     21  C   UNL     1     -10.249  -3.715   1.801  0.00  0.00    +0.000 A 
ATOM     22  C   UNL     1      -8.960  -3.455   1.371  0.00  0.00    +0.000 A 
ATOM     23  C   UNL     1      -8.115  -4.501   1.066  0.00  0.00    +0.006 A 
ATOM     24  C   UNL     1      -8.547  -5.816   1.187  0.00  0.00    -0.012 A 
ATOM     25  C   UNL     1      -9.829  -6.075   1.618  0.00  0.00    -0.042 A 
ATOM     26  C   UNL     1     -10.679  -5.020   1.923  0.00  0.00    +0.004 A 
ATOM     27  C   UNL     1     -10.358  -7.476   1.783  0.00  0.00    +0.035 C 
ATOM     28  C   UNL     1      -9.502  -8.470   1.002  0.00  0.00    +0.008 C 
ATOM     29  C   UNL     1      -8.034  -8.256   1.388  0.00  0.00    +0.040 C 
ATOM     30  C   UNL     1      -7.580  -6.911   0.834  0.00  0.00    +0.138 C 
ATOM     31  C   UNL     1      -6.197  -6.578   1.348  0.00  0.00    +0.251 C 
ATOM     32  O   UNL     1      -5.862  -6.421   2.502  0.00  0.00    -0.272 OA
ATOM     33  N   UNL     1      -5.416  -6.489   0.252  0.00  0.00    -0.215 N 
ATOM     34  C   UNL     1      -6.109  -6.727  -0.868  0.00  0.00    +0.310 C 
ATOM     35  O   UNL     1      -5.622  -6.708  -1.982  0.00  0.00    -0.252 OA
ATOM     36  N   UNL     1      -7.407  -6.989  -0.623  0.00  0.00    -0.281 N 
ATOM     37  H   UNL     1      -8.092  -7.189  -1.279  0.00  0.00    +0.152 HD
ENDBRANCH  20  33
ENDBRANCH   1  20
TORSDOF 3
