REMARK  Name = ZINC40325329
REMARK  10 active torsions:
REMARK  status: ('A' for Active; 'I' for Inactive)
REMARK    1  A    between atoms: C_1  and  C_2
REMARK    2  A    between atoms: C_2  and  C_3
REMARK    3  A    between atoms: C_3  and  S_4
REMARK    4  A    between atoms: S_4  and  C_7
REMARK    5  A    between atoms: C_10  and  C_13
REMARK    6  A    between atoms: C_15  and  C_18
REMARK    7  A    between atoms: N_20  and  C_21
REMARK    8  A    between atoms: C_21  and  C_22
REMARK    9  A    between atoms: C_22  and  C_24
REMARK   10  A    between atoms: C_22  and  N_29
REMARK                            x       y       z     vdW  Elec       q    Type
REMARK                         _______ _______ _______ _____ _____    ______ ____
ROOT
ATOM      1  C   UNL     1       6.539  -4.520  -8.428  0.00  0.00    +0.266 C 
ATOM      2  O   UNL     1       7.501  -4.603  -7.690  0.00  0.00    -0.268 OA
ATOM      3  N   UNL     1       6.665  -4.823  -9.735  0.00  0.00    -0.311 N 
ATOM      4  H   UNL     1       5.897  -4.757 -10.325  0.00  0.00    +0.149 HD
ENDROOT
BRANCH   1   7
ATOM      5  C   UNL     1       3.639  -3.399  -6.466  0.00  0.00    +0.168 A 
ATOM      6  C   UNL     1       4.953  -3.739  -6.550  0.00  0.00    +0.086 A 
ATOM      7  C   UNL     1       5.227  -4.086  -7.891  0.00  0.00    +0.168 A 
ATOM      8  N   UNL     1       4.117  -3.956  -8.578  0.00  0.00    -0.073 NA
ATOM      9  O   UNL     1       3.099  -3.527  -7.692  0.00  0.00    -0.354 OA
BRANCH   5  13
ATOM     10  C   UNL     1       1.596  -2.169  -2.951  0.00  0.00    +0.088 A 
ATOM     11  C   UNL     1       0.912  -2.256  -4.151  0.00  0.00    +0.027 A 
ATOM     12  C   UNL     1       1.570  -2.654  -5.296  0.00  0.00    +0.013 A 
ATOM     13  C   UNL     1       2.928  -2.971  -5.242  0.00  0.00    +0.020 A 
ATOM     14  C   UNL     1       3.612  -2.881  -4.029  0.00  0.00    +0.013 A 
ATOM     15  C   UNL     1       2.943  -2.476  -2.892  0.00  0.00    +0.027 A 
BRANCH  10  16
ATOM     16  S   UNL     1       0.748  -1.659  -1.493  0.00  0.00    -0.003 S 
ATOM     17  O   UNL     1       1.483  -2.240  -0.424  0.00  0.00    -0.169 OA
ATOM     18  O   UNL     1      -0.608  -2.018  -1.718  0.00  0.00    -0.169 OA
BRANCH  16  19
ATOM     19  C   UNL     1       0.920   0.146  -1.461  0.00  0.00    +0.171 C 
BRANCH  19  21
ATOM     20  C   UNL     1       0.359   2.227  -0.197  0.00  0.00    +0.005 C 
ATOM     21  C   UNL     1       0.214   0.704  -0.224  0.00  0.00    +0.020 C 
ENDBRANCH  19  21
ENDBRANCH  16  19
ENDBRANCH  10  16
ENDBRANCH   5  13
ENDBRANCH   1   7
BRANCH   3  22
ATOM     22  C   UNL     1       7.961  -5.252 -10.266  0.00  0.00    +0.094 C 
BRANCH  22  23
ATOM     23  C   UNL     1       7.806  -5.641 -11.738  0.00  0.00    -0.013 C 
BRANCH  23  24
ATOM     24  N   UNL     1       9.083  -6.161 -12.244  0.00  0.00    +0.386 N 
ATOM     25  C   UNL     1       8.957  -6.455 -13.677  0.00  0.00    -0.078 C 
ATOM     26  C   UNL     1      10.307  -6.920 -14.227  0.00  0.00    -0.019 C 
ATOM     27  C   UNL     1      10.748  -8.184 -13.482  0.00  0.00    -0.004 C 
ATOM     28  C   UNL     1      10.804  -7.886 -11.981  0.00  0.00    -0.019 C 
ATOM     29  C   UNL     1       9.436  -7.385 -11.514  0.00  0.00    -0.078 C 
ATOM     30  H   UNL     1       9.805  -5.469 -12.107  0.00  0.00    -0.081 HD
ENDBRANCH  23  24
BRANCH  23  31
ATOM     31  C   UNL     1       7.405  -4.429 -12.538  0.00  0.00    -0.022 A 
ATOM     32  C   UNL     1       6.175  -4.064 -12.975  0.00  0.00    +0.009 A 
ATOM     33  C   UNL     1       6.041  -2.895 -13.701  0.00  0.00    +0.008 A 
ATOM     34  C   UNL     1       7.144  -2.149 -13.955  0.00  0.00    +0.045 A 
ATOM     35  S   UNL     1       8.424  -3.098 -13.151  0.00  0.00    -0.103 S 
ENDBRANCH  23  31
ENDBRANCH  22  23
ENDBRANCH   3  22
TORSDOF 9
