REMARK  Name = ZINC39654493
REMARK  9 active torsions:
REMARK  status: ('A' for Active; 'I' for Inactive)
REMARK    1  A    between atoms: C_1  and  C_2
REMARK    2  A    between atoms: C_2  and  C_3
REMARK    3  A    between atoms: C_6  and  C_9
REMARK    4  A    between atoms: C_9  and  C_10
REMARK    5  A    between atoms: C_10  and  N_11
REMARK    6  A    between atoms: C_12  and  C_14
REMARK    7  A    between atoms: C_25  and  C_27
REMARK    8  A    between atoms: C_32  and  S_33
REMARK    9  A    between atoms: S_33  and  C_34
REMARK                            x       y       z     vdW  Elec       q    Type
REMARK                         _______ _______ _______ _____ _____    ______ ____
ROOT
ATOM      1  C   UNL     1       5.206  -0.841   8.816  0.00  0.00    +0.100 C 
ATOM      2  C   UNL     1       6.410  -1.720   8.409  0.00  0.00    +0.121 C 
ATOM      3  N   UNL     1       7.565  -0.792   8.399  0.00  0.00    -0.296 N 
ATOM      4  C   UNL     1       7.342   0.087   9.572  0.00  0.00    +0.115 C 
ATOM      5  C   UNL     1       5.821   0.342   9.582  0.00  0.00    -0.004 C 
ATOM      6  C   UNL     1       5.300   0.371  11.015  0.00  0.00    -0.010 C 
ATOM      7  C   UNL     1       5.880   1.589  11.740  0.00  0.00    -0.082 C 
ATOM      8  N   UNL     1       5.491   2.814  11.031  0.00  0.00    +0.379 N 
ATOM      9  C   UNL     1       6.074   2.820   9.684  0.00  0.00    -0.082 C 
ATOM     10  C   UNL     1       5.502   1.654   8.872  0.00  0.00    -0.010 C 
ATOM     11  C   UNL     1       8.587  -0.754   7.521  0.00  0.00    +0.249 C 
ATOM     12  O   UNL     1       8.580  -1.484   6.548  0.00  0.00    -0.270 OA
ATOM     13  H   UNL     1       4.485   2.855  10.960  0.00  0.00    -0.086 HD
ATOM     14  H   UNL     1       5.823   3.618  11.543  0.00  0.00    -0.086 HD
ENDROOT
BRANCH  11  15
ATOM     15  C   UNL     1       9.713   0.171   7.740  0.00  0.00    +0.069 A 
ATOM     16  C   UNL     1      10.159   0.456   9.036  0.00  0.00    +0.017 A 
ATOM     17  C   UNL     1      11.220   1.331   9.188  0.00  0.00    +0.020 A 
ATOM     18  C   UNL     1      11.806   1.894   8.068  0.00  0.00    +0.112 A 
ATOM     19  N   UNL     1      11.371   1.613   6.856  0.00  0.00    -0.248 NA
ATOM     20  C   UNL     1      10.363   0.778   6.652  0.00  0.00    +0.114 A 
BRANCH  20  21
ATOM     21  S   UNL     1       9.828   0.434   5.009  0.00  0.00    -0.069 S 
BRANCH  21  22
ATOM     22  C   UNL     1      10.807   1.505   4.009  0.00  0.00    +0.014 A 
ATOM     23  C   UNL     1      11.980   1.037   3.429  0.00  0.00    +0.015 A 
ATOM     24  C   UNL     1      12.745   1.879   2.646  0.00  0.00    +0.001 A 
ATOM     25  C   UNL     1      12.344   3.186   2.438  0.00  0.00    +0.000 A 
ATOM     26  C   UNL     1      11.177   3.655   3.013  0.00  0.00    +0.001 A 
ATOM     27  C   UNL     1      10.404   2.817   3.793  0.00  0.00    +0.015 A 
ENDBRANCH  21  22
ENDBRANCH  20  21
ENDBRANCH  11  15
BRANCH   1  29
ATOM     28  N   UNL     1       3.150  -0.122   7.644  0.00  0.00    -0.315 N 
ATOM     29  C   UNL     1       4.477  -0.351   7.591  0.00  0.00    +0.218 C 
ATOM     30  O   UNL     1       5.084  -0.163   6.559  0.00  0.00    -0.275 OA
ATOM     31  H   UNL     1       2.664  -0.272   8.470  0.00  0.00    +0.149 HD
BRANCH  28  32
ATOM     32  C   UNL     1       2.441   0.355   6.454  0.00  0.00    +0.109 C 
BRANCH  32  33
ATOM     33  C   UNL     1       0.957   0.533   6.781  0.00  0.00    +0.054 C 
BRANCH  33  37
ATOM     34  C   UNL     1      -1.112   1.923   3.312  0.00  0.00    -0.048 A 
ATOM     35  C   UNL     1      -0.985   0.566   3.544  0.00  0.00    +0.004 A 
ATOM     36  C   UNL     1      -0.315   0.116   4.666  0.00  0.00    +0.004 A 
ATOM     37  C   UNL     1       0.228   1.023   5.557  0.00  0.00    -0.046 A 
ATOM     38  C   UNL     1       0.101   2.380   5.325  0.00  0.00    +0.004 A 
ATOM     39  C   UNL     1      -0.565   2.830   4.200  0.00  0.00    +0.004 A 
BRANCH  34  41
ATOM     40  C   UNL     1      -0.854   2.561   0.930  0.00  0.00    +0.009 C 
ATOM     41  C   UNL     1      -1.842   2.413   2.088  0.00  0.00    +0.032 C 
ENDBRANCH  34  41
ENDBRANCH  33  37
ENDBRANCH  32  33
ENDBRANCH  28  32
ENDBRANCH   1  29
TORSDOF 8
