REMARK  Name = ZINC51755522
REMARK  3 active torsions:
REMARK  status: ('A' for Active; 'I' for Inactive)
REMARK    1  A    between atoms: C_1  and  C_2
REMARK    2  A    between atoms: C_2  and  C_17
REMARK    3  A    between atoms: C_6  and  C_11
REMARK                            x       y       z     vdW  Elec       q    Type
REMARK                         _______ _______ _______ _____ _____    ______ ____
ROOT
ATOM      1  C   UNL     1      -0.019   1.526   0.010  0.00  0.00    +0.056 C 
ATOM      2  C   UNL     1       0.002  -0.004   0.002  0.00  0.00    +0.109 C 
ATOM      3  C   UNL     1       0.831  -0.534  -1.192  0.00  0.00    +0.086 C 
ATOM      4  C   UNL     1       2.204  -0.702  -0.569  0.00  0.00    -0.001 A 
ATOM      5  C   UNL     1       3.451  -0.871  -1.123  0.00  0.00    +0.016 A 
ATOM      6  C   UNL     1       4.569  -0.996  -0.294  0.00  0.00    -0.009 A 
ATOM      7  C   UNL     1       4.405  -0.947   1.091  0.00  0.00    +0.012 A 
ATOM      8  C   UNL     1       3.152  -0.781   1.635  0.00  0.00    +0.046 A 
ATOM      9  C   UNL     1       2.034  -0.660   0.810  0.00  0.00    +0.125 A 
ATOM     10  O   UNL     1       0.721  -0.510   1.139  0.00  0.00    -0.486 OA
ATOM     11  C   UNL     1      -1.422  -0.563  -0.031  0.00  0.00    +0.056 C 
ENDROOT
BRANCH   6  12
ATOM     12  C   UNL     1       5.914  -1.179  -0.880  0.00  0.00    +0.041 A 
ATOM     13  C   UNL     1       7.125  -1.325  -0.258  0.00  0.00    +0.129 A 
ATOM     14  N   UNL     1       8.177  -1.473  -1.038  0.00  0.00    -0.233 NA
ATOM     15  C   UNL     1       8.060  -1.478  -2.350  0.00  0.00    +0.156 A 
ATOM     16  S   UNL     1       6.407  -1.277  -2.593  0.00  0.00    -0.053 S 
ATOM     17  N   UNL     1       9.057  -1.621  -3.300  0.00  0.00    -0.338 N 
ATOM     18  H   UNL     1       9.979  -1.736  -3.022  0.00  0.00    +0.144 HD
ATOM     19  H   UNL     1       8.833  -1.607  -4.244  0.00  0.00    +0.144 HD
ENDBRANCH   6  12
TORSDOF 1
