REMARK  Name = ZINC15085776
REMARK  11 active torsions:
REMARK  status: ('A' for Active; 'I' for Inactive)
REMARK    1  A    between atoms: C_1  and  O_2
REMARK    2  A    between atoms: O_2  and  C_3
REMARK    3  A    between atoms: C_9  and  C_13
REMARK    4  A    between atoms: C_13  and  C_14
REMARK    5  A    between atoms: C_14  and  N_58
REMARK    6  A    between atoms: C_15  and  C_16
REMARK    7  A    between atoms: C_15  and  N_58
REMARK    8  A    between atoms: C_19  and  C_22
REMARK    9  A    between atoms: C_22  and  C_23
REMARK   10  A    between atoms: C_27  and  O_29
REMARK   11  A    between atoms: O_29  and  C_30
REMARK                            x       y       z     vdW  Elec       q    Type
REMARK                         _______ _______ _______ _____ _____    ______ ____
ROOT
ATOM      1  C   UNL     1      -5.003   0.754  -2.776  0.00  0.00    -0.027 C 
ENDROOT
BRANCH   1   2
ATOM      2  C   UNL     1      -6.423   0.253  -2.732  0.00  0.00    +0.044 C 
ATOM      3  N   UNL     1      -7.067  -0.075  -1.680  0.00  0.00    -0.096 NA
ATOM      4  O   UNL     1      -8.388  -0.502  -1.947  0.00  0.00    -0.390 OA
ATOM      5  C   UNL     1      -8.466  -0.822  -3.351  0.00  0.00    +0.214 C 
ATOM      6  C   UNL     1      -7.333   0.061  -3.931  0.00  0.00    +0.099 C 
BRANCH   5   7
ATOM      7  C   UNL     1      -9.823  -0.420  -3.931  0.00  0.00    +0.083 C 
BRANCH   7   8
ATOM      8  C   UNL     1     -10.904  -1.272  -3.318  0.00  0.00    -0.037 A 
ATOM      9  C   UNL     1     -11.535  -0.857  -2.160  0.00  0.00    +0.053 A 
ATOM     10  C   UNL     1     -12.530  -1.637  -1.592  0.00  0.00    +0.170 A 
ATOM     11  C   UNL     1     -12.894  -2.840  -2.190  0.00  0.00    +0.208 A 
ATOM     12  C   UNL     1     -12.257  -3.252  -3.354  0.00  0.00    +0.166 A 
ATOM     13  C   UNL     1     -11.266  -2.463  -3.918  0.00  0.00    +0.053 A 
ATOM     14  O   UNL     1     -13.885  -3.415  -1.447  0.00  0.00    -0.449 OA
ATOM     15  C   UNL     1     -14.406  -2.359  -0.619  0.00  0.00    +0.467 C 
ATOM     16  O   UNL     1     -13.293  -1.458  -0.474  0.00  0.00    -0.452 OA
BRANCH  12  17
ATOM     17  O   UNL     1     -12.609  -4.427  -3.942  0.00  0.00    -0.491 OA
ATOM     18  C   UNL     1     -11.912  -4.788  -5.137  0.00  0.00    +0.277 C 
ENDBRANCH  12  17
ENDBRANCH   7   8
ENDBRANCH   5   7
ENDBRANCH   1   2
BRANCH   1  19
ATOM     19  N   UNL     1      -4.466   0.805  -1.403  0.00  0.00    +0.383 N 
ATOM     20  H   UNL     1      -5.042   1.440  -0.838  0.00  0.00    -0.085 HD
ATOM     21  H   UNL     1      -4.492  -0.137  -0.994  0.00  0.00    -0.085 HD
BRANCH  19  22
ATOM     22  C   UNL     1      -3.074   1.292  -1.415  0.00  0.00    -0.077 C 
BRANCH  22  23
ATOM     23  C   UNL     1      -2.545   1.334   0.020  0.00  0.00    +0.018 C 
BRANCH  23  30
ATOM     24  C   UNL     1      -0.639   5.630   0.038  0.00  0.00    +0.121 A 
ATOM     25  C   UNL     1       0.753   5.599   0.025  0.00  0.00    +0.047 A 
ATOM     26  C   UNL     1       1.427   4.398   0.012  0.00  0.00    +0.030 A 
ATOM     27  C   UNL     1       0.718   3.202   0.012  0.00  0.00    +0.047 A 
ATOM     28  C   UNL     1      -0.688   3.231   0.026  0.00  0.00    +0.006 A 
ATOM     29  C   UNL     1      -1.362   4.454   0.039  0.00  0.00    +0.056 A 
ATOM     30  C   UNL     1      -1.122   1.831   0.017  0.00  0.00    -0.024 A 
ATOM     31  C   UNL     1      -0.013   1.076   0.008  0.00  0.00    +0.087 A 
ATOM     32  N   UNL     1       1.097   1.876   0.002  0.00  0.00    -0.360 N 
ATOM     33  H   UNL     1       2.013   1.559  -0.009  0.00  0.00    +0.165 HD
BRANCH  24  35
ATOM     34  C   UNL     1      -0.481   8.003   0.050  0.00  0.00    +0.277 C 
ATOM     35  O   UNL     1      -1.289   6.825   0.051  0.00  0.00    -0.495 OA
ENDBRANCH  24  35
ENDBRANCH  23  30
ENDBRANCH  22  23
ENDBRANCH  19  22
ENDBRANCH   1  19
TORSDOF 9
