REMARK  Name = ZINC10440208
REMARK  8 active torsions:
REMARK  status: ('A' for Active; 'I' for Inactive)
REMARK    1  A    between atoms: C_1  and  C_2
REMARK    2  A    between atoms: C_2  and  C_3
REMARK    3  A    between atoms: C_10  and  C_12
REMARK    4  A    between atoms: C_15  and  S_18
REMARK    5  A    between atoms: N_16  and  C_17
REMARK    6  A    between atoms: S_18  and  C_19
REMARK    7  A    between atoms: C_19  and  C_20
REMARK    8  A    between atoms: N_25  and  C_26
REMARK                            x       y       z     vdW  Elec       q    Type
REMARK                         _______ _______ _______ _____ _____    ______ ____
ROOT
ATOM      1  C   UNL     1       0.149  -1.125  11.794  0.00  0.00    +0.171 A 
ATOM      2  N   UNL     1       0.374  -1.939  10.786  0.00  0.00    -0.128 NA
ATOM      3  N   UNL     1       0.175  -1.327   9.674  0.00  0.00    -0.122 NA
ATOM      4  C   UNL     1      -0.181  -0.083   9.900  0.00  0.00    +0.192 A 
ATOM      5  N   UNL     1      -0.214   0.090  11.256  0.00  0.00    -0.305 N 
ATOM      6  C   UNL     1      -0.563   1.312  11.985  0.00  0.00    +0.153 C 
ENDROOT
BRANCH   1  13
ATOM      7  C   UNL     1       1.101  -3.824  17.357  0.00  0.00    -0.007 C 
ATOM      8  C   UNL     1       0.278  -2.738  18.056  0.00  0.00    +0.009 C 
ATOM      9  C   UNL     1       0.561  -1.391  17.374  0.00  0.00    +0.043 C 
ATOM     10  C   UNL     1       0.460  -1.582  15.895  0.00  0.00    -0.006 A 
ATOM     11  C   UNL     1       0.446  -2.761  15.210  0.00  0.00    -0.036 A 
ATOM     12  C   UNL     1       0.343  -2.678  13.827  0.00  0.00    +0.023 A 
ATOM     13  C   UNL     1       0.262  -1.451  13.224  0.00  0.00    +0.057 A 
ATOM     14  S   UNL     1       0.338  -0.348  14.628  0.00  0.00    -0.090 S 
ATOM     15  C   UNL     1       0.542  -4.087  15.959  0.00  0.00    +0.039 C 
BRANCH   7  17
ATOM     16  C   UNL     1       1.960  -6.162  17.550  0.00  0.00    +0.004 C 
ATOM     17  C   UNL     1       1.040  -5.114  18.177  0.00  0.00    +0.000 C 
ENDBRANCH   7  17
ENDBRANCH   1  13
BRANCH   4  18
ATOM     18  S   UNL     1      -0.554   1.135   8.683  0.00  0.00    -0.077 S 
BRANCH  18  19
ATOM     19  C   UNL     1      -0.289   0.166   7.177  0.00  0.00    +0.173 C 
BRANCH  19  20
ATOM     20  C   UNL     1      -0.557   1.028   5.971  0.00  0.00    +0.231 C 
ATOM     21  O   UNL     1      -0.894   2.184   6.115  0.00  0.00    -0.274 OA
ATOM     22  N   UNL     1      -0.423   0.515   4.732  0.00  0.00    -0.239 N 
ATOM     23  C   UNL     1      -0.663   1.286   3.653  0.00  0.00    +0.306 C 
ATOM     24  O   UNL     1      -1.000   2.444   3.797  0.00  0.00    -0.252 OA
ATOM     25  N   UNL     1      -0.528   0.772   2.414  0.00  0.00    -0.296 N 
ATOM     26  H   UNL     1      -0.153  -0.410   4.617  0.00  0.00    +0.159 HD
ATOM     27  H   UNL     1      -0.258  -0.152   2.299  0.00  0.00    +0.151 HD
BRANCH  25  28
ATOM     28  C   UNL     1      -0.789   1.611   1.242  0.00  0.00    +0.074 C 
ATOM     29  C   UNL     1      -0.013   1.086   0.008  0.00  0.00    +0.022 C 
ATOM     30  C   UNL     1      -0.809   1.622  -1.200  0.00  0.00    +0.002 C 
ATOM     31  C   UNL     1      -2.243   1.875  -0.703  0.00  0.00    +0.002 C 
ATOM     32  C   UNL     1      -2.268   1.485   0.789  0.00  0.00    +0.022 C 
ENDBRANCH  25  28
ENDBRANCH  19  20
ENDBRANCH  18  19
ENDBRANCH   4  18
TORSDOF 6
