REMARK  Name = ZINC62625814
REMARK  6 active torsions:
REMARK  status: ('A' for Active; 'I' for Inactive)
REMARK    1  A    between atoms: C_1  and  C_2
REMARK    2  A    between atoms: C_2  and  C_3
REMARK    3  A    between atoms: C_3  and  C_11
REMARK    4  A    between atoms: C_14  and  N_17
REMARK    5  A    between atoms: C_18  and  C_20
REMARK    6  A    between atoms: N_23  and  C_25
REMARK                            x       y       z     vdW  Elec       q    Type
REMARK                         _______ _______ _______ _____ _____    ______ ____
ROOT
ATOM      1  N   UNL     1      -4.454   1.161   4.372  0.00  0.00    -0.280 N 
ATOM      2  C   UNL     1      -5.205   2.276   4.265  0.00  0.00    +0.269 C 
ATOM      3  O   UNL     1      -5.298   2.845   3.194  0.00  0.00    -0.268 OA
ATOM      4  H   UNL     1      -4.439   0.665   5.206  0.00  0.00    +0.155 HD
ENDROOT
BRANCH   2   5
ATOM      5  C   UNL     1      -5.915   2.804   5.446  0.00  0.00    +0.151 A 
ATOM      6  C   UNL     1      -6.739   3.953   5.488  0.00  0.00    +0.006 A 
ATOM      7  C   UNL     1      -7.170   4.050   6.764  0.00  0.00    +0.049 A 
ATOM      8  N   UNL     1      -6.626   3.007   7.448  0.00  0.00    -0.236 N 
ATOM      9  N   UNL     1      -5.904   2.292   6.662  0.00  0.00    -0.161 NA
ATOM     10  C   UNL     1      -8.069   5.255   6.920  0.00  0.00    +0.056 C 
ATOM     11  C   UNL     1      -7.791   6.128   5.676  0.00  0.00    +0.011 C 
ATOM     12  C   UNL     1      -7.300   5.079   4.653  0.00  0.00    +0.040 C 
BRANCH   8  13
ATOM     13  C   UNL     1      -6.828   2.748   8.811  0.00  0.00    +0.069 A 
ATOM     14  C   UNL     1      -6.966   3.800   9.706  0.00  0.00    +0.031 A 
ATOM     15  C   UNL     1      -7.165   3.544  11.048  0.00  0.00    +0.043 A 
ATOM     16  C   UNL     1      -7.228   2.238  11.503  0.00  0.00    +0.159 A 
ATOM     17  C   UNL     1      -7.090   1.184  10.611  0.00  0.00    +0.160 A 
ATOM     18  C   UNL     1      -6.897   1.438   9.266  0.00  0.00    +0.069 A 
ATOM     19  F   UNL     1      -7.151  -0.090  11.057  0.00  0.00    -0.202 F 
ATOM     20  F   UNL     1      -7.422   1.989  12.816  0.00  0.00    -0.202 F 
ENDBRANCH   8  13
ENDBRANCH   2   5
BRANCH   1  24
ATOM     21  C   UNL     1      -2.200  -0.152   1.125  0.00  0.00    -0.032 A 
ATOM     22  C   UNL     1      -2.748  -1.071   2.001  0.00  0.00    +0.006 A 
ATOM     23  C   UNL     1      -3.496  -0.639   3.079  0.00  0.00    +0.023 A 
ATOM     24  C   UNL     1      -3.697   0.721   3.282  0.00  0.00    +0.034 A 
ATOM     25  C   UNL     1      -3.145   1.641   2.401  0.00  0.00    +0.023 A 
ATOM     26  C   UNL     1      -2.394   1.202   1.328  0.00  0.00    +0.006 A 
BRANCH  21  27
ATOM     27  C   UNL     1      -1.384  -0.627  -0.049  0.00  0.00    +0.072 C 
ATOM     28  C   UNL     1      -1.213  -2.148   0.026  0.00  0.00    +0.030 C 
ATOM     29  C   UNL     1      -0.478  -2.619  -1.234  0.00  0.00    +0.097 C 
ATOM     30  C   UNL     1      -1.235  -2.155  -2.450  0.00  0.00    +0.219 C 
ATOM     31  O   UNL     1      -1.177  -2.807  -3.471  0.00  0.00    -0.275 OA
ATOM     32  N   UNL     1      -1.972  -1.035  -2.427  0.00  0.00    -0.256 N 
ATOM     33  C   UNL     1      -2.091  -0.271  -1.330  0.00  0.00    +0.230 C 
ATOM     34  O   UNL     1      -2.781   0.725  -1.371  0.00  0.00    -0.274 OA
ATOM     35  H   UNL     1      -2.438  -0.767  -3.234  0.00  0.00    +0.157 HD
BRANCH  27  37
ATOM     36  C   UNL     1       0.691  -0.284   1.299  0.00  0.00    +0.005 C 
ATOM     37  C   UNL     1      -0.009   0.043  -0.021  0.00  0.00    +0.017 C 
ENDBRANCH  27  37
ENDBRANCH  21  27
ENDBRANCH   1  24
TORSDOF 5
