REMARK  Name = ZINC64986591
REMARK  5 active torsions:
REMARK  status: ('A' for Active; 'I' for Inactive)
REMARK    1  A    between atoms: C_1  and  C_2
REMARK    2  A    between atoms: N_5  and  S_8
REMARK    3  A    between atoms: S_8  and  C_11
REMARK    4  A    between atoms: C_16  and  O_17
REMARK    5  A    between atoms: O_17  and  C_18
REMARK                            x       y       z     vdW  Elec       q    Type
REMARK                         _______ _______ _______ _____ _____    ______ ____
ROOT
ATOM      1  C   UNL     1      -1.025  -5.381   1.635  0.00  0.00    +0.148 A 
ATOM      2  C   UNL     1      -0.234  -6.243   2.358  0.00  0.00    +0.049 A 
ATOM      3  C   UNL     1       0.159  -7.468   1.805  0.00  0.00    +0.081 A 
ATOM      4  C   UNL     1      -0.280  -7.819   0.522  0.00  0.00    +0.144 A 
ATOM      5  C   UNL     1      -1.062  -6.937  -0.205  0.00  0.00    +0.095 A 
ATOM      6  C   UNL     1      -1.440  -5.722   0.351  0.00  0.00    +0.158 A 
ATOM      7  O   UNL     1       0.028  -9.029   0.001  0.00  0.00    -0.453 OA
ATOM      8  C   UNL     1      -0.426 -10.139   0.634  0.00  0.00    +0.150 A 
ATOM      9  C   UNL     1      -1.321 -10.970  -0.027  0.00  0.00    +0.048 A 
ATOM     10  C   UNL     1      -1.823 -12.093   0.603  0.00  0.00    +0.004 A 
ATOM     11  C   UNL     1      -1.435 -12.392   1.896  0.00  0.00    +0.002 A 
ATOM     12  C   UNL     1      -0.538 -11.576   2.556  0.00  0.00    +0.027 A 
ATOM     13  C   UNL     1      -0.017 -10.451   1.924  0.00  0.00    +0.076 A 
ATOM     14  N   UNL     1       0.937  -9.685   2.592  0.00  0.00    -0.278 N 
ATOM     15  C   UNL     1       1.035  -8.363   2.569  0.00  0.00    +0.252 C 
ATOM     16  O   UNL     1       1.919  -7.854   3.231  0.00  0.00    -0.270 OA
ATOM     17  H   UNL     1       1.591 -10.164   3.125  0.00  0.00    +0.155 HD
ENDROOT
BRANCH   1  18
ATOM     18  S   UNL     1      -1.521  -3.844   2.338  0.00  0.00    +0.064 S 
ATOM     19  O   UNL     1      -0.925  -3.776   3.626  0.00  0.00    -0.153 OA
ATOM     20  O   UNL     1      -2.925  -3.742   2.142  0.00  0.00    -0.153 OA
BRANCH  18  25
ATOM     21  C   UNL     1      -0.248   1.515   0.746  0.00  0.00    +0.007 C 
ATOM     22  C   UNL     1      -0.186  -0.009   0.628  0.00  0.00    -0.012 C 
ATOM     23  C   UNL     1      -1.598  -0.562   0.420  0.00  0.00    +0.020 C 
ATOM     24  C   UNL     1      -1.529  -2.084   0.268  0.00  0.00    +0.110 C 
ATOM     25  N   UNL     1      -0.827  -2.644   1.432  0.00  0.00    -0.176 NA
ATOM     26  C   UNL     1       0.501  -2.119   1.775  0.00  0.00    +0.110 C 
ATOM     27  C   UNL     1       0.409  -0.596   1.910  0.00  0.00    +0.020 C 
ENDBRANCH  18  25
ENDBRANCH   1  18
BRANCH   6  28
ATOM     28  O   UNL     1      -2.211  -4.863  -0.361  0.00  0.00    -0.452 OA
BRANCH  28  29
ATOM     29  C   UNL     1      -2.667  -5.271  -1.575  0.00  0.00    +0.147 A 
ATOM     30  C   UNL     1      -1.958  -4.955  -2.725  0.00  0.00    +0.048 A 
ATOM     31  C   UNL     1      -2.424  -5.371  -3.958  0.00  0.00    +0.004 A 
ATOM     32  C   UNL     1      -3.594  -6.102  -4.047  0.00  0.00    +0.002 A 
ATOM     33  C   UNL     1      -4.303  -6.418  -2.902  0.00  0.00    +0.024 A 
ATOM     34  C   UNL     1      -3.839  -6.010  -1.666  0.00  0.00    +0.083 A 
ATOM     35 CL   UNL     1      -4.724  -6.414  -0.228  0.00  0.00    -0.080 Cl
ENDBRANCH  28  29
ENDBRANCH   6  28
TORSDOF 4
