REMARK  Name = ZINC14357066
REMARK  7 active torsions:
REMARK  status: ('A' for Active; 'I' for Inactive)
REMARK    1  A    between atoms: C_5  and  N_7
REMARK    2  A    between atoms: N_7  and  S_8
REMARK    3  A    between atoms: S_8  and  C_11
REMARK    4  A    between atoms: C_14  and  C_17
REMARK    5  A    between atoms: C_18  and  C_19
REMARK    6  A    between atoms: N_21  and  N_22
REMARK    7  A    between atoms: C_23  and  C_25
REMARK                            x       y       z     vdW  Elec       q    Type
REMARK                         _______ _______ _______ _____ _____    ______ ____
ROOT
ATOM      1  C   UNL     1      -0.778  -1.391   6.646  0.00  0.00    +0.013 C 
ATOM      2  C   UNL     1       0.438  -1.389   7.229  0.00  0.00    +0.069 C 
ENDROOT
BRANCH   1   6
ATOM      3  C   UNL     1      -1.122  -1.973   2.458  0.00  0.00    +0.109 A 
ATOM      4  C   UNL     1       0.128  -1.978   3.054  0.00  0.00    +0.029 A 
ATOM      5  C   UNL     1       0.248  -1.784   4.413  0.00  0.00    +0.010 A 
ATOM      6  C   UNL     1      -0.897  -1.592   5.193  0.00  0.00    -0.025 A 
ATOM      7  C   UNL     1      -2.156  -1.594   4.585  0.00  0.00    +0.010 A 
ATOM      8  C   UNL     1      -2.260  -1.784   3.223  0.00  0.00    +0.029 A 
BRANCH   3   9
ATOM      9  S   UNL     1      -1.265  -2.216   0.719  0.00  0.00    +0.072 S 
ATOM     10  O   UNL     1      -2.573  -2.718   0.485  0.00  0.00    -0.150 OA
ATOM     11  O   UNL     1      -0.097  -2.913   0.309  0.00  0.00    -0.150 OA
BRANCH   9  12
ATOM     12  N   UNL     1      -1.198  -0.721   0.009  0.00  0.00    -0.215 N 
ATOM     13  H   UNL     1      -1.945  -0.401  -0.520  0.00  0.00    +0.174 HD
BRANCH  12  18
ATOM     14  C   UNL     1       2.315   0.292   0.393  0.00  0.00    +0.002 A 
ATOM     15  C   UNL     1       2.182   1.665   0.494  0.00  0.00    +0.002 A 
ATOM     16  C   UNL     1       0.929   2.248   0.436  0.00  0.00    +0.022 A 
ATOM     17  C   UNL     1      -0.194   1.460   0.275  0.00  0.00    +0.063 A 
ATOM     18  C   UNL     1      -0.064   0.080   0.172  0.00  0.00    +0.066 A 
ATOM     19  C   UNL     1       1.196  -0.502   0.232  0.00  0.00    +0.026 A 
ATOM     20 CL   UNL     1      -1.766   2.192   0.194  0.00  0.00    -0.082 Cl
ENDBRANCH  12  18
ENDBRANCH   9  12
ENDBRANCH   3   9
ENDBRANCH   1   6
BRANCH   2  21
ATOM     21  C   UNL     1       0.557  -1.188   8.674  0.00  0.00    +0.253 C 
ATOM     22  O   UNL     1      -0.442  -1.023   9.350  0.00  0.00    -0.269 OA
ATOM     23  N   UNL     1       1.772  -1.187   9.257  0.00  0.00    -0.231 N 
ATOM     24  H   UNL     1       2.568  -1.319   8.719  0.00  0.00    +0.173 HD
BRANCH  23  25
ATOM     25  N   UNL     1       1.886  -0.995  10.640  0.00  0.00    -0.234 N 
ATOM     26  C   UNL     1       3.101  -0.994  11.223  0.00  0.00    +0.235 C 
ATOM     27  O   UNL     1       4.096  -1.159  10.550  0.00  0.00    -0.274 OA
ATOM     28  H   UNL     1       1.090  -0.863  11.178  0.00  0.00    +0.173 HD
BRANCH  26  29
ATOM     29  C   UNL     1       3.223  -0.787  12.710  0.00  0.00    +0.049 C 
ATOM     30  C   UNL     1       2.632   0.573  13.087  0.00  0.00    +0.019 C 
ATOM     31  C   UNL     1       2.756   0.782  14.597  0.00  0.00    -0.009 C 
ATOM     32  C   UNL     1       4.232   0.740  14.998  0.00  0.00    +0.007 C 
ATOM     33  C   UNL     1       4.823  -0.620  14.622  0.00  0.00    -0.009 C 
ATOM     34  C   UNL     1       4.699  -0.830  13.112  0.00  0.00    +0.019 C 
ATOM     35  C   UNL     1       4.063  -1.728  15.355  0.00  0.00    +0.007 C 
ATOM     36  C   UNL     1       2.587  -1.685  14.954  0.00  0.00    -0.009 C 
ATOM     37  C   UNL     1       1.996  -0.325  15.330  0.00  0.00    +0.007 C 
ATOM     38  C   UNL     1       2.463  -1.895  13.443  0.00  0.00    +0.019 C 
ENDBRANCH  26  29
ENDBRANCH  23  25
ENDBRANCH   2  21
TORSDOF 7
