REMARK  Name = ZINC15080211
REMARK  6 active torsions:
REMARK  status: ('A' for Active; 'I' for Inactive)
REMARK    1  A    between atoms: C_1  and  O_2
REMARK    2  A    between atoms: O_2  and  C_3
REMARK    3  A    between atoms: C_3  and  C_5
REMARK    4  A    between atoms: C_7  and  C_34
REMARK    5  A    between atoms: C_14  and  C_27
REMARK    6  A    between atoms: C_30  and  O_33
REMARK                            x       y       z     vdW  Elec       q    Type
REMARK                         _______ _______ _______ _____ _____    ______ ____
ROOT
ATOM      1  C   UNL     1      -4.540   1.152  -3.214  0.00  0.00    +0.176 C 
ATOM      2  C   UNL     1      -4.171   0.941  -4.686  0.00  0.00    +0.046 C 
ATOM      3  C   UNL     1      -4.618   2.171  -5.478  0.00  0.00    +0.060 C 
ATOM      4  C   UNL     1      -3.958   3.406  -4.915  0.00  0.00    +0.016 C 
ATOM      5  C   UNL     1      -3.639   3.490  -3.606  0.00  0.00    +0.025 C 
ATOM      6  C   UNL     1      -3.903   2.424  -2.728  0.00  0.00    +0.176 C 
ATOM      7  O   UNL     1      -3.609   2.533  -1.553  0.00  0.00    -0.291 OA
ATOM      8  C   UNL     1      -2.990   4.726  -3.037  0.00  0.00    +0.086 C 
ATOM      9  C   UNL     1      -3.170   5.908  -3.945  0.00  0.00    -0.007 A 
ATOM     10  C   UNL     1      -2.993   7.210  -3.445  0.00  0.00    -0.012 A 
ATOM     11  C   UNL     1      -2.657   7.430  -2.098  0.00  0.00    +0.009 A 
ATOM     12  C   UNL     1      -2.492   8.703  -1.645  0.00  0.00    +0.001 A 
ATOM     13  C   UNL     1      -2.653   9.794  -2.497  0.00  0.00    +0.001 A 
ATOM     14  C   UNL     1      -2.978   9.619  -3.807  0.00  0.00    +0.008 A 
ATOM     15  C   UNL     1      -3.157   8.319  -4.311  0.00  0.00    -0.017 A 
ATOM     16  C   UNL     1      -3.496   8.103  -5.658  0.00  0.00    +0.010 A 
ATOM     17  C   UNL     1      -3.665   6.836  -6.118  0.00  0.00    +0.024 A 
ATOM     18  C   UNL     1      -3.506   5.733  -5.268  0.00  0.00    +0.036 A 
ATOM     19  N   UNL     1      -3.696   4.442  -5.764  0.00  0.00    -0.317 N 
ATOM     20  H   UNL     1      -3.640   4.280  -6.719  0.00  0.00    +0.152 HD
ENDROOT
BRANCH   2  21
ATOM     21  C   UNL     1      -4.872  -0.284  -5.214  0.00  0.00    -0.039 A 
ATOM     22  C   UNL     1      -6.221  -0.232  -5.513  0.00  0.00    +0.008 A 
ATOM     23  C   UNL     1      -6.868  -1.353  -5.997  0.00  0.00    +0.050 A 
ATOM     24  C   UNL     1      -6.166  -2.533  -6.184  0.00  0.00    +0.166 A 
ATOM     25  C   UNL     1      -4.807  -2.585  -5.883  0.00  0.00    +0.166 A 
ATOM     26  C   UNL     1      -4.163  -1.456  -5.404  0.00  0.00    +0.053 A 
ATOM     27  O   UNL     1      -4.349  -3.843  -6.151  0.00  0.00    -0.453 OA
ATOM     28  C   UNL     1      -5.345  -4.441  -7.002  0.00  0.00    +0.466 C 
ATOM     29  O   UNL     1      -6.559  -3.758  -6.640  0.00  0.00    -0.453 OA
ENDBRANCH   2  21
BRANCH   8  30
ATOM     30  C   UNL     1      -1.518   4.467  -2.851  0.00  0.00    -0.035 A 
ATOM     31  C   UNL     1      -0.959   4.537  -1.588  0.00  0.00    +0.008 A 
ATOM     32  C   UNL     1       0.390   4.295  -1.414  0.00  0.00    +0.046 A 
ATOM     33  C   UNL     1       1.185   3.986  -2.509  0.00  0.00    +0.117 A 
ATOM     34  C   UNL     1       0.623   3.922  -3.775  0.00  0.00    +0.046 A 
ATOM     35  C   UNL     1      -0.726   4.165  -3.944  0.00  0.00    +0.008 A 
BRANCH  33  36
ATOM     36  O   UNL     1       2.513   3.748  -2.340  0.00  0.00    -0.507 OA
ATOM     37  H   UNL     1       2.727   2.820  -2.172  0.00  0.00    +0.292 HD
ENDBRANCH  33  36
ENDBRANCH   8  30
BRANCH   1  38
ATOM     38  C   UNL     1      -6.037   1.254  -3.079  0.00  0.00    +0.318 C 
ATOM     39  O   UNL     1      -6.592   2.308  -3.285  0.00  0.00    -0.250 OA
BRANCH  38  41
ATOM     40  C   UNL     1      -8.193   0.347  -2.621  0.00  0.00    +0.280 C 
ATOM     41  O   UNL     1      -6.755   0.175  -2.731  0.00  0.00    -0.467 OA
ENDBRANCH  38  41
ENDBRANCH   1  38
TORSDOF 5
