REMARK  Name = ZINC07305257
REMARK  7 active torsions:
REMARK  status: ('A' for Active; 'I' for Inactive)
REMARK    1  A    between atoms: C_1  and  C_2
REMARK    2  A    between atoms: C_6  and  C_9
REMARK    3  A    between atoms: C_7  and  N_8
REMARK    4  A    between atoms: C_9  and  O_11
REMARK    5  A    between atoms: O_11  and  C_12
REMARK    6  A    between atoms: C_12  and  C_13
REMARK    7  A    between atoms: N_15  and  C_16
REMARK                            x       y       z     vdW  Elec       q    Type
REMARK                         _______ _______ _______ _____ _____    ______ ____
ROOT
ATOM      1  C   UNL     1       0.535   5.756   0.159  0.00  0.00    +0.328 C 
ENDROOT
BRANCH   1   2
ATOM      2  C   UNL     1      -0.798   6.445   0.301  0.00  0.00    +0.251 C 
ATOM      3  O   UNL     1      -1.814   5.788   0.386  0.00  0.00    -0.272 OA
ATOM      4  N   UNL     1      -0.861   7.791   0.334  0.00  0.00    -0.307 N 
ATOM      5  H   UNL     1      -0.048   8.316   0.266  0.00  0.00    +0.149 HD
BRANCH   4   6
ATOM      6  C   UNL     1      -2.156   8.460   0.472  0.00  0.00    +0.035 C 
ATOM      7  C   UNL     1      -3.057   8.077  -0.704  0.00  0.00    +0.029 C 
ATOM      8  C   UNL     1      -4.410   8.776  -0.559  0.00  0.00    -0.008 C 
ATOM      9  C   UNL     1      -4.202  10.292  -0.549  0.00  0.00    +0.007 C 
ATOM     10  C   UNL     1      -3.302  10.676   0.626  0.00  0.00    -0.008 C 
ATOM     11  C   UNL     1      -1.949   9.976   0.482  0.00  0.00    +0.029 C 
ATOM     12  C   UNL     1      -3.962  10.243   1.937  0.00  0.00    +0.007 C 
ATOM     13  C   UNL     1      -4.170   8.727   1.927  0.00  0.00    -0.008 C 
ATOM     14  C   UNL     1      -5.071   8.344   0.751  0.00  0.00    +0.007 C 
ATOM     15  C   UNL     1      -2.817   8.028   1.783  0.00  0.00    +0.029 C 
ENDBRANCH   4   6
ENDBRANCH   1   2
BRANCH   1  16
ATOM     16  O   UNL     1       0.337   4.317   0.149  0.00  0.00    -0.452 OA
BRANCH  16  17
ATOM     17  C   UNL     1       1.438   3.550   0.028  0.00  0.00    +0.341 C 
ATOM     18  O   UNL     1       2.533   4.068  -0.068  0.00  0.00    -0.245 OA
BRANCH  17  24
ATOM     19  C   UNL     1       3.562  -0.979  -0.013  0.00  0.00    +0.045 C 
ATOM     20  C   UNL     1       2.333  -0.107  -0.009  0.00  0.00    -0.029 A 
ATOM     21  C   UNL     1       1.080  -0.683  -0.022  0.00  0.00    +0.005 A 
ATOM     22  C   UNL     1      -0.057   0.110  -0.019  0.00  0.00    +0.001 A 
ATOM     23  C   UNL     1       0.052   1.483  -0.003  0.00  0.00    +0.017 A 
ATOM     24  C   UNL     1       1.314   2.082   0.011  0.00  0.00    +0.080 A 
ATOM     25  C   UNL     1       2.464   1.276   0.008  0.00  0.00    +0.042 A 
BRANCH  25  26
ATOM     26  N   UNL     1       3.725   1.857   0.022  0.00  0.00    -0.357 N 
ATOM     27  H   UNL     1       4.515   1.301   0.101  0.00  0.00    +0.142 HD
ATOM     28  H   UNL     1       3.815   2.821  -0.046  0.00  0.00    +0.142 HD
ENDBRANCH  25  26
ENDBRANCH  17  24
ENDBRANCH  16  17
ENDBRANCH   1  16
TORSDOF 6
