REMARK  Name = ZINC12714140
REMARK  6 active torsions:
REMARK  status: ('A' for Active; 'I' for Inactive)
REMARK    1  A    between atoms: C_4  and  C_7
REMARK    2  A    between atoms: C_8  and  C_9
REMARK    3  A    between atoms: C_9  and  N_64
REMARK    4  A    between atoms: C_15  and  C_17
REMARK    5  A    between atoms: C_17  and  C_18
REMARK    6  A    between atoms: C_23  and  N_66
REMARK                            x       y       z     vdW  Elec       q    Type
REMARK                         _______ _______ _______ _____ _____    ______ ____
ROOT
ATOM      1  C   UNL     1       2.360   6.984   9.294  0.00  0.00    -0.058 C 
ATOM      2  C   UNL     1       3.544   6.107   8.883  0.00  0.00    +0.085 C 
ATOM      3  N   UNL     1       3.839   6.298   7.465  0.00  0.00    -0.318 N 
ATOM      4  C   UNL     1       2.966   6.836   6.607  0.00  0.00    +0.200 C 
ATOM      5  O   UNL     1       3.282   6.930   5.440  0.00  0.00    -0.278 OA
ATOM      6  C   UNL     1       1.611   7.328   7.028  0.00  0.00    +0.028 C 
ATOM      7  H   UNL     1       4.708   6.023   7.132  0.00  0.00    +0.149 HD
ATOM      8  N   UNL     1       1.261   6.746   8.338  0.00  0.00    +0.391 N 
ATOM      9  H   UNL     1       1.122   5.735   8.229  0.00  0.00    -0.080 HD
ENDROOT
BRANCH   8  10
ATOM     10  C   UNL     1       0.008   7.353   8.843  0.00  0.00    -0.050 C 
BRANCH  10  12
ATOM     11  C   UNL     1      -0.778   7.065  11.151  0.00  0.00    +0.002 C 
ATOM     12  C   UNL     1      -0.520   6.510   9.975  0.00  0.00    -0.045 C 
BRANCH  11  16
ATOM     13  C   UNL     1      -2.267   4.689  14.341  0.00  0.00    +0.000 A 
ATOM     14  C   UNL     1      -2.052   6.043  14.532  0.00  0.00    +0.001 A 
ATOM     15  C   UNL     1      -1.569   6.820  13.500  0.00  0.00    +0.008 A 
ATOM     16  C   UNL     1      -1.296   6.238  12.261  0.00  0.00    -0.025 A 
ATOM     17  C   UNL     1      -1.520   4.874  12.073  0.00  0.00    +0.008 A 
ATOM     18  C   UNL     1      -1.998   4.106  13.116  0.00  0.00    +0.001 A 
ENDBRANCH  11  16
ENDBRANCH  10  12
ENDBRANCH   8  10
BRANCH   6  19
ATOM     19  C   UNL     1       0.569   6.892   5.996  0.00  0.00    +0.090 C 
BRANCH  19  20
ATOM     20  C   UNL     1       0.504   5.387   5.952  0.00  0.00    +0.214 C 
ATOM     21  O   UNL     1       1.156   4.729   6.734  0.00  0.00    -0.276 OA
ATOM     22  N   UNL     1      -0.278   4.773   5.042  0.00  0.00    -0.302 N 
ATOM     23  C   UNL     1      -0.351   3.307   4.987  0.00  0.00    +0.106 C 
ATOM     24  C   UNL     1      -0.041   2.851   3.558  0.00  0.00    +0.004 C 
ATOM     25  C   UNL     1      -0.981   3.564   2.583  0.00  0.00    -0.066 C 
ATOM     26  C   UNL     1      -0.755   5.076   2.668  0.00  0.00    +0.004 C 
ATOM     27  C   UNL     1      -1.074   5.557   4.088  0.00  0.00    +0.106 C 
BRANCH  25  33
ATOM     28  C   UNL     1      -1.797   3.479   0.309  0.00  0.00    -0.068 C 
ATOM     29  C   UNL     1      -1.732   2.625  -0.962  0.00  0.00    +0.050 C 
ATOM     30  S   UNL     1      -0.145   2.951  -1.791  0.00  0.00    -0.164 S 
ATOM     31  C   UNL     1       1.061   2.741  -0.445  0.00  0.00    +0.050 C 
ATOM     32  C   UNL     1       0.598   3.579   0.753  0.00  0.00    -0.068 C 
ATOM     33  N   UNL     1      -0.709   3.066   1.224  0.00  0.00    +0.383 N 
ATOM     34  H   UNL     1      -0.671   2.040   1.248  0.00  0.00    -0.081 HD
ENDBRANCH  25  33
ENDBRANCH  19  20
ENDBRANCH   6  19
TORSDOF 6
