REMARK  Name = ZINC07060679
REMARK  3 active torsions:
REMARK  status: ('A' for Active; 'I' for Inactive)
REMARK    1  A    between atoms: C_12  and  C_14
REMARK    2  A    between atoms: C_14  and  S_15
REMARK    3  A    between atoms: S_15  and  C_16
REMARK                            x       y       z     vdW  Elec       q    Type
REMARK                         _______ _______ _______ _____ _____    ______ ____
ROOT
ATOM      1  C   UNL     1      -0.017   1.385   0.010  0.00  0.00    +0.022 A 
ATOM      2  C   UNL     1       1.156   2.107   0.002  0.00  0.00    +0.030 A 
ATOM      3  C   UNL     1       2.381   1.436  -0.013  0.00  0.00    +0.078 A 
ATOM      4  C   UNL     1       2.397   0.023  -0.021  0.00  0.00    +0.066 A 
ATOM      5  C   UNL     1       1.199  -0.689  -0.013  0.00  0.00    +0.035 A 
ATOM      6  C   UNL     1       0.002  -0.004   0.002  0.00  0.00    +0.042 A 
ATOM      7 CL   UNL     1      -1.494  -0.885   0.012  0.00  0.00    -0.084 Cl
ATOM      8  C   UNL     1       3.703  -0.652  -0.037  0.00  0.00    +0.259 A 
ATOM      9  O   UNL     1       3.787  -1.866  -0.045  0.00  0.00    -0.267 OA
ATOM     10  N   UNL     1       4.808   0.129  -0.044  0.00  0.00    -0.310 N 
ATOM     11  H   UNL     1       5.687  -0.281  -0.056  0.00  0.00    +0.170 HD
ATOM     12  C   UNL     1       4.698   1.483  -0.036  0.00  0.00    +0.121 A 
ATOM     13  N   UNL     1       3.559   2.107  -0.021  0.00  0.00    -0.233 NA
ENDROOT
BRANCH  12  14
ATOM     14  C   UNL     1       5.962   2.303  -0.044  0.00  0.00    +0.151 C 
BRANCH  14  15
ATOM     15  S   UNL     1       5.539   4.067  -0.030  0.00  0.00    -0.077 S 
BRANCH  15  16
ATOM     16  C   UNL     1       7.102   4.881  -0.041  0.00  0.00    +0.210 A 
ATOM     17  N   UNL     1       7.289   6.205  -0.031  0.00  0.00    -0.188 NA
ATOM     18  C   UNL     1       8.579   6.470  -0.043  0.00  0.00    +0.209 A 
ATOM     19  N   UNL     1       9.245   5.297  -0.063  0.00  0.00    -0.246 N 
ATOM     20  H   UNL     1      10.207   5.176  -0.075  0.00  0.00    +0.192 HD
ATOM     21  N   UNL     1       8.271   4.286  -0.056  0.00  0.00    -0.144 NA
ATOM     22  N   UNL     1       9.150   7.730  -0.039  0.00  0.00    -0.328 N 
ATOM     23  H   UNL     1       8.585   8.518  -0.024  0.00  0.00    +0.145 HD
ATOM     24  H   UNL     1      10.115   7.824  -0.049  0.00  0.00    +0.145 HD
ENDBRANCH  15  16
ENDBRANCH  14  15
ENDBRANCH  12  14
TORSDOF 3
