REMARK  Name = ZINC00959848
REMARK  7 active torsions:
REMARK  status: ('A' for Active; 'I' for Inactive)
REMARK    1  A    between atoms: C_1  and  O_2
REMARK    2  A    between atoms: O_2  and  C_3
REMARK    3  A    between atoms: C_5  and  C_10
REMARK    4  A    between atoms: C_8  and  O_9
REMARK    5  A    between atoms: C_15  and  S_19
REMARK    6  A    between atoms: S_19  and  C_20
REMARK    7  A    between atoms: C_20  and  C_21
REMARK                            x       y       z     vdW  Elec       q    Type
REMARK                         _______ _______ _______ _____ _____    ______ ____
ROOT
ATOM      1  C   UNL     1       2.462   0.334   4.204  0.00  0.00    +0.093 C 
ATOM      2  C   UNL     1       3.949   0.069   4.204  0.00  0.00    +0.075 A 
ATOM      3  C   UNL     1       4.532  -0.430   5.375  0.00  0.00    +0.165 A 
ATOM      4  N   UNL     1       5.849  -0.664   5.372  0.00  0.00    -0.202 NA
ATOM      5  C   UNL     1       6.572  -0.427   4.288  0.00  0.00    +0.194 A 
ATOM      6  N   UNL     1       6.040   0.046   3.170  0.00  0.00    -0.183 NA
ATOM      7  C   UNL     1       4.734   0.303   3.094  0.00  0.00    +0.280 A 
ATOM      8  O   UNL     1       4.189   0.786   1.950  0.00  0.00    -0.265 OA
ATOM      9  N   UNL     1       3.788  -0.669   6.479  0.00  0.00    -0.232 NA
ATOM     10  C   UNL     1       2.500  -0.475   6.581  0.00  0.00    +0.051 C 
ATOM     11  C   UNL     1       1.742   0.020   5.504  0.00  0.00    +0.028 C 
ATOM     12  C   UNL     1       0.420   0.221   5.598  0.00  0.00    +0.162 C 
ATOM     13  C   UNL     1      -0.330  -0.079   6.869  0.00  0.00    +0.080 C 
ATOM     14  C   UNL     1       0.609   0.111   8.065  0.00  0.00    +0.014 C 
ATOM     15  C   UNL     1       1.816  -0.796   7.890  0.00  0.00    +0.056 C 
ATOM     16  O   UNL     1      -0.253   0.701   4.532  0.00  0.00    -0.292 OA
ENDROOT
BRANCH   1  19
ATOM     17  C   UNL     1       0.626  -0.619   1.042  0.00  0.00    +0.162 A 
ATOM     18  C   UNL     1       1.202   0.137   2.051  0.00  0.00    +0.054 A 
ATOM     19  C   UNL     1       1.836  -0.490   3.108  0.00  0.00    -0.031 A 
ATOM     20  C   UNL     1       1.897  -1.870   3.161  0.00  0.00    +0.008 A 
ATOM     21  C   UNL     1       1.325  -2.630   2.158  0.00  0.00    +0.049 A 
ATOM     22  C   UNL     1       0.683  -2.008   1.099  0.00  0.00    +0.158 A 
BRANCH  17  24
ATOM     23  C   UNL     1      -0.017   1.425   0.010  0.00  0.00    +0.277 C 
ATOM     24  O   UNL     1       0.002  -0.004   0.002  0.00  0.00    -0.491 OA
ENDBRANCH  17  24
BRANCH  22  25
ATOM     25  O   UNL     1       0.115  -2.754   0.114  0.00  0.00    -0.503 OA
ATOM     26  H   UNL     1       0.711  -2.957  -0.620  0.00  0.00    +0.292 HD
ENDBRANCH  22  25
ENDBRANCH   1  19
BRANCH   5  27
ATOM     27  S   UNL     1       8.303  -0.750   4.335  0.00  0.00    -0.081 S 
BRANCH  27  28
ATOM     28  C   UNL     1       8.880  -0.293   2.677  0.00  0.00    +0.115 C 
BRANCH  28  29
ATOM     29  C   UNL     1      10.366  -0.525   2.580  0.00  0.00    -0.002 A 
ATOM     30  C   UNL     1      11.246   0.485   2.918  0.00  0.00    +0.007 A 
ATOM     31  C   UNL     1      12.609   0.273   2.830  0.00  0.00    +0.000 A 
ATOM     32  C   UNL     1      13.093  -0.949   2.402  0.00  0.00    +0.003 A 
ATOM     33  C   UNL     1      12.215  -1.961   2.064  0.00  0.00    +0.038 A 
ATOM     34  C   UNL     1      10.849  -1.751   2.157  0.00  0.00    +0.127 A 
ATOM     35  F   UNL     1       9.989  -2.741   1.831  0.00  0.00    -0.205 F 
ENDBRANCH  28  29
ENDBRANCH  27  28
ENDBRANCH   5  27
TORSDOF 6
