REMARK  Name = ZINC20837785
REMARK  6 active torsions:
REMARK  status: ('A' for Active; 'I' for Inactive)
REMARK    1  A    between atoms: N_6  and  N_7
REMARK    2  A    between atoms: C_10  and  S_13
REMARK    3  A    between atoms: S_13  and  C_14
REMARK    4  A    between atoms: C_14  and  C_15
REMARK    5  A    between atoms: N_17  and  C_18
REMARK    6  A    between atoms: N_17  and  C_24
REMARK                            x       y       z     vdW  Elec       q    Type
REMARK                         _______ _______ _______ _____ _____    ______ ____
ROOT
ATOM      1  S   UNL     1       5.182   2.150  -0.070  0.00  0.00    -0.075 S 
ENDROOT
BRANCH   1   5
ATOM      2  N   UNL     1       0.122   0.912  -0.049  0.00  0.00    -0.205 N 
ATOM      3  C   UNL     1       1.286   1.668  -0.038  0.00  0.00    +0.232 A 
ATOM      4  N   UNL     1       2.562   1.179  -0.069  0.00  0.00    -0.186 NA
ATOM      5  C   UNL     1       3.422   2.241  -0.046  0.00  0.00    +0.211 A 
ATOM      6  N   UNL     1       2.708   3.340  -0.003  0.00  0.00    -0.144 NA
ATOM      7  N   UNL     1       1.355   2.977  -0.004  0.00  0.00    -0.245 N 
ATOM      8  H   UNL     1       0.180  -0.186  -0.079  0.00  0.00    +0.177 HD
ATOM      9  H   UNL     1       0.432   3.575   0.018  0.00  0.00    +0.192 HD
BRANCH   2  15
ATOM     10  C   UNL     1      -4.484  -1.480  -0.268  0.00  0.00    +0.000 C 
ATOM     11  C   UNL     1      -5.255  -0.253  -0.479  0.00  0.00    +0.000 C 
ATOM     12  C   UNL     1      -4.451   0.835  -1.205  0.00  0.00    +0.006 C 
ATOM     13  C   UNL     1      -3.554   1.547  -0.228  0.00  0.00    +0.052 C 
ATOM     14  C   UNL     1      -2.199   0.855  -0.121  0.00  0.00    +0.037 C 
ATOM     15  N   UNL     1      -1.126   1.547  -0.020  0.00  0.00    -0.189 NA
ATOM     16  C   UNL     1      -2.133  -0.669  -0.143  0.00  0.00    +0.052 C 
ATOM     17  C   UNL     1      -3.270  -1.267   0.648  0.00  0.00    +0.006 C 
ENDBRANCH   2  15
ENDBRANCH   1   5
BRANCH   1  18
ATOM     18  C   UNL     1       5.712   3.884  -0.022  0.00  0.00    +0.173 C 
BRANCH  18  19
ATOM     19  C   UNL     1       7.217   3.950  -0.038  0.00  0.00    +0.226 C 
ATOM     20  O   UNL     1       7.867   2.934  -0.167  0.00  0.00    -0.275 OA
ATOM     21  N   UNL     1       7.841   5.137   0.090  0.00  0.00    -0.295 N 
BRANCH  21  22
ATOM     22  C   UNL     1       7.062   6.350   0.351  0.00  0.00    +0.076 C 
ATOM     23  C   UNL     1       7.377   7.398  -0.718  0.00  0.00    +0.022 C 
ATOM     24  C   UNL     1       6.563   8.665  -0.445  0.00  0.00    +0.002 C 
ATOM     25  C   UNL     1       6.926   9.218   0.934  0.00  0.00    +0.000 C 
ATOM     26  C   UNL     1       6.611   8.169   2.003  0.00  0.00    +0.002 C 
ATOM     27  C   UNL     1       7.425   6.903   1.731  0.00  0.00    +0.022 C 
ENDBRANCH  21  22
BRANCH  21  28
ATOM     28  C   UNL     1       9.299   5.215  -0.031  0.00  0.00    +0.076 C 
ATOM     29  C   UNL     1       9.723   4.723  -1.416  0.00  0.00    +0.022 C 
ATOM     30  C   UNL     1      11.246   4.805  -1.542  0.00  0.00    +0.002 C 
ATOM     31  C   UNL     1      11.894   3.928  -0.469  0.00  0.00    +0.000 C 
ATOM     32  C   UNL     1      11.470   4.420   0.916  0.00  0.00    +0.002 C 
ATOM     33  C   UNL     1       9.948   4.339   1.043  0.00  0.00    +0.022 C 
ENDBRANCH  21  28
ENDBRANCH  18  19
ENDBRANCH   1  18
TORSDOF 6
