REMARK  Name = ZINC48544160
REMARK  3 active torsions:
REMARK  status: ('A' for Active; 'I' for Inactive)
REMARK    1  A    between atoms: C_3  and  N_17
REMARK    2  A    between atoms: C_6  and  N_7
REMARK    3  A    between atoms: C_10  and  C_13
REMARK                            x       y       z     vdW  Elec       q    Type
REMARK                         _______ _______ _______ _____ _____    ______ ____
ROOT
ATOM      1  N   UNL     1      -1.197  -0.720   0.010  0.00  0.00    -0.330 N 
ATOM      2  C   UNL     1      -2.485  -0.023   0.131  0.00  0.00    +0.106 C 
ATOM      3  C   UNL     1      -3.390  -0.455  -1.027  0.00  0.00    +0.031 C 
ATOM      4  C   UNL     1      -3.500  -1.981  -1.041  0.00  0.00    +0.078 C 
ATOM      5  C   UNL     1      -2.114  -2.593  -1.257  0.00  0.00    +0.031 C 
ATOM      6  C   UNL     1      -1.195  -2.185  -0.108  0.00  0.00    +0.106 C 
ENDROOT
BRANCH   1  12
ATOM      7  C   UNL     1       1.216  -0.679   0.003  0.00  0.00    +0.025 A 
ATOM      8  C   UNL     1       2.400   0.032  -0.006  0.00  0.00    +0.035 A 
ATOM      9  C   UNL     1       2.378   1.414  -0.014  0.00  0.00    +0.139 A 
ATOM     10  C   UNL     1       1.171   2.090  -0.015  0.00  0.00    +0.045 A 
ATOM     11  C   UNL     1      -0.017   1.385  -0.007  0.00  0.00    +0.039 A 
ATOM     12  C   UNL     1       0.002  -0.004   0.002  0.00  0.00    +0.031 A 
ATOM     13  I   UNL     1       1.144   4.185  -0.028  0.00  0.00    -0.041 I 
BRANCH   9  14
ATOM     14  N   UNL     1       3.649   2.173  -0.022  0.00  0.00    +0.057 N 
ATOM     15  O   UNL     1       4.705   1.584  -0.021  0.00  0.00    -0.126 OA
ATOM     16  O   UNL     1       3.632   3.382  -0.030  0.00  0.00    -0.126 OA
ENDBRANCH   9  14
ENDBRANCH   1  12
BRANCH   4  17
ATOM     17  C   UNL     1      -4.417  -2.408  -2.159  0.00  0.00    +0.214 C 
ATOM     18  O   UNL     1      -4.931  -1.574  -2.873  0.00  0.00    -0.276 OA
ATOM     19  N   UNL     1      -4.666  -3.717  -2.364  0.00  0.00    -0.329 N 
ATOM     20  H   UNL     1      -4.254  -4.384  -1.792  0.00  0.00    +0.145 HD
ATOM     21  H   UNL     1      -5.256  -3.992  -3.083  0.00  0.00    +0.145 HD
ENDBRANCH   4  17
TORSDOF 3
