REMARK  Name = ZINC20100995
REMARK  9 active torsions:
REMARK  status: ('A' for Active; 'I' for Inactive)
REMARK    1  A    between atoms: C_1  and  C_2
REMARK    2  A    between atoms: C_2  and  O_3
REMARK    3  A    between atoms: O_3  and  C_4
REMARK    4  A    between atoms: C_7  and  C_10
REMARK    5  A    between atoms: C_11  and  C_30
REMARK    6  A    between atoms: C_12  and  N_29
REMARK    7  A    between atoms: C_16  and  N_28
REMARK    8  A    between atoms: C_17  and  C_19
REMARK    9  A    between atoms: C_19  and  C_21
REMARK                            x       y       z     vdW  Elec       q    Type
REMARK                         _______ _______ _______ _____ _____    ______ ____
ROOT
ATOM      1  C   UNL     1       1.284   2.635  -1.544  0.00  0.00    +0.014 A 
ATOM      2  C   UNL     1       0.068   1.992  -1.812  0.00  0.00    +0.100 A 
ATOM      3  C   UNL     1      -1.143   2.698  -1.665  0.00  0.00    +0.136 A 
ATOM      4  N   UNL     1      -1.133   3.959  -1.265  0.00  0.00    -0.224 NA
ATOM      5  C   UNL     1      -0.012   4.599  -1.003  0.00  0.00    +0.113 A 
ATOM      6  C   UNL     1       1.262   3.997  -1.120  0.00  0.00    +0.038 A 
ATOM      7  C   UNL     1       2.385   4.856  -0.790  0.00  0.00    +0.053 A 
ATOM      8  C   UNL     1       2.122   6.157  -0.398  0.00  0.00    +0.083 A 
ATOM      9  S   UNL     1       0.344   6.255  -0.466  0.00  0.00    -0.063 S 
ENDROOT
BRANCH   1  13
ATOM     10  C   UNL     1       4.968   0.565  -1.985  0.00  0.00    +0.121 A 
ATOM     11  C   UNL     1       4.219   0.892  -3.108  0.00  0.00    +0.046 A 
ATOM     12  C   UNL     1       3.024   1.563  -2.969  0.00  0.00    +0.012 A 
ATOM     13  C   UNL     1       2.566   1.915  -1.698  0.00  0.00    -0.016 A 
ATOM     14  C   UNL     1       3.325   1.590  -0.571  0.00  0.00    +0.012 A 
ATOM     15  C   UNL     1       4.517   0.913  -0.718  0.00  0.00    +0.046 A 
BRANCH  10  16
ATOM     16  O   UNL     1       6.146  -0.097  -2.126  0.00  0.00    -0.492 OA
BRANCH  16  18
ATOM     17  C   UNL     1       8.156  -1.143  -1.286  0.00  0.00    +0.048 C 
ATOM     18  C   UNL     1       6.866  -0.402  -0.929  0.00  0.00    +0.225 C 
ENDBRANCH  16  18
ENDBRANCH  10  16
ENDBRANCH   1  13
BRANCH   7  19
ATOM     19  N   UNL     1       3.686   4.385  -0.864  0.00  0.00    -0.356 N 
ATOM     20  H   UNL     1       4.526   5.048  -0.610  0.00  0.00    +0.142 HD
ATOM     21  H   UNL     1       3.879   3.348  -1.177  0.00  0.00    +0.142 HD
ENDBRANCH   7  19
BRANCH   3  22
ATOM     22  N   UNL     1      -2.344   2.069  -1.935  0.00  0.00    -0.342 N 
ATOM     23  H   UNL     1      -3.290   2.618  -1.820  0.00  0.00    +0.144 HD
ATOM     24  H   UNL     1      -2.353   1.019  -2.263  0.00  0.00    +0.144 HD
ENDBRANCH   3  22
BRANCH   8  25
ATOM     25  C   UNL     1       3.042   7.164  -0.032  0.00  0.00    +0.202 C 
ATOM     26  O   UNL     1       4.226   6.897   0.077  0.00  0.00    -0.286 OA
BRANCH  25  27
ATOM     27  C   UNL     1       2.567   8.542   0.218  0.00  0.00    +0.023 A 
ATOM     28  C   UNL     1       1.386   8.995  -0.371  0.00  0.00    +0.013 A 
ATOM     29  C   UNL     1       0.946  10.279  -0.128  0.00  0.00    +0.016 A 
ATOM     30  C   UNL     1       1.680  11.123   0.688  0.00  0.00    +0.018 A 
ATOM     31  C   UNL     1       2.856  10.682   1.271  0.00  0.00    +0.016 A 
ATOM     32  C   UNL     1       3.303   9.398   1.041  0.00  0.00    +0.013 A 
ATOM     33 BR   UNL     1       1.074  12.886   1.008  0.00  0.00    -0.050 Br
ENDBRANCH  25  27
ENDBRANCH   8  25
BRANCH   2  34
ATOM     34  C   UNL     1       0.056   0.625  -2.239  0.00  0.00    +0.103 C 
ATOM     35  N   UNL     1       0.046  -0.459  -2.578  0.00  0.00    -0.191 NA
ENDBRANCH   2  34
TORSDOF 8
