REMARK  Name = ZINC05642598
REMARK  9 active torsions:
REMARK  status: ('A' for Active; 'I' for Inactive)
REMARK    1  A    between atoms: C_1  and  C_2
REMARK    2  A    between atoms: C_2  and  C_3
REMARK    3  A    between atoms: C_3  and  C_4
REMARK    4  A    between atoms: C_3  and  N_6
REMARK    5  A    between atoms: C_4  and  C_5
REMARK    6  A    between atoms: C_9  and  O_11
REMARK    7  A    between atoms: C_12  and  C_19
REMARK    8  A    between atoms: C_16  and  O_18
REMARK    9  A    between atoms: C_22  and  C_25
REMARK                            x       y       z     vdW  Elec       q    Type
REMARK                         _______ _______ _______ _____ _____    ______ ____
ROOT
ATOM      1  N   UNL     1       0.528  -2.028  -1.354  0.00  0.00    -0.240 N 
ATOM      2  C   UNL     1      -0.077  -2.652  -2.426  0.00  0.00    +0.163 A 
ATOM      3  C   UNL     1      -0.067  -3.994  -2.156  0.00  0.00    +0.076 A 
ATOM      4  C   UNL     1       0.563  -4.174  -0.906  0.00  0.00    +0.238 A 
ATOM      5  N   UNL     1       0.917  -3.007  -0.440  0.00  0.00    -0.131 NA
ATOM      6  C   UNL     1      -0.603  -5.139  -2.960  0.00  0.00    +0.115 C 
ATOM      7  S   UNL     1      -0.473  -4.866  -4.731  0.00  0.00    -0.138 S 
ATOM      8  C   UNL     1      -1.583  -3.500  -5.099  0.00  0.00    +0.165 C 
ATOM      9  C   UNL     1      -1.112  -2.207  -4.559  0.00  0.00    +0.199 C 
ATOM     10  N   UNL     1      -0.537  -1.951  -3.476  0.00  0.00    -0.197 NA
ENDROOT
BRANCH   6  11
ATOM     11  C   UNL     1       0.167  -6.385  -2.605  0.00  0.00    -0.030 A 
ATOM     12  C   UNL     1       1.534  -6.432  -2.801  0.00  0.00    +0.005 A 
ATOM     13  C   UNL     1       2.240  -7.575  -2.475  0.00  0.00    +0.003 A 
ATOM     14  C   UNL     1       1.579  -8.671  -1.953  0.00  0.00    -0.050 A 
ATOM     15  C   UNL     1       0.211  -8.623  -1.756  0.00  0.00    +0.003 A 
ATOM     16  C   UNL     1      -0.494  -7.479  -2.078  0.00  0.00    +0.005 A 
ATOM     17  C   UNL     1       2.348  -9.917  -1.599  0.00  0.00    +0.044 C 
ENDBRANCH   6  11
BRANCH   4  18
ATOM     18  O   UNL     1       0.771  -5.369  -0.290  0.00  0.00    -0.491 OA
ATOM     19  H   UNL     1       1.613  -5.786  -0.516  0.00  0.00    +0.294 HD
ENDBRANCH   4  18
BRANCH   9  20
ATOM     20  O   UNL     1      -1.335  -1.141  -5.353  0.00  0.00    -0.495 OA
ATOM     21  H   UNL     1      -1.022  -0.303  -4.985  0.00  0.00    +0.293 HD
ENDBRANCH   9  20
BRANCH   1  22
ATOM     22  C   UNL     1       0.733  -0.585  -1.205  0.00  0.00    +0.109 C 
BRANCH  22  24
ATOM     23  C   UNL     1      -1.492  -0.264  -0.114  0.00  0.00    +0.006 C 
ATOM     24  C   UNL     1       0.020  -0.097   0.057  0.00  0.00    +0.023 C 
ENDBRANCH  22  24
BRANCH  22  25
ATOM     25  C   UNL     1       2.230  -0.292  -1.091  0.00  0.00    +0.023 C 
ATOM     26  C   UNL     1       2.926  -0.671  -2.399  0.00  0.00    +0.006 C 
ENDBRANCH  22  25
ENDBRANCH   1  22
TORSDOF 6
