REMARK  Name = ZINC39656868
REMARK  8 active torsions:
REMARK  status: ('A' for Active; 'I' for Inactive)
REMARK    1  A    between atoms: C_1  and  C_2
REMARK    2  A    between atoms: C_2  and  O_3
REMARK    3  A    between atoms: O_3  and  C_4
REMARK    4  A    between atoms: C_7  and  C_10
REMARK    5  A    between atoms: C_14  and  C_23
REMARK    6  A    between atoms: N_25  and  C_26
REMARK    7  A    between atoms: C_26  and  C_28
REMARK    8  A    between atoms: C_26  and  C_29
REMARK                            x       y       z     vdW  Elec       q    Type
REMARK                         _______ _______ _______ _____ _____    ______ ____
ROOT
ATOM      1  C   UNL     1       1.108  -6.009  -1.843  0.00  0.00    +0.247 C 
ATOM      2  O   UNL     1       0.737  -6.758  -0.961  0.00  0.00    -0.270 OA
ATOM      3  N   UNL     1       1.641  -6.512  -2.975  0.00  0.00    -0.296 N 
ATOM      4  C   UNL     1       2.261  -5.767  -4.096  0.00  0.00    +0.121 C 
ATOM      5  C   UNL     1       3.471  -6.630  -4.516  0.00  0.00    +0.100 C 
ATOM      6  C   UNL     1       3.122  -8.052  -4.044  0.00  0.00    -0.004 C 
ATOM      7  C   UNL     1       1.745  -7.935  -3.376  0.00  0.00    +0.115 C 
ATOM      8  C   UNL     1       4.153  -8.541  -3.032  0.00  0.00    -0.010 C 
ATOM      9  C   UNL     1       3.817  -9.977  -2.621  0.00  0.00    -0.082 C 
ATOM     10  N   UNL     1       3.819 -10.841  -3.808  0.00  0.00    +0.379 N 
ATOM     11  C   UNL     1       2.762 -10.420  -4.735  0.00  0.00    -0.082 C 
ATOM     12  C   UNL     1       3.053  -9.002  -5.236  0.00  0.00    -0.010 C 
ATOM     13  H   UNL     1       4.714 -10.775  -4.269  0.00  0.00    -0.086 HD
ATOM     14  H   UNL     1       3.657 -11.796  -3.527  0.00  0.00    -0.086 HD
ENDROOT
BRANCH   1  18
ATOM     15  C   UNL     1       0.725  -1.807  -1.361  0.00  0.00    +0.121 A 
ATOM     16  C   UNL     1       0.775  -2.357  -2.637  0.00  0.00    +0.046 A 
ATOM     17  C   UNL     1       0.899  -3.719  -2.797  0.00  0.00    +0.016 A 
ATOM     18  C   UNL     1       0.975  -4.549  -1.676  0.00  0.00    +0.037 A 
ATOM     19  C   UNL     1       0.925  -3.992  -0.395  0.00  0.00    +0.016 A 
ATOM     20  C   UNL     1       0.806  -2.629  -0.243  0.00  0.00    +0.046 A 
BRANCH  15  21
ATOM     21  O   UNL     1       0.603  -0.465  -1.207  0.00  0.00    -0.492 OA
BRANCH  21  23
ATOM     22  C   UNL     1       0.391   1.799  -2.026  0.00  0.00    +0.048 C 
ATOM     23  C   UNL     1       0.524   0.321  -2.398  0.00  0.00    +0.225 C 
ENDBRANCH  21  23
ENDBRANCH  15  21
ENDBRANCH   1  18
BRANCH   5  24
ATOM     24  C   UNL     1       3.644  -6.599  -6.013  0.00  0.00    +0.219 C 
ATOM     25  O   UNL     1       2.692  -6.367  -6.728  0.00  0.00    -0.275 OA
ATOM     26  N   UNL     1       4.855  -6.830  -6.557  0.00  0.00    -0.308 N 
ATOM     27  H   UNL     1       5.616  -7.015  -5.985  0.00  0.00    +0.149 HD
BRANCH  26  28
ATOM     28  C   UNL     1       5.023  -6.799  -8.012  0.00  0.00    +0.100 C 
ATOM     29  C   UNL     1       5.254  -5.358  -8.469  0.00  0.00    +0.033 C 
BRANCH  28  30
ATOM     30  C   UNL     1       6.208  -7.646  -8.399  0.00  0.00    -0.027 A 
ATOM     31  C   UNL     1       7.353  -7.626  -7.624  0.00  0.00    +0.006 A 
ATOM     32  C   UNL     1       8.441  -8.402  -7.978  0.00  0.00    +0.015 A 
ATOM     33  C   UNL     1       8.383  -9.199  -9.108  0.00  0.00    +0.018 A 
ATOM     34  C   UNL     1       7.237  -9.218  -9.883  0.00  0.00    +0.015 A 
ATOM     35  C   UNL     1       6.148  -8.445  -9.525  0.00  0.00    +0.006 A 
ATOM     36 BR   UNL     1       9.871 -10.260  -9.593  0.00  0.00    -0.050 Br
ENDBRANCH  28  30
ENDBRANCH  26  28
ENDBRANCH   5  24
TORSDOF 6
