REMARK  Name = ZINC01306579
REMARK  10 active torsions:
REMARK  status: ('A' for Active; 'I' for Inactive)
REMARK    1  A    between atoms: C_1  and  C_2
REMARK    2  A    between atoms: N_5  and  C_7
REMARK    3  A    between atoms: C_14  and  N_37
REMARK    4  A    between atoms: C_15  and  C_35
REMARK    5  A    between atoms: C_16  and  C_18
REMARK    6  A    between atoms: C_21  and  O_26
REMARK    7  A    between atoms: C_22  and  O_24
REMARK    8  A    between atoms: O_24  and  C_25
REMARK    9  A    between atoms: O_26  and  C_27
REMARK   10  A    between atoms: C_27  and  C_28
REMARK                            x       y       z     vdW  Elec       q    Type
REMARK                         _______ _______ _______ _____ _____    ______ ____
ROOT
ATOM      1  C   UNL     1       2.433   0.217  -1.908  0.00  0.00    +0.068 C 
ATOM      2  C   UNL     1       2.465   1.256  -0.817  0.00  0.00    +0.068 A 
ATOM      3  C   UNL     1       1.399   1.613  -0.003  0.00  0.00    +0.050 A 
ATOM      4  C   UNL     1       1.829   2.585   0.858  0.00  0.00    +0.230 A 
ATOM      5  N   UNL     1       3.130   2.825   0.582  0.00  0.00    -0.200 N 
ATOM      6  N   UNL     1       3.506   1.977  -0.472  0.00  0.00    -0.168 NA
ATOM      7  O   UNL     1       1.022   3.149   1.790  0.00  0.00    -0.423 OA
ATOM      8  C   UNL     1      -0.155   2.542   2.045  0.00  0.00    +0.200 C 
ATOM      9  C   UNL     1      -0.690   1.579   1.262  0.00  0.00    +0.098 C 
ATOM     10  C   UNL     1      -0.013   1.086   0.008  0.00  0.00    +0.101 C 
ENDROOT
BRANCH   5  11
ATOM     11  C   UNL     1       3.955   3.752   1.232  0.00  0.00    +0.069 A 
ATOM     12  C   UNL     1       3.431   4.958   1.677  0.00  0.00    +0.028 A 
ATOM     13  C   UNL     1       4.245   5.868   2.322  0.00  0.00    +0.002 A 
ATOM     14  C   UNL     1       5.585   5.583   2.515  0.00  0.00    +0.000 A 
ATOM     15  C   UNL     1       6.111   4.385   2.068  0.00  0.00    +0.002 A 
ATOM     16  C   UNL     1       5.300   3.469   1.427  0.00  0.00    +0.028 A 
ENDBRANCH   5  11
BRANCH  10  17
ATOM     17  C   UNL     1      -0.753   1.591  -1.203  0.00  0.00    -0.031 A 
ATOM     18  C   UNL     1      -0.904   2.951  -1.403  0.00  0.00    +0.008 A 
ATOM     19  C   UNL     1      -1.577   3.419  -2.515  0.00  0.00    +0.050 A 
ATOM     20  C   UNL     1      -2.114   2.525  -3.428  0.00  0.00    +0.162 A 
ATOM     21  C   UNL     1      -1.968   1.156  -3.224  0.00  0.00    +0.162 A 
ATOM     22  C   UNL     1      -1.286   0.693  -2.110  0.00  0.00    +0.054 A 
BRANCH  21  23
ATOM     23  O   UNL     1      -2.492   0.274  -4.117  0.00  0.00    -0.491 OA
ATOM     24  C   UNL     1      -2.303  -1.115  -3.844  0.00  0.00    +0.277 C 
ENDBRANCH  21  23
BRANCH  20  25
ATOM     25  O   UNL     1      -2.782   2.984  -4.519  0.00  0.00    -0.484 OA
BRANCH  25  26
ATOM     26  C   UNL     1      -2.893   4.401  -4.664  0.00  0.00    +0.266 C 
BRANCH  26  27
ATOM     27  C   UNL     1      -3.660   4.720  -5.921  0.00  0.00    +0.008 A 
ATOM     28  C   UNL     1      -4.123   3.696  -6.727  0.00  0.00    +0.008 A 
ATOM     29  C   UNL     1      -4.830   3.988  -7.878  0.00  0.00    +0.000 A 
ATOM     30  C   UNL     1      -5.066   5.304  -8.230  0.00  0.00    +0.001 A 
ATOM     31  C   UNL     1      -4.598   6.328  -7.429  0.00  0.00    +0.020 A 
ATOM     32  C   UNL     1      -3.895   6.037  -6.274  0.00  0.00    +0.047 A 
ATOM     33 CL   UNL     1      -3.307   7.323  -5.267  0.00  0.00    -0.083 Cl
ENDBRANCH  26  27
ENDBRANCH  25  26
ENDBRANCH  20  25
ENDBRANCH  10  17
BRANCH   8  34
ATOM     34  N   UNL     1      -0.851   2.926   3.164  0.00  0.00    -0.328 N 
ATOM     35  H   UNL     1      -0.494   3.616   3.745  0.00  0.00    +0.145 HD
ATOM     36  H   UNL     1      -1.701   2.508   3.374  0.00  0.00    +0.145 HD
ENDBRANCH   8  34
BRANCH   9  37
ATOM     37  C   UNL     1      -1.947   1.004   1.638  0.00  0.00    +0.101 C 
ATOM     38  N   UNL     1      -2.944   0.548   1.936  0.00  0.00    -0.191 NA
ENDBRANCH   9  37
TORSDOF 8
