REMARK  Name = ZINC14327391
REMARK  6 active torsions:
REMARK  status: ('A' for Active; 'I' for Inactive)
REMARK    1  A    between atoms: C_4  and  C_7
REMARK    2  A    between atoms: C_7  and  C_9
REMARK    3  A    between atoms: C_14  and  C_15
REMARK    4  A    between atoms: N_17  and  N_18
REMARK    5  A    between atoms: C_19  and  C_21
REMARK    6  A    between atoms: C_21  and  C_22
REMARK                            x       y       z     vdW  Elec       q    Type
REMARK                         _______ _______ _______ _____ _____    ______ ____
ROOT
ATOM      1  C   UNL     1       6.316  -1.914   0.011  0.00  0.00    +0.261 C 
ATOM      2  O   UNL     1       6.216  -0.709   0.136  0.00  0.00    -0.269 OA
ATOM      3  N   UNL     1       7.534  -2.484  -0.068  0.00  0.00    -0.230 N 
ATOM      4  H   UNL     1       7.614  -3.446  -0.168  0.00  0.00    +0.173 HD
ENDROOT
BRANCH   1  10
ATOM      5  C   UNL     1       3.825  -2.156  -0.054  0.00  0.00    +0.034 A 
ATOM      6  C   UNL     1       2.689  -2.959  -0.121  0.00  0.00    +0.012 A 
ATOM      7  C   UNL     1       2.817  -4.334  -0.181  0.00  0.00    +0.001 A 
ATOM      8  C   UNL     1       4.070  -4.921  -0.175  0.00  0.00    +0.001 A 
ATOM      9  C   UNL     1       5.209  -4.140  -0.109  0.00  0.00    +0.014 A 
ATOM     10  C   UNL     1       5.100  -2.754  -0.054  0.00  0.00    +0.049 A 
BRANCH   5  11
ATOM     11  C   UNL     1       3.694  -0.685   0.011  0.00  0.00    +0.194 C 
ATOM     12  O   UNL     1       3.423  -0.054  -0.992  0.00  0.00    -0.287 OA
BRANCH  11  16
ATOM     13  C   UNL     1       4.262   1.338   3.702  0.00  0.00    +0.000 A 
ATOM     14  C   UNL     1       4.064   2.065   2.541  0.00  0.00    +0.001 A 
ATOM     15  C   UNL     1       3.880   1.415   1.339  0.00  0.00    +0.012 A 
ATOM     16  C   UNL     1       3.892   0.019   1.295  0.00  0.00    +0.022 A 
ATOM     17  C   UNL     1       4.091  -0.709   2.470  0.00  0.00    +0.012 A 
ATOM     18  C   UNL     1       4.275  -0.046   3.665  0.00  0.00    +0.001 A 
ENDBRANCH  11  16
ENDBRANCH   5  11
ENDBRANCH   1  10
BRANCH   3  19
ATOM     19  N   UNL     1       8.686  -1.688  -0.007  0.00  0.00    -0.234 N 
ATOM     20  C   UNL     1       9.904  -2.259  -0.087  0.00  0.00    +0.233 C 
ATOM     21  O   UNL     1      10.004  -3.461  -0.211  0.00  0.00    -0.274 OA
ATOM     22  H   UNL     1       8.606  -0.727   0.092  0.00  0.00    +0.173 HD
BRANCH  20  23
ATOM     23  C   UNL     1      11.143  -1.403  -0.021  0.00  0.00    +0.134 C 
BRANCH  23  24
ATOM     24  C   UNL     1      12.365  -2.279  -0.131  0.00  0.00    -0.014 A 
ATOM     25  C   UNL     1      13.082  -2.780   0.886  0.00  0.00    +0.087 A 
ATOM     26  N   UNL     1      14.120  -3.528   0.401  0.00  0.00    -0.360 N 
ATOM     27  H   UNL     1      14.776  -3.991   0.946  0.00  0.00    +0.165 HD
ATOM     28  C   UNL     1      14.095  -3.526  -0.976  0.00  0.00    +0.047 A 
ATOM     29  C   UNL     1      12.991  -2.748  -1.369  0.00  0.00    +0.003 A 
ATOM     30  C   UNL     1      12.711  -2.572  -2.726  0.00  0.00    +0.010 A 
ATOM     31  C   UNL     1      13.511  -3.160  -3.665  0.00  0.00    +0.001 A 
ATOM     32  C   UNL     1      14.599  -3.932  -3.282  0.00  0.00    +0.002 A 
ATOM     33  C   UNL     1      14.899  -4.111  -1.949  0.00  0.00    +0.026 A 
ENDBRANCH  23  24
ENDBRANCH  20  23
ENDBRANCH   3  19
TORSDOF 6
