REMARK  Name = ZINC28054044
REMARK  4 active torsions:
REMARK  status: ('A' for Active; 'I' for Inactive)
REMARK    1  A    between atoms: C_1  and  C_2
REMARK    2  A    between atoms: C_5  and  C_8
REMARK    3  A    between atoms: C_14  and  C_28
REMARK    4  A    between atoms: C_19  and  C_21
REMARK                            x       y       z     vdW  Elec       q    Type
REMARK                         _______ _______ _______ _____ _____    ______ ____
ROOT
ATOM      1  C   UNL     1       0.789   7.194  -0.232  0.00  0.00    +0.174 C 
ATOM      2  C   UNL     1       0.962   5.695  -0.248  0.00  0.00    +0.025 C 
ATOM      3  C   UNL     1      -0.011   4.859   0.122  0.00  0.00    +0.050 C 
ATOM      4  C   UNL     1       0.261   3.402   0.093  0.00  0.00    +0.038 A 
ATOM      5  C   UNL     1      -0.768   2.470   0.132  0.00  0.00    +0.016 A 
ATOM      6  C   UNL     1      -0.467   1.122   0.101  0.00  0.00    -0.050 A 
ATOM      7  C   UNL     1       0.850   0.701   0.041  0.00  0.00    +0.007 A 
ATOM      8  C   UNL     1       1.881   1.623  -0.000  0.00  0.00    +0.046 A 
ATOM      9  C   UNL     1       1.594   2.975   0.025  0.00  0.00    +0.131 A 
ATOM     10  O   UNL     1       2.576   3.911  -0.016  0.00  0.00    -0.479 OA
ATOM     11  C   UNL     1       2.286   5.127  -0.706  0.00  0.00    +0.234 C 
ATOM     12  C   UNL     1      -1.578   0.104   0.137  0.00  0.00    +0.044 C 
ATOM     13  N   UNL     1      -1.264   5.314   0.550  0.00  0.00    -0.282 N 
ATOM     14  C   UNL     1      -1.382   6.660   0.853  0.00  0.00    +0.240 A 
ATOM     15  N   UNL     1      -0.420   7.552   0.496  0.00  0.00    -0.201 N 
ATOM     16  N   UNL     1      -0.863   8.786   0.970  0.00  0.00    -0.042 NA
ATOM     17  N   UNL     1      -2.003   8.572   1.544  0.00  0.00    -0.021 NA
ATOM     18  N   UNL     1      -2.313   7.323   1.476  0.00  0.00    -0.092 NA
ATOM     19  H   UNL     1      -2.106   4.610   0.633  0.00  0.00    +0.155 HD
ENDROOT
BRANCH   1  24
ATOM     20  C   UNL     1       0.397   9.133  -5.662  0.00  0.00    +0.044 C 
ATOM     21  C   UNL     1       0.499   8.627  -4.246  0.00  0.00    -0.050 A 
ATOM     22  C   UNL     1       1.517   9.074  -3.424  0.00  0.00    +0.004 A 
ATOM     23  C   UNL     1       1.611   8.610  -2.125  0.00  0.00    +0.006 A 
ATOM     24  C   UNL     1       0.686   7.699  -1.648  0.00  0.00    -0.019 A 
ATOM     25  C   UNL     1      -0.328   7.248  -2.472  0.00  0.00    +0.006 A 
ATOM     26  C   UNL     1      -0.424   7.716  -3.769  0.00  0.00    +0.004 A 
ENDBRANCH   1  24
BRANCH  11  27
ATOM     27  C   UNL     1       2.224   4.855  -2.187  0.00  0.00    -0.000 A 
ATOM     28  C   UNL     1       1.516   3.765  -2.661  0.00  0.00    +0.008 A 
ATOM     29  C   UNL     1       1.455   3.518  -4.020  0.00  0.00    +0.003 A 
ATOM     30  C   UNL     1       2.110   4.353  -4.905  0.00  0.00    +0.038 A 
ATOM     31  C   UNL     1       2.823   5.441  -4.432  0.00  0.00    +0.124 A 
ATOM     32  C   UNL     1       2.880   5.691  -3.071  0.00  0.00    +0.046 A 
ATOM     33  F   UNL     1       3.464   6.257  -5.296  0.00  0.00    -0.205 F 
ENDBRANCH  11  27
TORSDOF 2
