REMARK  Name = ZINC44881143
REMARK  4 active torsions:
REMARK  status: ('A' for Active; 'I' for Inactive)
REMARK    1  A    between atoms: C_1  and  C_2
REMARK    2  A    between atoms: C_7  and  S_9
REMARK    3  A    between atoms: S_9  and  C_10
REMARK    4  A    between atoms: C_10  and  C_11
REMARK                            x       y       z     vdW  Elec       q    Type
REMARK                         _______ _______ _______ _____ _____    ______ ____
ROOT
ATOM      1  S   UNL     1       0.211   2.566  -4.886  0.00  0.00    -0.078 S 
ENDROOT
BRANCH   1   8
ATOM      2  C   UNL     1      -0.013   1.086   0.008  0.00  0.00    +0.066 C 
ATOM      3  C   UNL     1      -0.742   1.585  -1.213  0.00  0.00    +0.046 A 
ATOM      4  C   UNL     1      -2.106   1.799  -1.173  0.00  0.00    +0.095 A 
ATOM      5  C   UNL     1      -2.742   2.262  -2.325  0.00  0.00    +0.274 A 
ATOM      6  O   UNL     1      -4.078   2.486  -2.329  0.00  0.00    -0.266 OA
ATOM      7  N   UNL     1      -2.019   2.481  -3.416  0.00  0.00    -0.183 NA
ATOM      8  C   UNL     1      -0.712   2.263  -3.415  0.00  0.00    +0.192 A 
ATOM      9  N   UNL     1      -0.080   1.829  -2.334  0.00  0.00    -0.227 NA
ENDBRANCH   1   8
BRANCH   1  10
ATOM     10  C   UNL     1      -1.034   3.142  -6.074  0.00  0.00    +0.146 C 
BRANCH  10  11
ATOM     11  C   UNL     1      -0.369   3.440  -7.393  0.00  0.00    +0.078 C 
ATOM     12  N   UNL     1       0.920   3.280  -7.584  0.00  0.00    -0.374 N 
ATOM     13  C   UNL     1       1.256   3.655  -8.967  0.00  0.00    +0.132 C 
ATOM     14  C   UNL     1      -0.106   4.072  -9.560  0.00  0.00    +0.123 C 
ATOM     15  N   UNL     1      -1.036   3.875  -8.436  0.00  0.00    -0.332 N 
ATOM     16  H   UNL     1      -1.991   4.041  -8.461  0.00  0.00    +0.147 HD
ATOM     17  H   UNL     1       1.551   2.965  -6.919  0.00  0.00    +0.161 HD
ENDBRANCH  10  11
ENDBRANCH   1  10
TORSDOF 3
