REMARK  Name = ZINC25511503
REMARK  7 active torsions:
REMARK  status: ('A' for Active; 'I' for Inactive)
REMARK    1  A    between atoms: C_1  and  C_2
REMARK    2  A    between atoms: N_4  and  C_5
REMARK    3  A    between atoms: C_7  and  N_12
REMARK    4  A    between atoms: C_13  and  C_15
REMARK    5  A    between atoms: C_15  and  N_16
REMARK    6  A    between atoms: C_19  and  C_23
REMARK    7  A    between atoms: C_19  and  C_24
REMARK                            x       y       z     vdW  Elec       q    Type
REMARK                         _______ _______ _______ _____ _____    ______ ____
ROOT
ATOM      1  N   UNL     1       3.874   0.998   1.806  0.00  0.00    -0.215 N 
ATOM      2  C   UNL     1       3.520   1.825   0.803  0.00  0.00    +0.251 C 
ATOM      3  O   UNL     1       3.956   2.934   0.579  0.00  0.00    -0.272 OA
ATOM      4  C   UNL     1       2.465   1.080   0.011  0.00  0.00    +0.135 C 
ATOM      5  N   UNL     1       2.334  -0.201   0.727  0.00  0.00    -0.281 N 
ATOM      6  C   UNL     1       3.196  -0.154   1.759  0.00  0.00    +0.310 C 
ATOM      7  O   UNL     1       3.343  -1.057   2.558  0.00  0.00    -0.252 OA
ATOM      8  C   UNL     1       2.931   0.847  -1.428  0.00  0.00    +0.047 C 
ATOM      9  H   UNL     1       1.624  -0.961   0.371  0.00  0.00    +0.152 HD
ENDROOT
BRANCH   4  10
ATOM     10  C   UNL     1       1.159   1.832   0.028  0.00  0.00    -0.015 A 
ATOM     11  C   UNL     1       1.170   3.226   0.032  0.00  0.00    +0.007 A 
ATOM     12  C   UNL     1       0.008   3.935   0.048  0.00  0.00    +0.009 A 
ATOM     13  C   UNL     1      -1.222   3.256   0.059  0.00  0.00    -0.018 A 
ATOM     14  C   UNL     1      -2.441   3.954   0.075  0.00  0.00    +0.008 A 
ATOM     15  C   UNL     1      -3.613   3.262   0.086  0.00  0.00    +0.001 A 
ATOM     16  C   UNL     1      -3.624   1.869   0.082  0.00  0.00    +0.001 A 
ATOM     17  C   UNL     1      -2.463   1.159   0.067  0.00  0.00    +0.008 A 
ATOM     18  C   UNL     1      -1.233   1.839   0.049  0.00  0.00    -0.018 A 
ATOM     19  C   UNL     1      -0.013   1.140   0.039  0.00  0.00    +0.014 A 
ENDBRANCH   4  10
BRANCH   1  20
ATOM     20  C   UNL     1       4.879   1.321   2.823  0.00  0.00    +0.214 C 
BRANCH  20  22
ATOM     21  N   UNL     1       7.320   1.064   3.127  0.00  0.00    -0.284 N 
ATOM     22  C   UNL     1       6.236   0.869   2.349  0.00  0.00    +0.235 C 
ATOM     23  O   UNL     1       6.353   0.330   1.269  0.00  0.00    -0.274 OA
ATOM     24  H   UNL     1       7.227   1.619   4.072  0.00  0.00    +0.155 HD
BRANCH  21  27
ATOM     25  C   UNL     1      10.690  -0.411   3.287  0.00  0.00    +0.071 A 
ATOM     26  C   UNL     1       9.459   0.092   3.683  0.00  0.00    +0.049 A 
ATOM     27  C   UNL     1       8.565   0.560   2.731  0.00  0.00    +0.035 A 
ATOM     28  C   UNL     1       8.907   0.532   1.385  0.00  0.00    +0.026 A 
ATOM     29  C   UNL     1      10.135   0.035   0.992  0.00  0.00    +0.042 A 
ATOM     30  C   UNL     1      11.027  -0.437   1.938  0.00  0.00    +0.145 A 
ATOM     31  F   UNL     1      12.227  -0.922   1.552  0.00  0.00    -0.204 F 
BRANCH  25  35
ATOM     32  C   UNL     1      12.109  -2.117   6.330  0.00  0.00    +0.109 C 
ATOM     33  C   UNL     1      11.136  -1.513   5.349  0.00  0.00    +0.214 C 
ATOM     34  O   UNL     1       9.943  -1.588   5.554  0.00  0.00    -0.276 OA
ATOM     35  N   UNL     1      11.593  -0.889   4.245  0.00  0.00    -0.283 N 
ATOM     36  H   UNL     1      12.674  -0.755   4.096  0.00  0.00    +0.155 HD
ENDBRANCH  25  35
ENDBRANCH  21  27
ENDBRANCH  20  22
ENDBRANCH   1  20
TORSDOF 5
