REMARK  Name = ZINC10232529
REMARK  2 active torsions:
REMARK  status: ('A' for Active; 'I' for Inactive)
REMARK    1  A    between atoms: C_4  and  C_7
REMARK    2  A    between atoms: C_20  and  C_22
REMARK                            x       y       z     vdW  Elec       q    Type
REMARK                         _______ _______ _______ _____ _____    ______ ____
ROOT
ATOM      1  C   UNL     1       4.026  -1.079  -0.161  0.00  0.00    +0.101 A 
ATOM      2  C   UNL     1       3.988  -2.116   0.776  0.00  0.00    +0.036 A 
ATOM      3  C   UNL     1       5.126  -2.890   0.930  0.00  0.00    +0.110 A 
ATOM      4  C   UNL     1       6.243  -2.595   0.139  0.00  0.00    +0.310 A 
ATOM      5  N   UNL     1       6.184  -1.594  -0.723  0.00  0.00    -0.104 NA
ATOM      6  N   UNL     1       5.130  -0.877  -0.870  0.00  0.00    -0.145 NA
ATOM      7  O   UNL     1       7.377  -3.331   0.257  0.00  0.00    -0.262 OA
ATOM      8  N   UNL     1       5.177  -3.938   1.855  0.00  0.00    -0.278 N 
ATOM      9  C   UNL     1       4.152  -4.011   2.785  0.00  0.00    +0.240 A 
ATOM     10  N   UNL     1       4.046  -4.720   3.874  0.00  0.00    -0.092 NA
ATOM     11  N   UNL     1       2.921  -4.481   4.455  0.00  0.00    -0.021 NA
ATOM     12  N   UNL     1       2.241  -3.613   3.780  0.00  0.00    -0.042 NA
ATOM     13  N   UNL     1       3.015  -3.279   2.668  0.00  0.00    -0.201 N 
ATOM     14  C   UNL     1       2.734  -2.361   1.571  0.00  0.00    +0.179 C 
ATOM     15  H   UNL     1       5.899  -4.586   1.845  0.00  0.00    +0.155 HD
ENDROOT
BRANCH  14  16
ATOM     16  C   UNL     1       1.681  -2.959   0.674  0.00  0.00    +0.017 A 
ATOM     17  C   UNL     1       1.967  -4.088  -0.070  0.00  0.00    +0.009 A 
ATOM     18  C   UNL     1       1.001  -4.637  -0.893  0.00  0.00    +0.001 A 
ATOM     19  C   UNL     1      -0.252  -4.058  -0.973  0.00  0.00    +0.003 A 
ATOM     20  C   UNL     1      -0.540  -2.929  -0.230  0.00  0.00    +0.039 A 
ATOM     21  C   UNL     1       0.425  -2.381   0.599  0.00  0.00    +0.129 A 
ATOM     22  F   UNL     1       0.143  -1.280   1.330  0.00  0.00    -0.205 F 
ENDBRANCH  14  16
BRANCH   1  26
ATOM     23  C   UNL     1       0.622   1.399  -0.752  0.00  0.00    +0.000 A 
ATOM     24  C   UNL     1       1.098   1.176   0.528  0.00  0.00    +0.001 A 
ATOM     25  C   UNL     1       2.203   0.372   0.725  0.00  0.00    +0.010 A 
ATOM     26  C   UNL     1       2.838  -0.215  -0.367  0.00  0.00    +0.003 A 
ATOM     27  C   UNL     1       2.354   0.013  -1.654  0.00  0.00    +0.010 A 
ATOM     28  C   UNL     1       1.249   0.819  -1.840  0.00  0.00    +0.001 A 
ENDBRANCH   1  26
TORSDOF 2
