REMARK  Name = ZINC20832719
REMARK  12 active torsions:
REMARK  status: ('A' for Active; 'I' for Inactive)
REMARK    1  A    between atoms: C_1  and  N_2
REMARK    2  A    between atoms: N_2  and  C_3
REMARK    3  A    between atoms: N_2  and  C_4
REMARK    4  A    between atoms: C_7  and  C_10
REMARK    5  A    between atoms: N_11  and  N_12
REMARK    6  A    between atoms: C_15  and  S_18
REMARK    7  A    between atoms: S_18  and  C_19
REMARK    8  A    between atoms: C_19  and  C_20
REMARK    9  A    between atoms: C_20  and  C_21
REMARK   10  A    between atoms: N_23  and  C_24
REMARK   11  A    between atoms: C_27  and  O_30
REMARK   12  A    between atoms: O_30  and  C_31
REMARK                            x       y       z     vdW  Elec       q    Type
REMARK                         _______ _______ _______ _____ _____    ______ ____
ROOT
ATOM      1  N   UNL     1      -4.838   0.929   0.024  0.00  0.00    -0.205 N 
ATOM      2  C   UNL     1      -6.047   1.609   0.035  0.00  0.00    +0.232 A 
ATOM      3  N   UNL     1      -7.290   1.039   0.030  0.00  0.00    -0.186 NA
ATOM      4  C   UNL     1      -8.215   2.043   0.045  0.00  0.00    +0.210 A 
ATOM      5  N   UNL     1      -7.572   3.187   0.059  0.00  0.00    -0.144 NA
ATOM      6  N   UNL     1      -6.198   2.911   0.057  0.00  0.00    -0.245 N 
ATOM      7  H   UNL     1      -4.825  -0.171   0.010  0.00  0.00    +0.177 HD
ATOM      8  H   UNL     1      -5.316   3.567   0.070  0.00  0.00    +0.192 HD
ENDROOT
BRANCH   1  10
ATOM      9  C   UNL     1      -2.500   1.006   0.019  0.00  0.00    +0.138 C 
ATOM     10  N   UNL     1      -3.632   1.643   0.030  0.00  0.00    -0.188 NA
BRANCH   9  14
ATOM     11  C   UNL     1       1.153   3.170   0.032  0.00  0.00    +0.029 A 
ATOM     12  C   UNL     1       1.170   1.780   0.015  0.00  0.00    +0.024 A 
ATOM     13  C   UNL     1      -0.013   1.074   0.015  0.00  0.00    +0.011 A 
ATOM     14  C   UNL     1      -1.232   1.758   0.026  0.00  0.00    -0.005 A 
ATOM     15  C   UNL     1      -1.246   3.155   0.050  0.00  0.00    +0.011 A 
ATOM     16  C   UNL     1      -0.059   3.854   0.049  0.00  0.00    +0.024 A 
BRANCH  11  18
ATOM     17  C   UNL     1       3.630   3.164   0.013  0.00  0.00    +0.129 C 
ATOM     18  N   UNL     1       2.353   3.882   0.032  0.00  0.00    -0.336 N 
ATOM     19  C   UNL     1       2.337   5.346   0.050  0.00  0.00    +0.129 C 
ENDBRANCH  11  18
ENDBRANCH   9  14
ENDBRANCH   1  10
BRANCH   4  20
ATOM     20  S   UNL     1      -9.965   1.839   0.047  0.00  0.00    -0.084 S 
BRANCH  20  21
ATOM     21  C   UNL     1     -10.605   3.537   0.070  0.00  0.00    +0.086 C 
BRANCH  21  22
ATOM     22  C   UNL     1     -12.134   3.505   0.074  0.00  0.00    +0.107 C 
BRANCH  22  23
ATOM     23  C   UNL     1     -12.666   4.915   0.093  0.00  0.00    +0.218 C 
ATOM     24  O   UNL     1     -11.897   5.853   0.103  0.00  0.00    -0.275 OA
ATOM     25  N   UNL     1     -13.996   5.134   0.100  0.00  0.00    -0.285 N 
ATOM     26  H   UNL     1     -14.693   4.288   0.014  0.00  0.00    +0.155 HD
BRANCH  25  27
ATOM     27  C   UNL     1     -14.490   6.440   0.215  0.00  0.00    +0.034 A 
ATOM     28  C   UNL     1     -15.666   6.678   0.914  0.00  0.00    +0.027 A 
ATOM     29  C   UNL     1     -16.150   7.966   1.032  0.00  0.00    +0.048 A 
ATOM     30  C   UNL     1     -15.468   9.021   0.443  0.00  0.00    +0.130 A 
ATOM     31  C   UNL     1     -14.296   8.783  -0.260  0.00  0.00    +0.048 A 
ATOM     32  C   UNL     1     -13.807   7.496  -0.374  0.00  0.00    +0.027 A 
BRANCH  30  33
ATOM     33  O   UNL     1     -15.948  10.288   0.554  0.00  0.00    -0.406 OA
BRANCH  33  34
ATOM     34  C   UNL     1     -17.159  10.460   1.292  0.00  0.00    +0.575 C 
ATOM     35  F   UNL     1     -16.974  10.011   2.604  0.00  0.00    -0.133 F 
ATOM     36  F   UNL     1     -17.508  11.815   1.308  0.00  0.00    -0.133 F 
ATOM     37  F   UNL     1     -18.183   9.722   0.687  0.00  0.00    -0.133 F 
ENDBRANCH  33  34
ENDBRANCH  30  33
ENDBRANCH  25  27
ENDBRANCH  22  23
ENDBRANCH  21  22
ENDBRANCH  20  21
ENDBRANCH   4  20
TORSDOF 10
