REMARK  Name = ZINC07816524
REMARK  6 active torsions:
REMARK  status: ('A' for Active; 'I' for Inactive)
REMARK    1  A    between atoms: C_1  and  C_2
REMARK    2  A    between atoms: C_2  and  C_4
REMARK    3  A    between atoms: C_2  and  S_19
REMARK    4  A    between atoms: C_16  and  C_17
REMARK    5  A    between atoms: C_16  and  C_18
REMARK    6  A    between atoms: S_19  and  C_20
REMARK                            x       y       z     vdW  Elec       q    Type
REMARK                         _______ _______ _______ _____ _____    ______ ____
ROOT
ATOM      1  C   UNL     1       0.976   1.658  -0.574  0.00  0.00    +0.234 C 
ATOM      2  O   UNL     1       0.392   2.534  -1.177  0.00  0.00    -0.274 OA
ATOM      3  N   UNL     1       0.305   0.568  -0.152  0.00  0.00    -0.255 N 
ATOM      4  C   UNL     1      -1.098   0.539  -0.142  0.00  0.00    +0.059 A 
ATOM      5  C   UNL     1      -1.835   1.697   0.032  0.00  0.00    +0.025 A 
ATOM      6  C   UNL     1      -3.217   1.635   0.041  0.00  0.00    +0.002 A 
ATOM      7  C   UNL     1      -3.861   0.422  -0.124  0.00  0.00    +0.002 A 
ATOM      8  C   UNL     1      -3.127  -0.743  -0.310  0.00  0.00    +0.025 A 
ATOM      9  C   UNL     1      -1.743  -0.689  -0.317  0.00  0.00    +0.055 A 
ATOM     10  N   UNL     1      -0.982  -1.850  -0.494  0.00  0.00    -0.282 N 
ATOM     11  C   UNL     1       0.338  -1.855  -0.228  0.00  0.00    +0.241 C 
ATOM     12  O   UNL     1       0.986  -2.861  -0.430  0.00  0.00    -0.273 OA
ATOM     13  C   UNL     1       1.020  -0.628   0.319  0.00  0.00    +0.113 C 
ATOM     14  C   UNL     1       2.468  -0.585  -0.173  0.00  0.00    +0.042 C 
ATOM     15  C   UNL     1       0.998  -0.668   1.848  0.00  0.00    +0.042 C 
ATOM     16  H   UNL     1      -1.410  -2.660  -0.813  0.00  0.00    +0.155 HD
ENDROOT
BRANCH   1  18
ATOM     17  C   UNL     1       2.673   1.882   1.219  0.00  0.00    +0.029 C 
ATOM     18  C   UNL     1       2.450   1.792  -0.292  0.00  0.00    +0.136 C 
BRANCH  18  19
ATOM     19  S   UNL     1       3.082   3.291  -1.085  0.00  0.00    -0.085 S 
BRANCH  19  20
ATOM     20  C   UNL     1       4.800   3.123  -0.732  0.00  0.00    +0.159 A 
ATOM     21  N   UNL     1       5.447   2.172  -0.068  0.00  0.00    -0.135 NA
ATOM     22  N   UNL     1       6.697   2.206   0.090  0.00  0.00    -0.149 NA
ATOM     23  C   UNL     1       7.439   3.187  -0.382  0.00  0.00    +0.182 A 
ATOM     24  S   UNL     1       6.174   4.188  -1.160  0.00  0.00    -0.048 S 
ENDBRANCH  19  20
ENDBRANCH  18  19
ENDBRANCH   1  18
TORSDOF 3
