REMARK  Name = ZINC09747216
REMARK  5 active torsions:
REMARK  status: ('A' for Active; 'I' for Inactive)
REMARK    1  A    between atoms: C_4  and  C_7
REMARK    2  A    between atoms: C_7  and  C_25
REMARK    3  A    between atoms: N_10  and  C_14
REMARK    4  A    between atoms: C_14  and  N_52
REMARK    5  A    between atoms: C_18  and  C_21
REMARK                            x       y       z     vdW  Elec       q    Type
REMARK                         _______ _______ _______ _____ _____    ______ ____
ROOT
ATOM      1  C   UNL     1       1.158   1.862   0.001  0.00  0.00    +0.164 C 
ATOM      2  C   UNL     1       1.278   3.178   0.743  0.00  0.00    +0.254 C 
ATOM      3  O   UNL     1       2.266   3.626   1.284  0.00  0.00    -0.272 OA
ATOM      4  N   UNL     1       0.058   3.747   0.676  0.00  0.00    -0.241 N 
ATOM      5  C   UNL     1      -0.806   2.983  -0.002  0.00  0.00    +0.308 C 
ATOM      6  O   UNL     1      -1.966   3.286  -0.199  0.00  0.00    -0.252 OA
ATOM      7  N   UNL     1      -0.248   1.839  -0.439  0.00  0.00    -0.278 N 
ATOM      8  H   UNL     1      -0.684   1.139  -0.948  0.00  0.00    +0.152 HD
ENDROOT
BRANCH   1  12
ATOM      9  C   UNL     1       1.966  -1.416   2.618  0.00  0.00    +0.000 A 
ATOM     10  C   UNL     1       2.838  -0.345   2.562  0.00  0.00    +0.000 A 
ATOM     11  C   UNL     1       2.577   0.716   1.715  0.00  0.00    +0.006 A 
ATOM     12  C   UNL     1       1.443   0.705   0.924  0.00  0.00    -0.011 A 
ATOM     13  C   UNL     1       0.569  -0.363   0.984  0.00  0.00    +0.006 A 
ATOM     14  C   UNL     1       0.833  -1.427   1.826  0.00  0.00    +0.000 A 
ENDBRANCH   1  12
BRANCH   1  15
ATOM     15  C   UNL     1       2.086   1.832  -1.186  0.00  0.00    -0.011 A 
ATOM     16  C   UNL     1       3.429   2.114  -1.021  0.00  0.00    +0.006 A 
ATOM     17  C   UNL     1       4.281   2.081  -2.109  0.00  0.00    +0.000 A 
ATOM     18  C   UNL     1       3.788   1.778  -3.364  0.00  0.00    +0.000 A 
ATOM     19  C   UNL     1       2.443   1.502  -3.530  0.00  0.00    +0.000 A 
ATOM     20  C   UNL     1       1.593   1.529  -2.442  0.00  0.00    +0.006 A 
ENDBRANCH   1  15
BRANCH   4  21
ATOM     21  C   UNL     1      -0.280   5.043   1.269  0.00  0.00    +0.043 C 
BRANCH  21  27
ATOM     22  C   UNL     1      -1.150   6.222  -0.658  0.00  0.00    -0.077 C 
ATOM     23  C   UNL     1      -0.928   7.431  -1.570  0.00  0.00    -0.018 C 
ATOM     24  C   UNL     1       0.392   7.257  -2.327  0.00  0.00    +0.008 C 
ATOM     25  C   UNL     1       1.532   7.093  -1.319  0.00  0.00    +0.077 C 
ATOM     26  C   UNL     1       1.238   5.894  -0.414  0.00  0.00    -0.064 C 
ATOM     27  N   UNL     1      -0.031   6.135   0.304  0.00  0.00    +0.391 N 
ATOM     28  H   UNL     1       0.038   7.022   0.816  0.00  0.00    -0.079 HD
BRANCH  25  29
ATOM     29  C   UNL     1       2.846   6.860  -2.067  0.00  0.00    +0.391 C 
ATOM     30  F   UNL     1       3.111   7.955  -2.896  0.00  0.00    -0.171 F 
ATOM     31  F   UNL     1       3.888   6.711  -1.145  0.00  0.00    -0.171 F 
ATOM     32  F   UNL     1       2.741   5.701  -2.844  0.00  0.00    -0.171 F 
ENDBRANCH  25  29
ENDBRANCH  21  27
ENDBRANCH   4  21
TORSDOF 5
