REMARK  Name = ZINC37616394
REMARK  7 active torsions:
REMARK  status: ('A' for Active; 'I' for Inactive)
REMARK    1  A    between atoms: C_1  and  C_2
REMARK    2  A    between atoms: C_2  and  O_3
REMARK    3  A    between atoms: O_3  and  C_4
REMARK    4  A    between atoms: C_4  and  C_6
REMARK    5  A    between atoms: C_9  and  N_13
REMARK    6  A    between atoms: C_14  and  C_16
REMARK    7  A    between atoms: C_16  and  N_21
REMARK                            x       y       z     vdW  Elec       q    Type
REMARK                         _______ _______ _______ _____ _____    ______ ____
ROOT
ATOM      1  N   UNL     1       3.480  -3.956   5.782  0.00  0.00    -0.286 N 
ATOM      2  C   UNL     1       4.095  -3.134   6.656  0.00  0.00    +0.206 C 
ATOM      3  O   UNL     1       3.995  -1.932   6.532  0.00  0.00    -0.277 OA
ATOM      4  H   UNL     1       3.492  -4.915   5.927  0.00  0.00    +0.155 HD
ENDROOT
BRANCH   1   8
ATOM      5  C   UNL     1       1.529  -2.376   2.457  0.00  0.00    +0.060 A 
ATOM      6  C   UNL     1       2.569  -1.665   3.064  0.00  0.00    +0.017 A 
ATOM      7  C   UNL     1       3.211  -2.190   4.162  0.00  0.00    +0.025 A 
ATOM      8  C   UNL     1       2.827  -3.427   4.669  0.00  0.00    +0.047 A 
ATOM      9  C   UNL     1       1.792  -4.138   4.068  0.00  0.00    +0.040 A 
ATOM     10  C   UNL     1       1.142  -3.616   2.972  0.00  0.00    +0.032 A 
ATOM     11 BR   UNL     1       1.275  -5.820   4.762  0.00  0.00    -0.048 Br
BRANCH   5  12
ATOM     12  C   UNL     1       0.839  -1.817   1.280  0.00  0.00    +0.339 C 
ATOM     13  O   UNL     1      -0.067  -2.434   0.757  0.00  0.00    -0.245 OA
BRANCH  12  14
ATOM     14  O   UNL     1       1.214  -0.621   0.784  0.00  0.00    -0.461 OA
BRANCH  14  16
ATOM     15  C   UNL     1       1.065   1.221  -0.773  0.00  0.00    +0.048 C 
ATOM     16  C   UNL     1       0.502  -0.140  -0.357  0.00  0.00    +0.229 C 
ENDBRANCH  14  16
ENDBRANCH  12  14
ENDBRANCH   5  12
ENDBRANCH   1   8
BRANCH   2  17
ATOM     17  C   UNL     1       4.905  -3.710   7.789  0.00  0.00    +0.007 C 
ATOM     18  C   UNL     1       4.016  -3.922   9.039  0.00  0.00    -0.004 C 
ATOM     19  C   UNL     1       3.954  -2.504   9.659  0.00  0.00    -0.001 C 
ATOM     20  C   UNL     1       5.371  -1.934   9.443  0.00  0.00    -0.001 C 
ATOM     21  C   UNL     1       5.976  -2.701   8.254  0.00  0.00    -0.004 C 
BRANCH  17  22
ATOM     22  N   UNL     1       5.532  -4.973   7.380  0.00  0.00    +0.388 N 
ATOM     23  H   UNL     1       6.149  -4.806   6.600  0.00  0.00    -0.089 HD
ATOM     24  H   UNL     1       6.061  -5.351   8.152  0.00  0.00    -0.089 HD
ATOM     25  H   UNL     1       4.817  -5.631   7.109  0.00  0.00    -0.089 HD
ENDBRANCH  17  22
ENDBRANCH   2  17
TORSDOF 6
