REMARK  Name = ZINC59148337
REMARK  3 active torsions:
REMARK  status: ('A' for Active; 'I' for Inactive)
REMARK    1  A    between atoms: C_12  and  C_14
REMARK    2  A    between atoms: N_15  and  N_16
REMARK    3  A    between atoms: C_17  and  C_19
REMARK                            x       y       z     vdW  Elec       q    Type
REMARK                         _______ _______ _______ _____ _____    ______ ____
ROOT
ATOM      1  C   UNL     1      -0.017   1.379   0.010  0.00  0.00    +0.000 A 
ATOM      2  C   UNL     1       1.171   2.090   0.002  0.00  0.00    +0.001 A 
ATOM      3  C   UNL     1       2.378   1.424  -0.013  0.00  0.00    +0.009 A 
ATOM      4  C   UNL     1       2.405   0.028  -0.021  0.00  0.00    -0.014 A 
ATOM      5  C   UNL     1       1.205  -0.678  -0.013  0.00  0.00    -0.035 A 
ATOM      6  C   UNL     1       0.002  -0.004   0.002  0.00  0.00    +0.004 A 
ATOM      7  C   UNL     1       1.542  -2.149  -0.024  0.00  0.00    +0.071 C 
ATOM      8  C   UNL     1       3.049  -2.232  -0.039  0.00  0.00    -0.035 A 
ATOM      9  C   UNL     1       3.541  -0.927  -0.037  0.00  0.00    -0.014 A 
ATOM     10  C   UNL     1       4.921  -0.709  -0.048  0.00  0.00    +0.009 A 
ATOM     11  C   UNL     1       5.789  -1.776  -0.062  0.00  0.00    +0.010 A 
ATOM     12  C   UNL     1       5.293  -3.083  -0.065  0.00  0.00    -0.005 A 
ATOM     13  C   UNL     1       3.912  -3.301  -0.054  0.00  0.00    +0.014 A 
ENDROOT
BRANCH  12  14
ATOM     14  C   UNL     1       6.223  -4.227  -0.080  0.00  0.00    +0.138 C 
ATOM     15  N   UNL     1       7.505  -4.021  -0.091  0.00  0.00    -0.188 NA
BRANCH  15  16
ATOM     16  N   UNL     1       8.388  -5.108  -0.106  0.00  0.00    -0.207 N 
ATOM     17  C   UNL     1       9.719  -4.895  -0.118  0.00  0.00    +0.235 C 
ATOM     18  O   UNL     1      10.152  -3.762  -0.115  0.00  0.00    -0.274 OA
ATOM     19  H   UNL     1       8.042  -6.015  -0.108  0.00  0.00    +0.177 HD
BRANCH  17  20
ATOM     20  C   UNL     1      10.669  -6.065  -0.134  0.00  0.00    +0.077 C 
ATOM     21  C   UNL     1      10.443  -6.922   1.113  0.00  0.00    +0.013 C 
ATOM     22  C   UNL     1      11.408  -8.110   1.097  0.00  0.00    +0.001 C 
ATOM     23  C   UNL     1      12.849  -7.596   1.086  0.00  0.00    +0.000 C 
ATOM     24  C   UNL     1      13.075  -6.738  -0.160  0.00  0.00    +0.001 C 
ATOM     25  C   UNL     1      12.110  -5.551  -0.144  0.00  0.00    +0.013 C 
ENDBRANCH  17  20
ENDBRANCH  15  16
ENDBRANCH  12  14
TORSDOF 3
