REMARK  Name = ZINC37302807
REMARK  4 active torsions:
REMARK  status: ('A' for Active; 'I' for Inactive)
REMARK    1  A    between atoms: C_1  and  O_2
REMARK    2  A    between atoms: O_2  and  C_3
REMARK    3  A    between atoms: C_9  and  N_11
REMARK    4  A    between atoms: N_11  and  C_12
REMARK                            x       y       z     vdW  Elec       q    Type
REMARK                         _______ _______ _______ _____ _____    ______ ____
ROOT
ATOM      1  C   UNL     1      -0.191  -2.772  -2.809  0.00  0.00    +0.029 A 
ATOM      2  C   UNL     1       0.011  -4.002  -2.196  0.00  0.00    +0.024 A 
ATOM      3  C   UNL     1       0.622  -5.026  -2.895  0.00  0.00    +0.018 A 
ATOM      4  C   UNL     1       1.033  -4.824  -4.202  0.00  0.00    +0.030 A 
ATOM      5  C   UNL     1       0.838  -3.590  -4.825  0.00  0.00    +0.049 A 
ATOM      6  C   UNL     1       0.215  -2.568  -4.119  0.00  0.00    +0.047 A 
ATOM      7  N   UNL     1       1.253  -3.363  -6.135  0.00  0.00    -0.284 N 
ATOM      8  C   UNL     1       1.478  -4.290  -7.062  0.00  0.00    +0.227 C 
ATOM      9  O   UNL     1       1.826  -3.924  -8.165  0.00  0.00    -0.275 OA
ATOM     10  C   UNL     1       1.325  -5.766  -6.817  0.00  0.00    +0.170 C 
ATOM     11  S   UNL     1       1.810  -6.128  -5.103  0.00  0.00    -0.114 S 
ATOM     12  H   UNL     1       1.391  -2.439  -6.396  0.00  0.00    +0.155 HD
ENDROOT
BRANCH   1  13
ATOM     13  N   UNL     1      -0.811  -1.735  -2.102  0.00  0.00    -0.338 N 
ATOM     14  H   UNL     1      -0.957  -0.876  -2.529  0.00  0.00    +0.146 HD
BRANCH  13  20
ATOM     15  C   UNL     1      -1.295  -0.603   0.011  0.00  0.00    +0.138 C 
ATOM     16  C   UNL     1      -1.745  -0.825   1.457  0.00  0.00    +0.033 C 
ATOM     17  C   UNL     1      -3.134  -1.466   1.467  0.00  0.00    +0.003 C 
ATOM     18  C   UNL     1      -3.080  -2.810   0.738  0.00  0.00    +0.002 C 
ATOM     19  C   UNL     1      -2.631  -2.588  -0.708  0.00  0.00    +0.025 C 
ATOM     20  C   UNL     1      -1.242  -1.947  -0.718  0.00  0.00    +0.099 C 
BRANCH  15  22
ATOM     21  C   UNL     1      -0.017   1.425   0.010  0.00  0.00    +0.194 C 
ATOM     22  O   UNL     1       0.002  -0.004   0.002  0.00  0.00    -0.378 OA
ENDBRANCH  15  22
ENDBRANCH  13  20
ENDBRANCH   1  13
TORSDOF 3
