REMARK  Name = ZINC39595904
REMARK  7 active torsions:
REMARK  status: ('A' for Active; 'I' for Inactive)
REMARK    1  A    between atoms: C_1  and  C_2
REMARK    2  A    between atoms: C_2  and  C_4
REMARK    3  A    between atoms: C_2  and  O_28
REMARK    4  A    between atoms: C_4  and  N_5
REMARK    5  A    between atoms: C_6  and  C_8
REMARK    6  A    between atoms: C_19  and  C_21
REMARK    7  A    between atoms: O_28  and  C_29
REMARK                            x       y       z     vdW  Elec       q    Type
REMARK                         _______ _______ _______ _____ _____    ______ ____
ROOT
ATOM      1  C   UNL     1       1.789  -4.194   2.048  0.00  0.00    +0.100 C 
ATOM      2  C   UNL     1       2.792  -4.605   0.948  0.00  0.00    +0.121 C 
ATOM      3  N   UNL     1       4.080  -4.777   1.661  0.00  0.00    -0.296 N 
ATOM      4  C   UNL     1       3.709  -5.423   2.943  0.00  0.00    +0.115 C 
ATOM      5  C   UNL     1       2.392  -4.735   3.355  0.00  0.00    -0.004 C 
ATOM      6  C   UNL     1       1.446  -5.747   3.995  0.00  0.00    -0.010 C 
ATOM      7  C   UNL     1       2.040  -6.227   5.322  0.00  0.00    -0.082 C 
ATOM      8  N   UNL     1       2.238  -5.080   6.215  0.00  0.00    +0.379 N 
ATOM      9  C   UNL     1       3.221  -4.157   5.635  0.00  0.00    -0.082 C 
ATOM     10  C   UNL     1       2.676  -3.589   4.321  0.00  0.00    -0.010 C 
ATOM     11  C   UNL     1       5.311  -4.426   1.239  0.00  0.00    +0.247 C 
ATOM     12  O   UNL     1       5.444  -3.803   0.203  0.00  0.00    -0.270 OA
ATOM     13  H   UNL     1       1.361  -4.598   6.342  0.00  0.00    -0.086 HD
ATOM     14  H   UNL     1       2.572  -5.405   7.110  0.00  0.00    -0.086 HD
ENDROOT
BRANCH  11  15
ATOM     15  C   UNL     1       6.500  -4.798   2.035  0.00  0.00    +0.038 A 
ATOM     16  C   UNL     1       6.452  -5.898   2.893  0.00  0.00    +0.013 A 
ATOM     17  C   UNL     1       7.564  -6.241   3.634  0.00  0.00    +0.002 A 
ATOM     18  C   UNL     1       8.726  -5.497   3.528  0.00  0.00    +0.020 A 
ATOM     19  C   UNL     1       8.781  -4.405   2.679  0.00  0.00    +0.042 A 
ATOM     20  C   UNL     1       7.676  -4.055   1.928  0.00  0.00    +0.033 A 
ATOM     21 CL   UNL     1      10.243  -3.478   2.553  0.00  0.00    -0.084 Cl
ENDBRANCH  11  15
BRANCH   1  23
ATOM     22  N   UNL     1       0.579  -2.130   2.677  0.00  0.00    -0.312 N 
ATOM     23  C   UNL     1       1.664  -2.693   2.110  0.00  0.00    +0.218 C 
ATOM     24  O   UNL     1       2.540  -1.992   1.649  0.00  0.00    -0.275 OA
ATOM     25  H   UNL     1      -0.122  -2.691   3.046  0.00  0.00    +0.149 HD
BRANCH  22  26
ATOM     26  C   UNL     1       0.458  -0.671   2.737  0.00  0.00    +0.148 C 
BRANCH  26  28
ATOM     27  C   UNL     1      -1.043   1.221   3.377  0.00  0.00    +0.053 C 
ATOM     28  C   UNL     1      -0.857  -0.297   3.425  0.00  0.00    +0.187 C 
BRANCH  28  29
ATOM     29  O   UNL     1      -0.822  -0.730   4.787  0.00  0.00    -0.488 OA
BRANCH  29  30
ATOM     30  C   UNL     1      -2.018  -0.958   5.392  0.00  0.00    +0.121 A 
ATOM     31  C   UNL     1      -3.193  -0.872   4.662  0.00  0.00    +0.048 A 
ATOM     32  C   UNL     1      -4.408  -1.104   5.278  0.00  0.00    +0.042 A 
ATOM     33  C   UNL     1      -4.451  -1.422   6.625  0.00  0.00    +0.124 A 
ATOM     34  C   UNL     1      -3.278  -1.508   7.356  0.00  0.00    +0.042 A 
ATOM     35  C   UNL     1      -2.062  -1.283   6.740  0.00  0.00    +0.048 A 
ATOM     36  F   UNL     1      -5.639  -1.648   7.227  0.00  0.00    -0.205 F 
ENDBRANCH  29  30
ENDBRANCH  28  29
ENDBRANCH  26  28
ENDBRANCH  22  26
ENDBRANCH   1  23
TORSDOF 6
