REMARK  Name = ZINC39448832
REMARK  5 active torsions:
REMARK  status: ('A' for Active; 'I' for Inactive)
REMARK    1  A    between atoms: C_1  and  C_2
REMARK    2  A    between atoms: C_6  and  C_8
REMARK    3  A    between atoms: C_13  and  S_15
REMARK    4  A    between atoms: S_15  and  C_16
REMARK    5  A    between atoms: C_16  and  C_17
REMARK                            x       y       z     vdW  Elec       q    Type
REMARK                         _______ _______ _______ _____ _____    ______ ____
ROOT
ATOM      1  S   UNL     1      -2.932  -5.328   1.442  0.00  0.00    -0.081 S 
ENDROOT
BRANCH   1   6
ATOM      2  C   UNL     1       0.054  -2.845   2.489  0.00  0.00    +0.200 C 
ATOM      3  N   UNL     1      -0.653  -2.076   3.520  0.00  0.00    -0.336 N 
ATOM      4  C   UNL     1      -1.927  -2.275   3.735  0.00  0.00    +0.190 C 
ATOM      5  N   UNL     1      -2.625  -3.206   3.064  0.00  0.00    -0.195 NA
ATOM      6  C   UNL     1      -2.010  -4.129   2.345  0.00  0.00    +0.159 C 
ATOM      7  N   UNL     1      -0.635  -4.133   2.318  0.00  0.00    -0.300 N 
ATOM      8  N   UNL     1      -2.574  -1.504   4.679  0.00  0.00    -0.329 N 
ATOM      9  H   UNL     1      -2.084  -0.828   5.172  0.00  0.00    +0.145 HD
ATOM     10  H   UNL     1      -3.519  -1.640   4.851  0.00  0.00    +0.145 HD
ATOM     11  H   UNL     1      -0.137  -4.956   2.191  0.00  0.00    +0.150 HD
ATOM     12  H   UNL     1      -0.173  -1.417   4.045  0.00  0.00    +0.164 HD
BRANCH   2  18
ATOM     13  C   UNL     1      -0.018   1.503   0.010  0.00  0.00    +0.044 C 
ATOM     14  C   UNL     1       0.002  -0.004   0.002  0.00  0.00    -0.050 A 
ATOM     15  C   UNL     1       0.006  -0.689  -1.199  0.00  0.00    +0.003 A 
ATOM     16  C   UNL     1       0.025  -2.071  -1.207  0.00  0.00    +0.001 A 
ATOM     17  C   UNL     1       0.040  -2.768  -0.013  0.00  0.00    +0.007 A 
ATOM     18  C   UNL     1       0.037  -2.084   1.188  0.00  0.00    -0.007 A 
ATOM     19  C   UNL     1       0.023  -0.702   1.195  0.00  0.00    +0.010 A 
ENDBRANCH   2  18
ENDBRANCH   1   6
BRANCH   1  20
ATOM     20  C   UNL     1      -4.662  -4.909   1.794  0.00  0.00    +0.173 C 
BRANCH  20  21
ATOM     21  C   UNL     1      -5.569  -5.872   1.072  0.00  0.00    +0.234 C 
ATOM     22  O   UNL     1      -5.096  -6.754   0.387  0.00  0.00    -0.274 OA
ATOM     23  N   UNL     1      -6.907  -5.753   1.187  0.00  0.00    -0.239 N 
ATOM     24  C   UNL     1      -7.478  -4.738   1.968  0.00  0.00    +0.044 A 
ATOM     25  C   UNL     1      -7.138  -3.422   1.676  0.00  0.00    +0.024 A 
ATOM     26  C   UNL     1      -7.697  -2.380   2.386  0.00  0.00    +0.002 A 
ATOM     27  C   UNL     1      -8.603  -2.660   3.392  0.00  0.00    +0.000 A 
ATOM     28  C   UNL     1      -8.928  -3.963   3.691  0.00  0.00    +0.005 A 
ATOM     29  C   UNL     1      -8.359  -5.033   2.997  0.00  0.00    -0.025 A 
ATOM     30  C   UNL     1      -8.755  -6.400   3.507  0.00  0.00    +0.042 C 
ATOM     31  C   UNL     1      -8.059  -7.538   2.782  0.00  0.00    +0.042 C 
ATOM     32  C   UNL     1      -8.415  -7.557   1.317  0.00  0.00    -0.025 A 
ATOM     33  C   UNL     1      -7.771  -6.635   0.525  0.00  0.00    +0.044 A 
ATOM     34  C   UNL     1      -7.987  -6.594  -0.841  0.00  0.00    +0.024 A 
ATOM     35  C   UNL     1      -8.889  -7.485  -1.398  0.00  0.00    +0.002 A 
ATOM     36  C   UNL     1      -9.559  -8.395  -0.600  0.00  0.00    +0.000 A 
ATOM     37  C   UNL     1      -9.322  -8.440   0.780  0.00  0.00    +0.005 A 
ENDBRANCH  20  21
ENDBRANCH   1  20
TORSDOF 4
