REMARK  Name = ZINC20791310
REMARK  9 active torsions:
REMARK  status: ('A' for Active; 'I' for Inactive)
REMARK    1  A    between atoms: C_1  and  C_2
REMARK    2  A    between atoms: C_5  and  N_9
REMARK    3  A    between atoms: C_6  and  C_8
REMARK    4  A    between atoms: N_9  and  S_10
REMARK    5  A    between atoms: S_10  and  C_13
REMARK    6  A    between atoms: C_16  and  N_22
REMARK    7  A    between atoms: C_17  and  N_19
REMARK    8  A    between atoms: N_22  and  N_23
REMARK    9  A    between atoms: C_32  and  O_33
REMARK                            x       y       z     vdW  Elec       q    Type
REMARK                         _______ _______ _______ _____ _____    ______ ____
ROOT
ATOM      1  C   UNL     1       8.055   5.025   0.202  0.00  0.00    +0.111 A 
ATOM      2  C   UNL     1       7.408   3.803   0.179  0.00  0.00    +0.031 A 
ATOM      3  C   UNL     1       6.035   3.744   0.317  0.00  0.00    +0.029 A 
ATOM      4  C   UNL     1       5.303   4.915   0.469  0.00  0.00    +0.079 A 
ATOM      5  C   UNL     1       5.956   6.141   0.492  0.00  0.00    +0.150 A 
ATOM      6  C   UNL     1       7.330   6.192   0.358  0.00  0.00    +0.063 A 
ENDROOT
BRANCH   1   7
ATOM      7  S   UNL     1       9.807   5.095   0.032  0.00  0.00    +0.072 S 
ATOM      8  O   UNL     1      10.197   3.909  -0.647  0.00  0.00    -0.150 OA
ATOM      9  O   UNL     1      10.116   6.391  -0.461  0.00  0.00    -0.150 OA
BRANCH   7  10
ATOM     10  N   UNL     1      10.451   5.002   1.555  0.00  0.00    -0.216 N 
ATOM     11  H   UNL     1      11.076   5.822   1.938  0.00  0.00    +0.174 HD
BRANCH  10  16
ATOM     12  C   UNL     1       9.435   0.458   4.792  0.00  0.00    +0.044 C 
ATOM     13  C   UNL     1       9.704   1.666   3.932  0.00  0.00    -0.050 A 
ATOM     14  C   UNL     1       9.857   1.519   2.565  0.00  0.00    +0.005 A 
ATOM     15  C   UNL     1      10.105   2.623   1.774  0.00  0.00    +0.025 A 
ATOM     16  C   UNL     1      10.200   3.883   2.352  0.00  0.00    +0.051 A 
ATOM     17  C   UNL     1      10.051   4.026   3.725  0.00  0.00    -0.028 A 
ATOM     18  C   UNL     1       9.798   2.918   4.510  0.00  0.00    +0.008 A 
ATOM     19  C   UNL     1      10.159   5.390   4.358  0.00  0.00    +0.046 C 
ENDBRANCH  10  16
ENDBRANCH   7  10
ENDBRANCH   1   7
BRANCH   5  20
ATOM     20  N   UNL     1       5.181   7.391   0.659  0.00  0.00    +0.058 N 
ATOM     21  O   UNL     1       5.512   8.398   0.057  0.00  0.00    -0.126 OA
ATOM     22  O   UNL     1       4.213   7.414   1.398  0.00  0.00    -0.126 OA
ENDBRANCH   5  20
BRANCH   4  23
ATOM     23  N   UNL     1       3.915   4.860   0.604  0.00  0.00    -0.235 N 
ATOM     24  H   UNL     1       3.345   5.779   0.800  0.00  0.00    +0.174 HD
BRANCH  23  25
ATOM     25  N   UNL     1       3.301   3.730   0.497  0.00  0.00    -0.177 NA
ATOM     26  C   UNL     1       1.992   3.678   0.625  0.00  0.00    +0.152 C 
ATOM     27  C   UNL     1       1.117   2.488   0.536  0.00  0.00    +0.034 A 
ATOM     28  C   UNL     1       1.347   1.137   0.311  0.00  0.00    +0.032 A 
ATOM     29  C   UNL     1       0.283   0.257   0.289  0.00  0.00    +0.042 A 
ATOM     30  C   UNL     1      -1.011   0.719   0.486  0.00  0.00    +0.022 A 
ATOM     31  C   UNL     1      -1.255   2.055   0.716  0.00  0.00    +0.030 A 
ATOM     32  C   UNL     1      -0.193   2.966   0.743  0.00  0.00    +0.077 A 
ATOM     33  N   UNL     1      -0.152   4.309   0.939  0.00  0.00    -0.211 NA
ATOM     34  C   UNL     1       1.064   4.790   0.886  0.00  0.00    +0.241 C 
ATOM     35 CL   UNL     1       0.564  -1.433   0.007  0.00  0.00    -0.084 Cl
BRANCH  34  36
ATOM     36  O   UNL     1       1.410   6.091   1.046  0.00  0.00    -0.491 OA
ATOM     37  H   UNL     1       0.634   6.847   1.239  0.00  0.00    +0.294 HD
ENDBRANCH  34  36
ENDBRANCH  23  25
ENDBRANCH   4  23
TORSDOF 7
