REMARK  Name = ZINC02617306
REMARK  7 active torsions:
REMARK  status: ('A' for Active; 'I' for Inactive)
REMARK    1  A    between atoms: C_1  and  C_2
REMARK    2  A    between atoms: C_10  and  C_12
REMARK    3  A    between atoms: C_12  and  O_13
REMARK    4  A    between atoms: O_13  and  C_14
REMARK    5  A    between atoms: C_14  and  C_16
REMARK    6  A    between atoms: C_17  and  C_18
REMARK    7  A    between atoms: C_23  and  N_24
REMARK                            x       y       z     vdW  Elec       q    Type
REMARK                         _______ _______ _______ _____ _____    ______ ____
ROOT
ATOM      1  C   UNL     1      -5.038   1.455   1.153  0.00  0.00    +0.328 C 
ENDROOT
BRANCH   1  11
ATOM      2  C   UNL     1       2.328   1.396   1.817  0.00  0.00    +0.047 C 
ATOM      3  C   UNL     1       1.033   2.129   1.581  0.00  0.00    -0.009 A 
ATOM      4  C   UNL     1       1.024   3.498   1.344  0.00  0.00    +0.063 A 
ATOM      5  C   UNL     1      -0.181   4.140   1.130  0.00  0.00    +0.133 A 
ATOM      6  N   UNL     1      -1.317   3.469   1.148  0.00  0.00    -0.237 NA
ATOM      7  C   UNL     1      -1.350   2.164   1.365  0.00  0.00    +0.144 A 
ATOM      8  C   UNL     1      -0.176   1.454   1.593  0.00  0.00    +0.085 A 
ATOM      9 CL   UNL     1      -0.225  -0.257   1.884  0.00  0.00    -0.080 Cl
ATOM     10  N   UNL     1      -2.574   1.496   1.369  0.00  0.00    -0.266 N 
ATOM     11  C   UNL     1      -3.716   2.177   1.149  0.00  0.00    +0.256 C 
ATOM     12  O   UNL     1      -3.678   3.373   0.946  0.00  0.00    -0.272 OA
ATOM     13 CL   UNL     1       2.511   4.394   1.317  0.00  0.00    -0.082 Cl
ATOM     14  H   UNL     1      -2.604   0.540   1.531  0.00  0.00    +0.156 HD
ENDBRANCH   1  11
BRANCH   1  15
ATOM     15  O   UNL     1      -6.091   2.386   0.897  0.00  0.00    -0.452 OA
BRANCH  15  16
ATOM     16  C   UNL     1      -7.348   1.897   0.868  0.00  0.00    +0.332 C 
ATOM     17  O   UNL     1      -7.543   0.711   1.055  0.00  0.00    -0.246 OA
BRANCH  16  18
ATOM     18  C   UNL     1      -8.475   2.793   0.612  0.00  0.00    +0.092 C 
ATOM     19  C   UNL     1      -9.732   2.304   0.582  0.00  0.00    +0.017 C 
BRANCH  19  20
ATOM     20  C   UNL     1     -10.867   3.205   0.324  0.00  0.00    +0.005 A 
ATOM     21  C   UNL     1     -10.703   4.590   0.434  0.00  0.00    +0.010 A 
ATOM     22  C   UNL     1     -11.771   5.427   0.191  0.00  0.00    +0.001 A 
ATOM     23  C   UNL     1     -13.002   4.901  -0.161  0.00  0.00    +0.002 A 
ATOM     24  C   UNL     1     -13.171   3.532  -0.272  0.00  0.00    +0.033 A 
ATOM     25  C   UNL     1     -12.112   2.681  -0.038  0.00  0.00    +0.133 A 
BRANCH  25  26
ATOM     26  N   UNL     1     -12.293   1.218  -0.164  0.00  0.00    +0.057 N 
ATOM     27  O   UNL     1     -11.400   0.531  -0.625  0.00  0.00    -0.126 OA
ATOM     28  O   UNL     1     -13.336   0.701   0.195  0.00  0.00    -0.126 OA
ENDBRANCH  25  26
ENDBRANCH  19  20
ENDBRANCH  16  18
ENDBRANCH  15  16
ENDBRANCH   1  15
TORSDOF 6
