REMARK  Name = ZINC38857864
REMARK  8 active torsions:
REMARK  status: ('A' for Active; 'I' for Inactive)
REMARK    1  A    between atoms: C_1  and  C_2
REMARK    2  A    between atoms: C_2  and  O_3
REMARK    3  A    between atoms: O_3  and  C_4
REMARK    4  A    between atoms: C_4  and  C_6
REMARK    5  A    between atoms: C_10  and  N_11
REMARK    6  A    between atoms: C_12  and  C_14
REMARK    7  A    between atoms: N_17  and  S_26
REMARK    8  A    between atoms: S_26  and  C_29
REMARK                            x       y       z     vdW  Elec       q    Type
REMARK                         _______ _______ _______ _____ _____    ______ ____
ROOT
ATOM      1  N   UNL     1      -0.629  -2.316  -3.957  0.00  0.00    -0.276 N 
ATOM      2  C   UNL     1      -1.136  -2.689  -5.149  0.00  0.00    +0.260 C 
ATOM      3  O   UNL     1      -0.404  -3.134  -6.007  0.00  0.00    -0.271 OA
ATOM      4  H   UNL     1      -1.216  -1.960  -3.271  0.00  0.00    +0.155 HD
ENDROOT
BRANCH   2   5
ATOM      5  C   UNL     1      -2.613  -2.554  -5.415  0.00  0.00    +0.278 C 
ATOM      6  C   UNL     1      -3.392  -3.496  -4.487  0.00  0.00    +0.185 C 
ATOM      7  N   UNL     1      -4.822  -3.365  -4.817  0.00  0.00    -0.200 N 
ATOM      8  C   UNL     1      -5.175  -3.298  -6.174  0.00  0.00    +0.094 A 
ATOM      9  C   UNL     1      -6.496  -3.462  -6.557  0.00  0.00    +0.048 A 
ATOM     10  C   UNL     1      -6.840  -3.391  -7.896  0.00  0.00    +0.043 A 
ATOM     11  C   UNL     1      -5.865  -3.156  -8.849  0.00  0.00    +0.024 A 
ATOM     12  C   UNL     1      -4.545  -2.993  -8.472  0.00  0.00    +0.049 A 
ATOM     13  C   UNL     1      -4.192  -3.064  -7.133  0.00  0.00    +0.144 A 
ATOM     14  O   UNL     1      -2.890  -2.907  -6.772  0.00  0.00    -0.476 OA
ATOM     15 CL   UNL     1      -8.494  -3.598  -8.379  0.00  0.00    -0.083 Cl
BRANCH   7  16
ATOM     16  S   UNL     1      -5.973  -3.301  -3.629  0.00  0.00    +0.043 S 
ATOM     17  O   UNL     1      -5.260  -2.950  -2.451  0.00  0.00    -0.155 OA
ATOM     18  O   UNL     1      -6.982  -2.445  -4.147  0.00  0.00    -0.155 OA
ATOM     19  C   UNL     1      -6.602  -4.997  -3.496  0.00  0.00    +0.218 C 
ENDBRANCH   7  16
ENDBRANCH   2   5
BRANCH   1  24
ATOM     20  C   UNL     1       1.421  -2.110  -2.556  0.00  0.00    +0.091 A 
ATOM     21  C   UNL     1       2.854  -2.346  -2.551  0.00  0.00    -0.021 A 
ATOM     22  C   UNL     1       3.334  -2.862  -3.703  0.00  0.00    -0.004 A 
ATOM     23  S   UNL     1       1.916  -3.024  -4.747  0.00  0.00    -0.077 S 
ATOM     24  C   UNL     1       0.729  -2.440  -3.712  0.00  0.00    +0.086 A 
ATOM     25  C   UNL     1       4.758  -3.212  -4.008  0.00  0.00    +0.043 C 
ATOM     26  C   UNL     1       5.654  -2.547  -2.953  0.00  0.00    +0.005 C 
ATOM     27  C   UNL     1       5.077  -2.830  -1.563  0.00  0.00    +0.005 C 
ATOM     28  C   UNL     1       3.772  -2.053  -1.373  0.00  0.00    +0.037 C 
BRANCH  20  29
ATOM     29  C   UNL     1       0.735  -1.553  -1.389  0.00  0.00    +0.342 C 
ATOM     30  O   UNL     1       0.292  -2.295  -0.532  0.00  0.00    -0.245 OA
BRANCH  29  31
ATOM     31  O   UNL     1       0.593  -0.218  -1.263  0.00  0.00    -0.461 OA
BRANCH  31  33
ATOM     32  C   UNL     1      -0.150   1.784  -0.131  0.00  0.00    +0.048 C 
ATOM     33  C   UNL     1      -0.087   0.256  -0.099  0.00  0.00    +0.229 C 
ENDBRANCH  31  33
ENDBRANCH  29  31
ENDBRANCH  20  29
ENDBRANCH   1  24
TORSDOF 6
