REMARK  Name = ZINC39777059
REMARK  9 active torsions:
REMARK  status: ('A' for Active; 'I' for Inactive)
REMARK    1  A    between atoms: C_1  and  C_2
REMARK    2  A    between atoms: C_2  and  C_4
REMARK    3  A    between atoms: C_2  and  N_33
REMARK    4  A    between atoms: C_8  and  S_17
REMARK    5  A    between atoms: N_9  and  C_10
REMARK    6  A    between atoms: S_17  and  C_18
REMARK    7  A    between atoms: C_18  and  C_19
REMARK    8  A    between atoms: N_33  and  C_34
REMARK    9  A    between atoms: N_33  and  C_35
REMARK                            x       y       z     vdW  Elec       q    Type
REMARK                         _______ _______ _______ _____ _____    ______ ____
ROOT
ATOM      1  C   UNL     1       0.369  -0.569  -1.156  0.00  0.00    +0.168 C 
ATOM      2  N   UNL     1       0.361  -2.042  -1.147  0.00  0.00    -0.248 N 
ATOM      3  N   UNL     1       1.688  -2.441  -1.348  0.00  0.00    -0.162 NA
ATOM      4  C   UNL     1       2.473  -1.425  -1.474  0.00  0.00    +0.180 C 
ATOM      5  N   UNL     1       1.784  -0.222  -1.377  0.00  0.00    -0.260 N 
ATOM      6  H   UNL     1      -0.409  -2.619  -1.025  0.00  0.00    +0.170 HD
ENDROOT
BRANCH   5   7
ATOM      7  C   UNL     1       2.324   1.065  -1.469  0.00  0.00    +0.038 A 
ATOM      8  C   UNL     1       3.211   1.518  -0.501  0.00  0.00    +0.026 A 
ATOM      9  C   UNL     1       3.744   2.789  -0.594  0.00  0.00    +0.040 A 
ATOM     10  C   UNL     1       3.393   3.612  -1.651  0.00  0.00    +0.124 A 
ATOM     11  C   UNL     1       2.508   3.163  -2.617  0.00  0.00    +0.040 A 
ATOM     12  C   UNL     1       1.978   1.890  -2.532  0.00  0.00    +0.026 A 
ATOM     13  F   UNL     1       3.915   4.855  -1.740  0.00  0.00    -0.205 F 
ENDBRANCH   5   7
BRANCH   1  15
ATOM     14  C   UNL     1       0.815  -0.505   1.301  0.00  0.00    -0.010 C 
ATOM     15  C   UNL     1      -0.115  -0.020   0.187  0.00  0.00    -0.032 C 
BRANCH  15  16
ATOM     16  N   UNL     1      -0.108   1.448   0.148  0.00  0.00    +0.380 N 
ATOM     17  C   UNL     1      -0.952   1.912  -0.961  0.00  0.00    -0.096 C 
ATOM     18  C   UNL     1      -0.631   1.974   1.416  0.00  0.00    -0.096 C 
ATOM     19  H   UNL     1       0.837   1.776   0.012  0.00  0.00    -0.082 HD
ENDBRANCH  15  16
ENDBRANCH   1  15
BRANCH   4  20
ATOM     20  S   UNL     1       4.211  -1.548  -1.739  0.00  0.00    -0.081 S 
BRANCH  20  21
ATOM     21  C   UNL     1       4.524  -3.334  -1.777  0.00  0.00    +0.151 C 
BRANCH  21  22
ATOM     22  C   UNL     1       5.994  -3.581  -2.000  0.00  0.00    +0.121 A 
ATOM     23  N   UNL     1       6.452  -4.858  -2.069  0.00  0.00    -0.310 N 
ATOM     24  H   UNL     1       5.826  -5.593  -1.974  0.00  0.00    +0.170 HD
ATOM     25  C   UNL     1       7.757  -5.124  -2.267  0.00  0.00    +0.260 A 
ATOM     26  O   UNL     1       8.154  -6.275  -2.326  0.00  0.00    -0.267 OA
ATOM     27  C   UNL     1       8.670  -4.029  -2.407  0.00  0.00    +0.075 A 
ATOM     28  C   UNL     1      10.123  -4.083  -2.628  0.00  0.00    -0.023 A 
ATOM     29  C   UNL     1      10.766  -2.906  -2.725  0.00  0.00    -0.004 A 
ATOM     30  S   UNL     1       9.500  -1.673  -2.535  0.00  0.00    -0.073 S 
ATOM     31  C   UNL     1       8.107  -2.749  -2.322  0.00  0.00    +0.116 A 
ATOM     32  N   UNL     1       6.803  -2.564  -2.130  0.00  0.00    -0.226 NA
ATOM     33  C   UNL     1      12.245  -3.084  -2.945  0.00  0.00    +0.043 C 
ATOM     34  C   UNL     1      12.523  -4.549  -2.544  0.00  0.00    +0.010 C 
ATOM     35  C   UNL     1      11.150  -5.207  -2.788  0.00  0.00    +0.037 C 
ENDBRANCH  21  22
ENDBRANCH  20  21
ENDBRANCH   4  20
TORSDOF 6
