REMARK  Name = ZINC39671776
REMARK  11 active torsions:
REMARK  status: ('A' for Active; 'I' for Inactive)
REMARK    1  A    between atoms: C_1  and  C_2
REMARK    2  A    between atoms: C_4  and  C_35
REMARK    3  A    between atoms: N_5  and  C_7
REMARK    4  A    between atoms: C_7  and  C_8
REMARK    5  A    between atoms: C_8  and  C_9
REMARK    6  A    between atoms: C_9  and  N_10
REMARK    7  A    between atoms: C_11  and  C_13
REMARK    8  A    between atoms: C_24  and  C_26
REMARK    9  A    between atoms: C_26  and  C_27
REMARK   10  A    between atoms: C_27  and  C_28
REMARK   11  A    between atoms: C_28  and  C_29
REMARK                            x       y       z     vdW  Elec       q    Type
REMARK                         _______ _______ _______ _____ _____    ______ ____
ROOT
ATOM      1  C   UNL     1       4.606  -6.758   4.021  0.00  0.00    +0.100 C 
ATOM      2  C   UNL     1       5.296  -7.267   2.735  0.00  0.00    +0.121 C 
ATOM      3  N   UNL     1       6.168  -8.374   3.192  0.00  0.00    -0.300 N 
ATOM      4  C   UNL     1       5.364  -9.078   4.220  0.00  0.00    +0.115 C 
ATOM      5  C   UNL     1       4.652  -7.949   4.992  0.00  0.00    -0.004 C 
ATOM      6  C   UNL     1       3.238  -8.379   5.369  0.00  0.00    -0.010 C 
ATOM      7  C   UNL     1       3.310  -9.527   6.380  0.00  0.00    -0.082 C 
ATOM      8  N   UNL     1       4.043  -9.085   7.573  0.00  0.00    +0.379 N 
ATOM      9  C   UNL     1       5.430  -8.762   7.218  0.00  0.00    -0.082 C 
ATOM     10  C   UNL     1       5.447  -7.582   6.242  0.00  0.00    -0.010 C 
ATOM     11  C   UNL     1       7.412  -8.674   2.768  0.00  0.00    +0.216 C 
ATOM     12  O   UNL     1       8.003  -9.621   3.243  0.00  0.00    -0.276 OA
ATOM     13  H   UNL     1       3.596  -8.266   7.956  0.00  0.00    -0.086 HD
ATOM     14  H   UNL     1       4.037  -9.822   8.262  0.00  0.00    -0.086 HD
ENDROOT
BRANCH   1  16
ATOM     15  N   UNL     1       2.577  -5.416   4.470  0.00  0.00    -0.315 N 
ATOM     16  C   UNL     1       3.179  -6.371   3.733  0.00  0.00    +0.218 C 
ATOM     17  O   UNL     1       2.571  -6.919   2.838  0.00  0.00    -0.275 OA
ATOM     18  H   UNL     1       3.063  -4.978   5.185  0.00  0.00    +0.149 HD
BRANCH  15  19
ATOM     19  C   UNL     1       1.189  -5.040   4.189  0.00  0.00    +0.106 C 
BRANCH  19  20
ATOM     20  C   UNL     1       0.752  -3.943   5.162  0.00  0.00    +0.042 C 
BRANCH  20  21
ATOM     21  C   UNL     1      -0.698  -3.550   4.869  0.00  0.00    +0.145 C 
BRANCH  21  26
ATOM     22  C   UNL     1      -2.572  -1.275   8.932  0.00  0.00    +0.067 C 
ATOM     23  C   UNL     1      -1.941  -1.525   7.586  0.00  0.00    +0.060 A 
ATOM     24  C   UNL     1      -1.498  -0.544   6.693  0.00  0.00    +0.047 A 
ATOM     25  C   UNL     1      -0.996  -1.170   5.603  0.00  0.00    +0.036 A 
ATOM     26  N   UNL     1      -1.116  -2.499   5.800  0.00  0.00    -0.268 N 
ATOM     27  N   UNL     1      -1.708  -2.697   7.054  0.00  0.00    -0.176 NA
ATOM     28  C   UNL     1      -0.407  -0.501   4.388  0.00  0.00    +0.065 C 
ENDBRANCH  21  26
ENDBRANCH  20  21
ENDBRANCH  19  20
ENDBRANCH  15  19
ENDBRANCH   1  16
BRANCH  11  29
ATOM     29  C   UNL     1       8.070  -7.832   1.706  0.00  0.00    +0.096 C 
BRANCH  29  30
ATOM     30  C   UNL     1       9.466  -8.382   1.410  0.00  0.00    +0.014 C 
BRANCH  30  31
ATOM     31  C   UNL     1      10.134  -7.527   0.331  0.00  0.00    +0.035 C 
BRANCH  31  32
ATOM     32  C   UNL     1      11.509  -8.070   0.040  0.00  0.00    -0.047 A 
ATOM     33  C   UNL     1      12.599  -7.612   0.757  0.00  0.00    +0.003 A 
ATOM     34  C   UNL     1      13.861  -8.109   0.490  0.00  0.00    +0.000 A 
ATOM     35  C   UNL     1      14.033  -9.065  -0.493  0.00  0.00    +0.000 A 
ATOM     36  C   UNL     1      12.944  -9.523  -1.210  0.00  0.00    +0.000 A 
ATOM     37  C   UNL     1      11.681  -9.029  -0.940  0.00  0.00    +0.003 A 
ENDBRANCH  31  32
ENDBRANCH  30  31
ENDBRANCH  29  30
ENDBRANCH  11  29
TORSDOF 9
