REMARK  Name = ZINC00725824
REMARK  12 active torsions:
REMARK  status: ('A' for Active; 'I' for Inactive)
REMARK    1  A    between atoms: C_1  and  C_2
REMARK    2  A    between atoms: C_2  and  C_3
REMARK    3  A    between atoms: C_2  and  C_4
REMARK    4  A    between atoms: C_4  and  C_5
REMARK    5  A    between atoms: C_5  and  O_7
REMARK    6  A    between atoms: O_7  and  C_8
REMARK    7  A    between atoms: C_10  and  N_78
REMARK    8  A    between atoms: C_16  and  C_19
REMARK    9  A    between atoms: C_17  and  O_18
REMARK   10  A    between atoms: C_20  and  C_21
REMARK   11  A    between atoms: C_30  and  C_31
REMARK   12  A    between atoms: C_30  and  C_32
REMARK                            x       y       z     vdW  Elec       q    Type
REMARK                         _______ _______ _______ _____ _____    ______ ____
ROOT
ATOM      1  C   UNL     1      -7.291   0.237  -0.040  0.00  0.00    +0.210 C 
ATOM      2  C   UNL     1      -6.096   1.180   0.115  0.00  0.00    +0.015 C 
ATOM      3  C   UNL     1      -4.830   0.467  -0.291  0.00  0.00    +0.026 A 
ATOM      4  C   UNL     1      -4.775  -0.914  -0.375  0.00  0.00    +0.127 A 
ATOM      5  C   UNL     1      -3.586  -1.544  -0.747  0.00  0.00    +0.047 A 
ATOM      6  C   UNL     1      -2.465  -0.805  -1.042  0.00  0.00    +0.015 A 
ATOM      7  C   UNL     1      -2.510   0.592  -0.957  0.00  0.00    +0.017 A 
ATOM      8  C   UNL     1      -3.705   1.224  -0.580  0.00  0.00    +0.129 A 
ATOM      9  O   UNL     1      -5.857  -1.689  -0.107  0.00  0.00    -0.482 OA
ATOM     10  C   UNL     1      -6.936  -1.102   0.620  0.00  0.00    +0.140 C 
ATOM     11  C   UNL     1      -6.513  -0.865   2.071  0.00  0.00    +0.059 C 
ATOM     12  C   UNL     1      -8.150  -2.033   0.582  0.00  0.00    +0.059 C 
ENDROOT
BRANCH   2  18
ATOM     13  C   UNL     1      -7.603   2.970  -0.506  0.00  0.00    -0.078 C 
ATOM     14  C   UNL     1      -7.712   4.271  -1.303  0.00  0.00    -0.019 C 
ATOM     15  C   UNL     1      -7.527   3.969  -2.793  0.00  0.00    -0.004 C 
ATOM     16  C   UNL     1      -6.171   3.289  -3.004  0.00  0.00    -0.019 C 
ATOM     17  C   UNL     1      -6.107   2.016  -2.157  0.00  0.00    -0.078 C 
ATOM     18  N   UNL     1      -6.268   2.378  -0.733  0.00  0.00    +0.387 N 
ATOM     19  H   UNL     1      -5.551   3.069  -0.482  0.00  0.00    -0.081 HD
ENDBRANCH   2  18
BRANCH   8  20
ATOM     20  O   UNL     1      -3.759   2.578  -0.498  0.00  0.00    -0.506 OA
ATOM     21  H   UNL     1      -4.082   3.008  -1.302  0.00  0.00    +0.292 HD
ENDBRANCH   8  20
BRANCH   7  22
ATOM     22  C   UNL     1      -1.317   1.389  -1.267  0.00  0.00    +0.016 C 
ATOM     23  C   UNL     1      -0.169   0.774  -1.629  0.00  0.00    +0.068 C 
BRANCH  23  24
ATOM     24  C   UNL     1       0.982   1.545  -1.934  0.00  0.00    +0.239 C 
ATOM     25  O   UNL     1       0.910   2.760  -1.964  0.00  0.00    -0.271 OA
ATOM     26  N   UNL     1       2.154   0.933  -2.191  0.00  0.00    -0.298 N 
ATOM     27  C   UNL     1       3.377   1.718  -2.411  0.00  0.00    +0.108 C 
ATOM     28  C   UNL     1       4.462   1.211  -1.449  0.00  0.00    +0.019 C 
ATOM     29  C   UNL     1       4.641  -0.296  -1.640  0.00  0.00    +0.003 C 
ATOM     30  C   UNL     1       3.331  -1.014  -1.307  0.00  0.00    +0.019 C 
ATOM     31  C   UNL     1       2.234  -0.533  -2.261  0.00  0.00    +0.108 C 
ENDBRANCH  23  24
ENDBRANCH   7  22
BRANCH   1  32
ATOM     32  O   UNL     1      -7.572   0.030  -1.450  0.00  0.00    -0.459 OA
BRANCH  32  33
ATOM     33  C   UNL     1      -8.848  -0.213  -1.788  0.00  0.00    +0.308 C 
ATOM     34  O   UNL     1      -9.703  -0.251  -0.934  0.00  0.00    -0.251 OA
BRANCH  33  35
ATOM     35  C   UNL     1      -9.216  -0.438  -3.232  0.00  0.00    +0.123 C 
BRANCH  35  37
ATOM     36  C   UNL     1     -11.114  -0.795  -4.816  0.00  0.00    +0.008 C 
ATOM     37  C   UNL     1     -10.721  -0.691  -3.341  0.00  0.00    -0.007 C 
ATOM     38  C   UNL     1     -11.072  -1.997  -2.626  0.00  0.00    +0.008 C 
ENDBRANCH  35  37
ENDBRANCH  33  35
ENDBRANCH  32  33
ENDBRANCH   1  32
TORSDOF 8
