REMARK  Name = ZINC08856806
REMARK  6 active torsions:
REMARK  status: ('A' for Active; 'I' for Inactive)
REMARK    1  A    between atoms: C_4  and  C_32
REMARK    2  A    between atoms: C_5  and  C_7
REMARK    3  A    between atoms: C_9  and  C_30
REMARK    4  A    between atoms: C_10  and  N_29
REMARK    5  A    between atoms: N_11  and  C_19
REMARK    6  A    between atoms: C_24  and  N_25
REMARK                            x       y       z     vdW  Elec       q    Type
REMARK                         _______ _______ _______ _____ _____    ______ ____
ROOT
ATOM      1  C   UNL     1      -3.053   2.537   2.743  0.00  0.00    +0.098 C 
ATOM      2  C   UNL     1      -4.334   3.289   2.957  0.00  0.00    +0.077 C 
ATOM      3  C   UNL     1      -5.326   3.263   2.030  0.00  0.00    +0.107 C 
ATOM      4  N   UNL     1      -5.166   2.544   0.867  0.00  0.00    -0.258 N 
ATOM      5  C   UNL     1      -3.915   2.187   0.436  0.00  0.00    +0.025 C 
ATOM      6  C   UNL     1      -2.870   2.174   1.291  0.00  0.00    +0.025 C 
ATOM      7  C   UNL     1      -1.578   1.827   0.854  0.00  0.00    +0.162 C 
ATOM      8  O   UNL     1      -0.660   1.814   1.650  0.00  0.00    -0.292 OA
ATOM      9  C   UNL     1      -1.313   1.470  -0.583  0.00  0.00    +0.080 C 
ATOM     10  C   UNL     1      -2.328   2.195  -1.474  0.00  0.00    +0.014 C 
ATOM     11  C   UNL     1      -3.736   1.812  -1.014  0.00  0.00    +0.052 C 
ENDROOT
BRANCH   4  12
ATOM     12  C   UNL     1      -6.290   2.175   0.118  0.00  0.00    +0.070 A 
ATOM     13  C   UNL     1      -6.924   0.964   0.365  0.00  0.00    +0.027 A 
ATOM     14  C   UNL     1      -8.035   0.605  -0.372  0.00  0.00    +0.022 A 
ATOM     15  C   UNL     1      -8.511   1.446  -1.363  0.00  0.00    +0.043 A 
ATOM     16  C   UNL     1      -7.879   2.651  -1.614  0.00  0.00    +0.054 A 
ATOM     17  C   UNL     1      -6.770   3.017  -0.876  0.00  0.00    +0.149 A 
ATOM     18 CL   UNL     1      -9.904   0.989  -2.292  0.00  0.00    -0.083 Cl
BRANCH  17  19
ATOM     19  N   UNL     1      -6.094   4.306  -1.145  0.00  0.00    +0.058 N 
ATOM     20  O   UNL     1      -6.516   5.045  -2.018  0.00  0.00    -0.126 OA
ATOM     21  O   UNL     1      -5.117   4.629  -0.494  0.00  0.00    -0.126 OA
ENDBRANCH  17  19
ENDBRANCH   4  12
BRANCH   1  26
ATOM     22  C   UNL     1      -3.991  -0.893   4.014  0.00  0.00    +0.000 A 
ATOM     23  C   UNL     1      -3.124  -1.038   5.081  0.00  0.00    +0.001 A 
ATOM     24  C   UNL     1      -2.235  -0.026   5.392  0.00  0.00    +0.012 A 
ATOM     25  C   UNL     1      -2.212   1.131   4.636  0.00  0.00    +0.059 A 
ATOM     26  C   UNL     1      -3.078   1.276   3.568  0.00  0.00    -0.023 A 
ATOM     27  C   UNL     1      -3.971   0.266   3.260  0.00  0.00    +0.005 A 
BRANCH  25  28
ATOM     28  C   UNL     1      -1.244   2.234   4.975  0.00  0.00    +0.418 C 
ATOM     29  F   UNL     1      -0.562   1.910   6.153  0.00  0.00    -0.166 F 
ATOM     30  F   UNL     1      -0.325   2.385   3.931  0.00  0.00    -0.166 F 
ATOM     31  F   UNL     1      -1.944   3.431   5.156  0.00  0.00    -0.166 F 
ENDBRANCH  25  28
ENDBRANCH   1  26
BRANCH   3  32
ATOM     32  N   UNL     1      -6.492   3.955   2.254  0.00  0.00    -0.345 N 
ATOM     33  H   UNL     1      -7.202   3.936   1.593  0.00  0.00    +0.144 HD
ATOM     34  H   UNL     1      -6.606   4.461   3.073  0.00  0.00    +0.144 HD
ENDBRANCH   3  32
BRANCH   2  35
ATOM     35  C   UNL     1      -4.512   4.049   4.158  0.00  0.00    +0.099 C 
ATOM     36  N   UNL     1      -4.653   4.651   5.111  0.00  0.00    -0.191 NA
ENDBRANCH   2  35
TORSDOF 6
