REMARK  Name = ZINC61887980
REMARK  5 active torsions:
REMARK  status: ('A' for Active; 'I' for Inactive)
REMARK    1  A    between atoms: C_5  and  S_6
REMARK    2  A    between atoms: S_6  and  N_9
REMARK    3  A    between atoms: N_9  and  C_10
REMARK    4  A    between atoms: C_15  and  C_17
REMARK    5  A    between atoms: N_18  and  O_19
REMARK                            x       y       z     vdW  Elec       q    Type
REMARK                         _______ _______ _______ _____ _____    ______ ____
ROOT
ATOM      1  C   UNL     1      -0.651  -1.986  -2.468  0.00  0.00    +0.087 C 
ATOM      2  C   UNL     1      -0.942  -3.492  -2.596  0.00  0.00    +0.021 C 
ATOM      3  C   UNL     1      -1.308  -3.746  -4.073  0.00  0.00    +0.002 C 
ATOM      4  C   UNL     1      -1.804  -2.371  -4.583  0.00  0.00    +0.013 C 
ATOM      5  C   UNL     1      -0.851  -1.377  -3.871  0.00  0.00    +0.074 C 
ENDROOT
BRANCH   5   6
ATOM      6  C   UNL     1      -1.487  -0.015  -3.770  0.00  0.00    +0.136 C 
ATOM      7  N   UNL     1      -0.749   1.045  -3.780  0.00  0.00    -0.076 NA
ATOM      8  N   UNL     1      -2.856   0.100  -3.666  0.00  0.00    -0.344 N 
ATOM      9  H   UNL     1      -3.410  -0.697  -3.659  0.00  0.00    +0.144 HD
ATOM     10  H   UNL     1      -3.265   0.976  -3.601  0.00  0.00    +0.144 HD
BRANCH   7  11
ATOM     11  O   UNL     1       0.662   0.926  -3.775  0.00  0.00    -0.408 OA
ATOM     12  H   UNL     1       1.128   1.770  -3.707  0.00  0.00    +0.328 HD
ENDBRANCH   7  11
ENDBRANCH   5   6
BRANCH   1  13
ATOM     13  N   UNL     1      -1.584  -1.374  -1.518  0.00  0.00    -0.186 NA
ATOM     14  H   UNL     1      -2.479  -1.133  -1.805  0.00  0.00    +0.148 HD
BRANCH  13  15
ATOM     15  S   UNL     1      -1.111  -1.093   0.043  0.00  0.00    +0.065 S 
ATOM     16  O   UNL     1      -0.541  -2.305   0.519  0.00  0.00    -0.153 OA
ATOM     17  O   UNL     1      -2.205  -0.460   0.692  0.00  0.00    -0.153 OA
BRANCH  15  22
ATOM     18  C   UNL     1       0.124   1.441   0.034  0.00  0.00    +0.037 A 
ATOM     19  C   UNL     1       1.294   2.176  -0.025  0.00  0.00    +0.025 A 
ATOM     20  C   UNL     1       2.477   1.521  -0.128  0.00  0.00    +0.057 A 
ATOM     21  S   UNL     1       1.954  -0.186  -0.143  0.00  0.00    -0.062 S 
ATOM     22  C   UNL     1       0.195   0.088  -0.013  0.00  0.00    +0.143 A 
ATOM     23 BR   UNL     1       4.226   2.232  -0.229  0.00  0.00    -0.043 Br
ENDBRANCH  15  22
ENDBRANCH  13  15
ENDBRANCH   1  13
TORSDOF 5
