REMARK  Name = ZINC15517019
REMARK  10 active torsions:
REMARK  status: ('A' for Active; 'I' for Inactive)
REMARK    1  A    between atoms: C_1  and  C_2
REMARK    2  A    between atoms: C_2  and  C_3
REMARK    3  A    between atoms: C_3  and  C_4
REMARK    4  A    between atoms: C_4  and  C_5
REMARK    5  A    between atoms: C_8  and  N_11
REMARK    6  A    between atoms: C_12  and  C_14
REMARK    7  A    between atoms: C_14  and  N_58
REMARK    8  A    between atoms: C_17  and  N_20
REMARK    9  A    between atoms: N_20  and  S_21
REMARK   10  A    between atoms: S_21  and  C_24
REMARK                            x       y       z     vdW  Elec       q    Type
REMARK                         _______ _______ _______ _____ _____    ______ ____
ROOT
ATOM      1  C   UNL     1      -3.727   4.421  -3.346  0.00  0.00    -0.077 C 
ATOM      2  C   UNL     1      -3.395   3.010  -2.856  0.00  0.00    +0.002 C 
ATOM      3  C   UNL     1      -1.982   2.636  -3.311  0.00  0.00    +0.073 C 
ATOM      4  C   UNL     1      -0.990   3.670  -2.771  0.00  0.00    +0.002 C 
ATOM      5  C   UNL     1      -1.392   5.062  -3.264  0.00  0.00    -0.077 C 
ATOM      6  N   UNL     1      -2.751   5.371  -2.771  0.00  0.00    +0.385 N 
ATOM      7  H   UNL     1      -2.763   5.283  -1.748  0.00  0.00    -0.081 HD
ENDROOT
BRANCH   3   8
ATOM      8  N   UNL     1      -1.636   1.310  -2.796  0.00  0.00    -0.187 NA
ATOM      9  H   UNL     1      -1.956   1.030  -1.924  0.00  0.00    +0.148 HD
BRANCH   8  10
ATOM     10  S   UNL     1      -0.699   0.288  -3.701  0.00  0.00    +0.065 S 
ATOM     11  O   UNL     1      -0.520  -0.891  -2.928  0.00  0.00    -0.153 OA
ATOM     12  O   UNL     1      -1.264   0.266  -5.005  0.00  0.00    -0.153 OA
BRANCH  10  13
ATOM     13  C   UNL     1       0.890   1.035  -3.853  0.00  0.00    +0.142 A 
ATOM     14  C   UNL     1       1.974   0.908  -3.050  0.00  0.00    +0.036 A 
ATOM     15  C   UNL     1       3.129   1.597  -3.368  0.00  0.00    +0.010 A 
ATOM     16  C   UNL     1       3.144   2.379  -4.475  0.00  0.00    +0.047 A 
ATOM     17  S   UNL     1       1.492   2.151  -5.111  0.00  0.00    -0.077 S 
ENDBRANCH  10  13
ENDBRANCH   8  10
ENDBRANCH   3   8
BRANCH   6  18
ATOM     18  C   UNL     1      -3.118   6.755  -3.138  0.00  0.00    +0.019 C 
BRANCH  18  20
ATOM     19  N   UNL     1      -4.993   8.302  -2.682  0.00  0.00    -0.287 N 
ATOM     20  C   UNL     1      -4.393   7.124  -2.423  0.00  0.00    +0.201 C 
ATOM     21  O   UNL     1      -4.878   6.360  -1.616  0.00  0.00    -0.278 OA
ATOM     22  H   UNL     1      -4.643   8.883  -3.375  0.00  0.00    +0.155 HD
BRANCH  19  26
ATOM     23  C   UNL     1      -8.355   9.449  -0.504  0.00  0.00    -0.047 A 
ATOM     24  C   UNL     1      -7.439  10.401  -0.911  0.00  0.00    +0.005 A 
ATOM     25  C   UNL     1      -6.323  10.024  -1.634  0.00  0.00    +0.023 A 
ATOM     26  C   UNL     1      -6.122   8.687  -1.950  0.00  0.00    +0.033 A 
ATOM     27  C   UNL     1      -7.047   7.734  -1.544  0.00  0.00    +0.023 A 
ATOM     28  C   UNL     1      -8.157   8.117  -0.818  0.00  0.00    +0.005 A 
BRANCH  23  29
ATOM     29  C   UNL     1      -9.570   9.864   0.284  0.00  0.00    +0.035 C 
BRANCH  29  30
ATOM     30  C   UNL     1     -10.716  10.185  -0.678  0.00  0.00    +0.004 C 
BRANCH  30  32
ATOM     31  C   UNL     1     -13.096  10.927  -0.841  0.00  0.00    +0.004 C 
ATOM     32  C   UNL     1     -11.951  10.606   0.121  0.00  0.00    -0.003 C 
ENDBRANCH  30  32
ENDBRANCH  29  30
ENDBRANCH  23  29
ENDBRANCH  19  26
ENDBRANCH  18  20
ENDBRANCH   6  18
TORSDOF 9
