REMARK  Name = ZINC39670043
REMARK  5 active torsions:
REMARK  status: ('A' for Active; 'I' for Inactive)
REMARK    1  A    between atoms: C_1  and  C_2
REMARK    2  A    between atoms: C_7  and  C_11
REMARK    3  A    between atoms: C_11  and  N_12
REMARK    4  A    between atoms: C_13  and  C_15
REMARK    5  A    between atoms: C_26  and  C_28
REMARK                            x       y       z     vdW  Elec       q    Type
REMARK                         _______ _______ _______ _____ _____    ______ ____
ROOT
ATOM      1  C   UNL     1       3.845  -7.310   3.707  0.00  0.00    +0.100 C 
ATOM      2  C   UNL     1       4.142  -6.092   4.610  0.00  0.00    +0.121 C 
ATOM      3  N   UNL     1       3.876  -6.573   5.986  0.00  0.00    -0.296 N 
ATOM      4  C   UNL     1       4.403  -7.959   6.001  0.00  0.00    +0.115 C 
ATOM      5  C   UNL     1       4.021  -8.533   4.622  0.00  0.00    -0.004 C 
ATOM      6  C   UNL     1       5.137  -9.431   4.096  0.00  0.00    -0.010 C 
ATOM      7  C   UNL     1       5.254 -10.669   4.989  0.00  0.00    -0.082 C 
ATOM      8  N   UNL     1       3.977 -11.393   4.994  0.00  0.00    +0.379 N 
ATOM      9  C   UNL     1       2.928 -10.555   5.588  0.00  0.00    -0.082 C 
ATOM     10  C   UNL     1       2.713  -9.312   4.720  0.00  0.00    -0.010 C 
ATOM     11  C   UNL     1       3.288  -5.902   6.997  0.00  0.00    +0.247 C 
ATOM     12  O   UNL     1       2.792  -4.811   6.794  0.00  0.00    -0.270 OA
ATOM     13  H   UNL     1       3.722 -11.629   4.047  0.00  0.00    -0.086 HD
ATOM     14  H   UNL     1       4.074 -12.240   5.534  0.00  0.00    -0.086 HD
ENDROOT
BRANCH  11  15
ATOM     15  C   UNL     1       3.246  -6.494   8.351  0.00  0.00    +0.038 A 
ATOM     16  C   UNL     1       4.150  -7.495   8.707  0.00  0.00    +0.013 A 
ATOM     17  C   UNL     1       4.106  -8.043   9.972  0.00  0.00    +0.002 A 
ATOM     18  C   UNL     1       3.168  -7.603  10.888  0.00  0.00    +0.015 A 
ATOM     19  C   UNL     1       2.267  -6.610  10.542  0.00  0.00    +0.019 A 
ATOM     20  C   UNL     1       2.305  -6.048   9.281  0.00  0.00    +0.028 A 
ATOM     21 BR   UNL     1       0.988  -6.015  11.801  0.00  0.00    -0.050 Br
ENDBRANCH  11  15
BRANCH   1  23
ATOM     22  N   UNL     1       2.103  -7.891   2.049  0.00  0.00    -0.309 N 
ATOM     23  C   UNL     1       2.433  -7.244   3.185  0.00  0.00    +0.219 C 
ATOM     24  O   UNL     1       1.593  -6.609   3.787  0.00  0.00    -0.275 OA
ATOM     25  H   UNL     1       2.775  -8.399   1.568  0.00  0.00    +0.149 HD
BRANCH  22  26
ATOM     26  C   UNL     1       0.730  -7.827   1.542  0.00  0.00    +0.159 C 
BRANCH  26  33
ATOM     27  C   UNL     1       0.716 -10.472  -5.376  0.00  0.00    +0.044 C 
ATOM     28  C   UNL     1       0.564 -10.382  -3.880  0.00  0.00    -0.046 A 
ATOM     29  C   UNL     1       0.117 -11.494  -3.148  0.00  0.00    +0.021 A 
ATOM     30  C   UNL     1      -0.020 -11.417  -1.807  0.00  0.00    +0.093 A 
ATOM     31  N   UNL     1       0.272 -10.260  -1.144  0.00  0.00    -0.308 N 
ATOM     32  C   UNL     1       0.223  -9.914   0.179  0.00  0.00    +0.115 A 
ATOM     33  C   UNL     1       0.627  -8.628   0.270  0.00  0.00    +0.051 A 
ATOM     34  N   UNL     1       0.918  -8.185  -0.956  0.00  0.00    -0.342 N 
ATOM     35  C   UNL     1       0.711  -9.158  -1.831  0.00  0.00    +0.116 A 
ATOM     36  C   UNL     1       0.864  -9.225  -3.231  0.00  0.00    +0.048 A 
ATOM     37  H   UNL     1       1.232  -7.292  -1.171  0.00  0.00    +0.167 HD
ENDBRANCH  26  33
ENDBRANCH  22  26
ENDBRANCH   1  23
TORSDOF 4
