REMARK  Name = ZINC03615562
REMARK  11 active torsions:
REMARK  status: ('A' for Active; 'I' for Inactive)
REMARK    1  A    between atoms: C_1  and  C_2
REMARK    2  A    between atoms: C_5  and  C_8
REMARK    3  A    between atoms: C_8  and  C_10
REMARK    4  A    between atoms: C_8  and  N_22
REMARK    5  A    between atoms: N_12  and  C_13
REMARK    6  A    between atoms: C_16  and  C_19
REMARK    7  A    between atoms: C_19  and  C_20
REMARK    8  A    between atoms: C_19  and  C_21
REMARK    9  A    between atoms: N_22  and  C_23
REMARK   10  A    between atoms: C_24  and  C_26
REMARK   11  A    between atoms: C_26  and  C_27
REMARK                            x       y       z     vdW  Elec       q    Type
REMARK                         _______ _______ _______ _____ _____    ______ ____
ROOT
ATOM      1  C   UNL     1      -4.883   5.008  -1.988  0.00  0.00    +0.192 C 
ENDROOT
BRANCH   1   6
ATOM      2  C   UNL     1      -7.359   1.720  -6.044  0.00  0.00    +0.044 C 
ATOM      3  C   UNL     1      -6.713   2.577  -4.986  0.00  0.00    -0.050 A 
ATOM      4  C   UNL     1      -5.800   3.550  -5.347  0.00  0.00    +0.004 A 
ATOM      5  C   UNL     1      -5.208   4.337  -4.377  0.00  0.00    +0.006 A 
ATOM      6  C   UNL     1      -5.528   4.150  -3.046  0.00  0.00    -0.018 A 
ATOM      7  C   UNL     1      -6.437   3.174  -2.684  0.00  0.00    +0.006 A 
ATOM      8  C   UNL     1      -7.033   2.390  -3.654  0.00  0.00    +0.004 A 
ENDBRANCH   1   6
BRANCH   1   9
ATOM      9  C   UNL     1      -5.317   6.440  -2.168  0.00  0.00    +0.242 C 
ATOM     10  O   UNL     1      -4.490   7.302  -2.378  0.00  0.00    -0.273 OA
ATOM     11  N   UNL     1      -6.624   6.762  -2.095  0.00  0.00    -0.284 N 
ATOM     12  H   UNL     1      -7.381   5.970  -2.001  0.00  0.00    +0.155 HD
BRANCH  11  13
ATOM     13  C   UNL     1      -7.017   8.104  -2.141  0.00  0.00    +0.033 A 
ATOM     14  C   UNL     1      -6.144   9.099  -1.721  0.00  0.00    +0.023 A 
ATOM     15  C   UNL     1      -6.533  10.424  -1.773  0.00  0.00    +0.006 A 
ATOM     16  C   UNL     1      -7.794  10.758  -2.231  0.00  0.00    -0.045 A 
ATOM     17  C   UNL     1      -8.668   9.769  -2.644  0.00  0.00    +0.006 A 
ATOM     18  C   UNL     1      -8.283   8.443  -2.600  0.00  0.00    +0.023 A 
BRANCH  16  19
ATOM     19  C   UNL     1      -8.217  12.203  -2.280  0.00  0.00    +0.013 C 
ATOM     20  C   UNL     1      -8.165  12.799  -0.872  0.00  0.00    +0.012 C 
ATOM     21  C   UNL     1      -7.272  12.981  -3.198  0.00  0.00    +0.012 C 
ENDBRANCH  16  19
ENDBRANCH  11  13
ENDBRANCH   1   9
BRANCH   1  22
ATOM     22  N   UNL     1      -3.426   4.920  -2.110  0.00  0.00    -0.289 N 
ATOM     23  C   UNL     1      -2.759   5.434  -3.310  0.00  0.00    +0.133 C 
ATOM     24  C   UNL     1      -2.698   4.367  -1.120  0.00  0.00    +0.218 C 
ATOM     25  O   UNL     1      -3.249   3.942  -0.127  0.00  0.00    -0.276 OA
BRANCH  24  26
ATOM     26  C   UNL     1      -1.199   4.277  -1.246  0.00  0.00    +0.127 C 
BRANCH  26  27
ATOM     27  C   UNL     1      -0.621   3.613   0.005  0.00  0.00    +0.169 C 
ATOM     28  C   UNL     1       0.894   3.619  -0.039  0.00  0.00    +0.241 C 
ATOM     29  O   UNL     1       1.622   4.589  -0.076  0.00  0.00    -0.273 OA
ATOM     30  N   UNL     1       1.265   2.324  -0.029  0.00  0.00    -0.239 N 
ATOM     31  C   UNL     1       0.205   1.508   0.016  0.00  0.00    +0.307 C 
ATOM     32  O   UNL     1       0.287   0.295   0.033  0.00  0.00    -0.252 OA
ATOM     33  N   UNL     1      -0.960   2.180   0.033  0.00  0.00    -0.287 N 
ATOM     34  H   UNL     1       2.332   2.057  -0.056  0.00  0.00    +0.159 HD
ATOM     35  H   UNL     1      -2.014   1.864   0.061  0.00  0.00    +0.151 HD
ENDBRANCH  26  27
ENDBRANCH  24  26
ENDBRANCH   1  22
TORSDOF 7
