REMARK  Name = ZINC15724653
REMARK  3 active torsions:
REMARK  status: ('A' for Active; 'I' for Inactive)
REMARK    1  A    between atoms: C_11  and  C_25
REMARK    2  A    between atoms: N_18  and  C_19
REMARK    3  A    between atoms: C_19  and  C_20
REMARK                            x       y       z     vdW  Elec       q    Type
REMARK                         _______ _______ _______ _____ _____    ______ ____
ROOT
ATOM      1  C   UNL     1       4.296   5.244   5.605  0.00  0.00    +0.001 A 
ATOM      2  C   UNL     1       3.269   6.171   5.548  0.00  0.00    +0.002 A 
ATOM      3  C   UNL     1       2.466   6.317   4.430  0.00  0.00    +0.026 A 
ATOM      4  C   UNL     1       2.734   5.481   3.348  0.00  0.00    +0.047 A 
ATOM      5  C   UNL     1       3.787   4.533   3.411  0.00  0.00    +0.003 A 
ATOM      6  C   UNL     1       4.583   4.408   4.554  0.00  0.00    +0.010 A 
ATOM      7  C   UNL     1       3.787   3.848   2.135  0.00  0.00    -0.015 A 
ATOM      8  C   UNL     1       2.785   4.381   1.402  0.00  0.00    +0.046 A 
ATOM      9  N   UNL     1       2.152   5.360   2.119  0.00  0.00    -0.356 N 
ATOM     10  H   UNL     1       1.402   5.888   1.802  0.00  0.00    +0.166 HD
ATOM     11  C   UNL     1       2.449   3.931  -0.003  0.00  0.00    +0.157 C 
ATOM     12  N   UNL     1       3.547   3.067  -0.467  0.00  0.00    -0.273 N 
ATOM     13  C   UNL     1       4.070   2.048   0.459  0.00  0.00    +0.115 C 
ATOM     14  C   UNL     1       4.707   2.751   1.664  0.00  0.00    +0.056 C 
ATOM     15  C   UNL     1       4.059   3.205  -1.706  0.00  0.00    +0.303 C 
ATOM     16  O   UNL     1       4.900   2.425  -2.108  0.00  0.00    -0.253 OA
ATOM     17  N   UNL     1       3.639   4.210  -2.500  0.00  0.00    -0.292 N 
ATOM     18  H   UNL     1       3.023   4.876  -2.156  0.00  0.00    +0.151 HD
ENDROOT
BRANCH  11  19
ATOM     19  C   UNL     1       1.156   3.157   0.004  0.00  0.00    +0.014 A 
ATOM     20  C   UNL     1       0.653   2.661   1.192  0.00  0.00    +0.008 A 
ATOM     21  C   UNL     1      -0.533   1.952   1.198  0.00  0.00    +0.001 A 
ATOM     22  C   UNL     1      -1.215   1.733   0.016  0.00  0.00    +0.003 A 
ATOM     23  C   UNL     1      -0.717   2.232  -1.172  0.00  0.00    +0.039 A 
ATOM     24  C   UNL     1       0.471   2.943  -1.180  0.00  0.00    +0.129 A 
ATOM     25  F   UNL     1       0.962   3.428  -2.342  0.00  0.00    -0.205 F 
ENDBRANCH  11  19
BRANCH  17  26
ATOM     26  C   UNL     1       4.111   4.296  -3.885  0.00  0.00    +0.180 C 
BRANCH  26  27
ATOM     27  C   UNL     1       3.497   5.500  -4.551  0.00  0.00    +0.122 A 
ATOM     28  C   UNL     1       4.019   6.739  -4.573  0.00  0.00    +0.046 A 
ATOM     29  C   UNL     1       3.119   7.551  -5.301  0.00  0.00    +0.041 A 
ATOM     30  C   UNL     1       2.101   6.759  -5.681  0.00  0.00    +0.195 A 
ATOM     31  O   UNL     1       2.337   5.517  -5.229  0.00  0.00    -0.466 OA
ENDBRANCH  26  27
ENDBRANCH  17  26
TORSDOF 3
