REMARK  Name = ZINC15771846
REMARK  13 active torsions:
REMARK  status: ('A' for Active; 'I' for Inactive)
REMARK    1  A    between atoms: C_1  and  C_2
REMARK    2  A    between atoms: C_2  and  C_3
REMARK    3  A    between atoms: C_2  and  C_4
REMARK    4  A    between atoms: C_4  and  C_5
REMARK    5  A    between atoms: C_11  and  C_15
REMARK    6  A    between atoms: C_15  and  O_16
REMARK    7  A    between atoms: O_16  and  C_17
REMARK    8  A    between atoms: C_17  and  C_19
REMARK    9  A    between atoms: C_24  and  N_25
REMARK   10  A    between atoms: C_26  and  C_28
REMARK   11  A    between atoms: C_28  and  C_29
REMARK   12  A    between atoms: C_28  and  C_30
REMARK   13  A    between atoms: C_28  and  C_31
REMARK                            x       y       z     vdW  Elec       q    Type
REMARK                         _______ _______ _______ _____ _____    ______ ____
ROOT
ATOM      1  O   UNL     1      -4.886   3.833  -0.152  0.00  0.00    -0.455 OA
ENDROOT
BRANCH   1   2
ATOM      2  C   UNL     1      -3.684   3.224  -0.166  0.00  0.00    +0.341 C 
ATOM      3  O   UNL     1      -2.667   3.888  -0.179  0.00  0.00    -0.245 OA
BRANCH   2   4
ATOM      4  C   UNL     1      -3.604   1.752  -0.165  0.00  0.00    +0.080 A 
ATOM      5  C   UNL     1      -4.769   0.985  -0.255  0.00  0.00    +0.017 A 
ATOM      6  C   UNL     1      -4.687  -0.391  -0.254  0.00  0.00    +0.001 A 
ATOM      7  C   UNL     1      -3.454  -1.018  -0.164  0.00  0.00    +0.002 A 
ATOM      8  C   UNL     1      -2.295  -0.274  -0.080  0.00  0.00    +0.024 A 
ATOM      9  C   UNL     1      -2.358   1.113  -0.074  0.00  0.00    +0.047 A 
BRANCH   9  10
ATOM     10  N   UNL     1      -1.190   1.867   0.016  0.00  0.00    -0.284 N 
ATOM     11  C   UNL     1      -0.091   1.339   0.591  0.00  0.00    +0.223 C 
ATOM     12  O   UNL     1      -0.146   0.248   1.118  0.00  0.00    -0.275 OA
ATOM     13  H   UNL     1      -1.168   2.771  -0.334  0.00  0.00    +0.155 HD
BRANCH  11  14
ATOM     14  C   UNL     1       1.208   2.102   0.572  0.00  0.00    +0.039 C 
ATOM     15  C   UNL     1       2.290   1.284   1.280  0.00  0.00    +0.020 C 
ATOM     16  C   UNL     1       1.629   2.358  -0.877  0.00  0.00    +0.020 C 
ATOM     17  C   UNL     1       1.026   3.438   1.294  0.00  0.00    +0.020 C 
ENDBRANCH  11  14
ENDBRANCH   9  10
ENDBRANCH   2   4
ENDBRANCH   1   2
BRANCH   1  18
ATOM     18  C   UNL     1      -4.889   5.285  -0.154  0.00  0.00    +0.288 C 
BRANCH  18  25
ATOM     19  C   UNL     1     -10.916   6.760  -1.367  0.00  0.00    +0.103 A 
ATOM     20  N   UNL     1     -10.248   7.065  -0.296  0.00  0.00    -0.159 NA
ATOM     21  N   UNL     1      -8.919   6.688  -0.133  0.00  0.00    -0.171 N 
ATOM     22  C   UNL     1      -8.113   6.946   0.939  0.00  0.00    +0.275 A 
ATOM     23  O   UNL     1      -8.547   7.573   1.893  0.00  0.00    -0.266 OA
ATOM     24  C   UNL     1      -6.794   6.492   0.943  0.00  0.00    +0.099 A 
ATOM     25  C   UNL     1      -6.311   5.785  -0.138  0.00  0.00    +0.087 A 
ATOM     26  N   UNL     1      -7.121   5.556  -1.168  0.00  0.00    -0.223 NA
ATOM     27  C   UNL     1      -8.359   5.981  -1.161  0.00  0.00    +0.199 A 
ATOM     28  S   UNL     1      -9.703   5.863  -2.322  0.00  0.00    -0.033 S 
BRANCH  19  29
ATOM     29  C   UNL     1     -12.347   7.079  -1.714  0.00  0.00    +0.068 C 
BRANCH  29  31
ATOM     30  C   UNL     1     -12.288   9.227  -0.439  0.00  0.00    +0.007 C 
ATOM     31  C   UNL     1     -12.985   7.871  -0.571  0.00  0.00    -0.011 C 
ATOM     32  C   UNL     1     -14.470   8.088  -0.867  0.00  0.00    +0.007 C 
ENDBRANCH  29  31
ENDBRANCH  19  29
ENDBRANCH  18  25
ENDBRANCH   1  18
TORSDOF 8
