REMARK  Name = ZINC08028468
REMARK  9 active torsions:
REMARK  status: ('A' for Active; 'I' for Inactive)
REMARK    1  A    between atoms: C_1  and  C_2
REMARK    2  A    between atoms: C_2  and  C_3
REMARK    3  A    between atoms: C_2  and  C_4
REMARK    4  A    between atoms: C_4  and  C_6
REMARK    5  A    between atoms: C_4  and  N_19
REMARK    6  A    between atoms: N_8  and  C_9
REMARK    7  A    between atoms: C_12  and  C_15
REMARK    8  A    between atoms: N_17  and  C_18
REMARK    9  A    between atoms: C_20  and  C_22
REMARK                            x       y       z     vdW  Elec       q    Type
REMARK                         _______ _______ _______ _____ _____    ______ ____
ROOT
ATOM      1  C   UNL     1      -2.299   7.249  -0.950  0.00  0.00    +0.162 C 
ENDROOT
BRANCH   1   2
ATOM      2  C   UNL     1      -2.448   7.774  -2.355  0.00  0.00    +0.238 C 
ATOM      3  O   UNL     1      -2.684   7.009  -3.266  0.00  0.00    -0.273 OA
ATOM      4  N   UNL     1      -2.318   9.093  -2.599  0.00  0.00    -0.284 N 
ATOM      5  H   UNL     1      -2.205   9.714  -1.862  0.00  0.00    +0.155 HD
BRANCH   4   6
ATOM      6  C   UNL     1      -2.346   9.566  -3.910  0.00  0.00    +0.033 A 
ATOM      7  C   UNL     1      -1.819   8.791  -4.939  0.00  0.00    +0.024 A 
ATOM      8  C   UNL     1      -1.850   9.252  -6.235  0.00  0.00    +0.015 A 
ATOM      9  C   UNL     1      -2.401  10.505  -6.517  0.00  0.00    +0.037 A 
ATOM     10  C   UNL     1      -2.925  11.283  -5.481  0.00  0.00    +0.015 A 
ATOM     11  C   UNL     1      -2.896  10.813  -4.187  0.00  0.00    +0.024 A 
BRANCH   9  12
ATOM     12  C   UNL     1      -2.431  11.005  -7.905  0.00  0.00    +0.244 C 
ATOM     13  O   UNL     1      -2.912  12.095  -8.148  0.00  0.00    -0.270 OA
ATOM     14  N   UNL     1      -1.926  10.254  -8.903  0.00  0.00    -0.314 N 
ATOM     15  C   UNL     1      -1.956  10.750 -10.281  0.00  0.00    +0.128 C 
ATOM     16  H   UNL     1      -1.543   9.384  -8.709  0.00  0.00    +0.149 HD
ENDBRANCH   9  12
ENDBRANCH   4   6
ENDBRANCH   1   2
BRANCH   1  17
ATOM     17  N   UNL     1      -2.483   5.796  -0.949  0.00  0.00    -0.303 N 
ATOM     18  C   UNL     1      -1.925   5.046   0.023  0.00  0.00    +0.220 C 
ATOM     19  O   UNL     1      -1.272   5.575   0.897  0.00  0.00    -0.275 OA
ATOM     20  H   UNL     1      -3.005   5.373  -1.649  0.00  0.00    +0.149 HD
BRANCH  18  21
ATOM     21  C   UNL     1      -2.115   3.551   0.023  0.00  0.00    +0.048 C 
ATOM     22  C   UNL     1      -1.544   2.965  -1.269  0.00  0.00    +0.019 C 
ATOM     23  C   UNL     1      -1.736   1.447  -1.269  0.00  0.00    -0.009 C 
ATOM     24  C   UNL     1      -1.007   0.841  -0.068  0.00  0.00    +0.007 C 
ATOM     25  C   UNL     1      -1.578   1.428   1.225  0.00  0.00    -0.009 C 
ATOM     26  C   UNL     1      -1.386   2.946   1.224  0.00  0.00    +0.019 C 
ATOM     27  C   UNL     1      -3.070   1.102   1.317  0.00  0.00    +0.007 C 
ATOM     28  C   UNL     1      -3.799   1.708   0.116  0.00  0.00    -0.009 C 
ATOM     29  C   UNL     1      -3.228   1.121  -1.177  0.00  0.00    +0.007 C 
ATOM     30  C   UNL     1      -3.607   3.226   0.115  0.00  0.00    +0.019 C 
ENDBRANCH  18  21
ENDBRANCH   1  17
BRANCH   1  32
ATOM     31  C   UNL     1      -4.747   7.458  -0.499  0.00  0.00    +0.009 C 
ATOM     32  C   UNL     1      -3.352   7.897  -0.049  0.00  0.00    +0.012 C 
ATOM     33  C   UNL     1      -3.123   7.460   1.399  0.00  0.00    +0.009 C 
ENDBRANCH   1  32
TORSDOF 6
