REMARK  Name = ZINC39558083
REMARK  10 active torsions:
REMARK  status: ('A' for Active; 'I' for Inactive)
REMARK    1  A    between atoms: C_1  and  C_2
REMARK    2  A    between atoms: C_9  and  C_17
REMARK    3  A    between atoms: N_12  and  C_13
REMARK    4  A    between atoms: C_13  and  C_14
REMARK    5  A    between atoms: C_14  and  O_15
REMARK    6  A    between atoms: O_15  and  C_16
REMARK    7  A    between atoms: C_17  and  N_18
REMARK    8  A    between atoms: N_18  and  C_19
REMARK    9  A    between atoms: C_19  and  C_20
REMARK   10  A    between atoms: C_20  and  N_25
REMARK                            x       y       z     vdW  Elec       q    Type
REMARK                         _______ _______ _______ _____ _____    ______ ____
ROOT
ATOM      1  C   UNL     1       0.183  -5.368   3.534  0.00  0.00    -0.041 C 
ENDROOT
BRANCH   1  10
ATOM      2  C   UNL     1       0.181   0.307  -1.304  0.00  0.00    +0.044 C 
ATOM      3  C   UNL     1       0.230  -1.170  -1.012  0.00  0.00    -0.050 A 
ATOM      4  C   UNL     1       0.322  -2.076  -2.060  0.00  0.00    +0.005 A 
ATOM      5  C   UNL     1       0.368  -3.432  -1.815  0.00  0.00    +0.027 A 
ATOM      6  C   UNL     1       0.322  -3.899  -0.506  0.00  0.00    +0.052 A 
ATOM      7  C   UNL     1       0.230  -2.978   0.554  0.00  0.00    -0.001 A 
ATOM      8  C   UNL     1       0.189  -1.606   0.282  0.00  0.00    +0.013 A 
ATOM      9  C   UNL     1       0.182  -3.479   1.929  0.00  0.00    +0.017 A 
ATOM     10  C   UNL     1       0.230  -4.819   2.131  0.00  0.00    +0.001 A 
ATOM     11  C   UNL     1       0.323  -5.701   1.033  0.00  0.00    +0.253 A 
ATOM     12  O   UNL     1       0.365  -6.902   1.238  0.00  0.00    -0.267 OA
ATOM     13  N   UNL     1       0.367  -5.250  -0.233  0.00  0.00    -0.306 N 
BRANCH  13  14
ATOM     14  C   UNL     1       0.464  -6.207  -1.337  0.00  0.00    +0.153 C 
BRANCH  14  15
ATOM     15  C   UNL     1       1.936  -6.478  -1.651  0.00  0.00    +0.181 C 
BRANCH  15  16
ATOM     16  O   UNL     1       2.549  -7.126  -0.534  0.00  0.00    -0.381 OA
ATOM     17  C   UNL     1       3.934  -7.426  -0.724  0.00  0.00    +0.194 C 
ENDBRANCH  15  16
ENDBRANCH  14  15
ENDBRANCH  13  14
ENDBRANCH   1  10
BRANCH   1  18
ATOM     18  N   UNL     1      -1.202  -5.719   3.877  0.00  0.00    +0.381 N 
ATOM     19  H   UNL     1      -1.781  -4.895   3.818  0.00  0.00    -0.086 HD
ATOM     20  H   UNL     1      -1.542  -6.415   3.231  0.00  0.00    -0.086 HD
BRANCH  18  21
ATOM     21  C   UNL     1      -1.247  -6.254   5.244  0.00  0.00    -0.094 C 
BRANCH  21  22
ATOM     22  C   UNL     1      -2.703  -6.497   5.648  0.00  0.00    -0.081 C 
ATOM     23  C   UNL     1      -3.444  -5.151   5.789  0.00  0.00    -0.014 C 
ATOM     24  C   UNL     1      -4.393  -5.365   6.995  0.00  0.00    -0.001 C 
ATOM     25  C   UNL     1      -3.534  -6.221   7.958  0.00  0.00    -0.001 C 
ATOM     26  C   UNL     1      -2.760  -7.177   7.027  0.00  0.00    -0.014 C 
BRANCH  22  27
ATOM     27  N   UNL     1      -3.370  -7.337   4.644  0.00  0.00    +0.382 N 
ATOM     28  C   UNL     1      -4.782  -7.506   5.010  0.00  0.00    -0.078 C 
ATOM     29  C   UNL     1      -5.500  -8.312   3.926  0.00  0.00    -0.019 C 
ATOM     30  C   UNL     1      -4.837  -9.686   3.796  0.00  0.00    -0.004 C 
ATOM     31  C   UNL     1      -3.349  -9.497   3.487  0.00  0.00    -0.019 C 
ATOM     32  C   UNL     1      -2.710  -8.647   4.588  0.00  0.00    -0.078 C 
ATOM     33  H   UNL     1      -3.310  -6.891   3.741  0.00  0.00    -0.081 HD
ENDBRANCH  22  27
ENDBRANCH  21  22
ENDBRANCH  18  21
ENDBRANCH   1  18
TORSDOF 8
