REMARK  Name = ZINC11163538
REMARK  8 active torsions:
REMARK  status: ('A' for Active; 'I' for Inactive)
REMARK    1  A    between atoms: C_1  and  C_2
REMARK    2  A    between atoms: C_2  and  C_29
REMARK    3  A    between atoms: C_5  and  C_27
REMARK    4  A    between atoms: C_6  and  N_12
REMARK    5  A    between atoms: C_9  and  C_10
REMARK    6  A    between atoms: C_9  and  C_11
REMARK    7  A    between atoms: C_13  and  C_15
REMARK    8  A    between atoms: C_15  and  N_16
REMARK                            x       y       z     vdW  Elec       q    Type
REMARK                         _______ _______ _______ _____ _____    ______ ____
ROOT
ATOM      1  C   UNL     1      -0.013   1.086   0.008  0.00  0.00    -0.010 C 
ATOM      2  C   UNL     1      -0.730   1.580   1.268  0.00  0.00    -0.069 C 
ATOM      3  C   UNL     1      -2.143   0.986   1.310  0.00  0.00    +0.024 C 
ATOM      4  C   UNL     1      -2.923   1.590   0.149  0.00  0.00    -0.021 A 
ATOM      5  C   UNL     1      -3.977   0.940  -0.599  0.00  0.00    +0.084 A 
ATOM      6  C   UNL     1      -4.556   1.658  -1.639  0.00  0.00    +0.090 A 
ATOM      7  S   UNL     1      -3.705   3.167  -1.603  0.00  0.00    -0.078 S 
ATOM      8  C   UNL     1      -2.617   2.850  -0.245  0.00  0.00    -0.015 A 
ATOM      9  C   UNL     1      -1.583   3.743   0.358  0.00  0.00    -0.041 C 
ATOM     10  C   UNL     1      -2.301   4.903   1.073  0.00  0.00    -0.005 C 
ATOM     11  C   UNL     1      -0.714   4.340  -0.758  0.00  0.00    -0.005 C 
ATOM     12  C   UNL     1       0.043   1.051   2.491  0.00  0.00    -0.010 C 
ATOM     13  N   UNL     1      -0.717   3.062   1.363  0.00  0.00    +0.389 N 
ATOM     14  H   UNL     1       0.248   3.386   1.231  0.00  0.00    -0.084 HD
ATOM     15  H   UNL     1      -1.041   3.328   2.301  0.00  0.00    -0.084 HD
ENDROOT
BRANCH   6  16
ATOM     16  N   UNL     1      -5.571   1.260  -2.497  0.00  0.00    -0.278 N 
ATOM     17  C   UNL     1      -6.010   2.098  -3.456  0.00  0.00    +0.235 C 
ATOM     18  O   UNL     1      -5.518   3.200  -3.570  0.00  0.00    -0.274 OA
ATOM     19  H   UNL     1      -5.965   0.378  -2.405  0.00  0.00    +0.155 HD
BRANCH  17  20
ATOM     20  C   UNL     1      -7.113   1.665  -4.388  0.00  0.00    +0.213 C 
BRANCH  20  21
ATOM     21  N   UNL     1      -7.407   2.746  -5.332  0.00  0.00    -0.225 N 
ATOM     22  C   UNL     1      -8.317   3.714  -5.123  0.00  0.00    +0.254 C 
ATOM     23  O   UNL     1      -9.015   3.829  -4.136  0.00  0.00    -0.270 OA
ATOM     24  C   UNL     1      -8.324   4.616  -6.294  0.00  0.00    +0.049 A 
ATOM     25  C   UNL     1      -9.034   5.757  -6.633  0.00  0.00    +0.014 A 
ATOM     26  C   UNL     1      -8.795   6.378  -7.848  0.00  0.00    +0.001 A 
ATOM     27  C   UNL     1      -7.855   5.869  -8.724  0.00  0.00    +0.001 A 
ATOM     28  C   UNL     1      -7.138   4.728  -8.398  0.00  0.00    +0.014 A 
ATOM     29  C   UNL     1      -7.365   4.096  -7.186  0.00  0.00    +0.049 A 
ATOM     30  C   UNL     1      -6.805   2.898  -6.526  0.00  0.00    +0.254 C 
ATOM     31  O   UNL     1      -5.945   2.173  -6.984  0.00  0.00    -0.270 OA
ENDBRANCH  20  21
ENDBRANCH  17  20
ENDBRANCH   6  16
BRANCH   5  32
ATOM     32  C   UNL     1      -4.416  -0.387  -0.288  0.00  0.00    +0.102 C 
ATOM     33  N   UNL     1      -4.764  -1.440  -0.041  0.00  0.00    -0.191 NA
ENDBRANCH   5  32
TORSDOF 4
