REMARK  Name = ZINC64166558
REMARK  8 active torsions:
REMARK  status: ('A' for Active; 'I' for Inactive)
REMARK    1  A    between atoms: C_1  and  O_2
REMARK    2  A    between atoms: O_2  and  C_3
REMARK    3  A    between atoms: C_3  and  C_5
REMARK    4  A    between atoms: C_8  and  N_20
REMARK    5  A    between atoms: N_11  and  C_12
REMARK    6  A    between atoms: C_12  and  C_13
REMARK    7  A    between atoms: C_21  and  C_23
REMARK    8  A    between atoms: C_25  and  C_34
REMARK                            x       y       z     vdW  Elec       q    Type
REMARK                         _______ _______ _______ _____ _____    ______ ____
ROOT
ATOM      1  N   UNL     1      -1.597  -4.083  -3.139  0.00  0.00    -0.309 N 
ATOM      2  C   UNL     1      -1.757  -5.342  -3.593  0.00  0.00    +0.240 C 
ATOM      3  O   UNL     1      -1.862  -6.261  -2.809  0.00  0.00    -0.273 OA
ATOM      4  H   UNL     1      -1.447  -3.357  -3.764  0.00  0.00    +0.149 HD
ENDROOT
BRANCH   2   5
ATOM      5  C   UNL     1      -1.804  -5.608  -5.076  0.00  0.00    +0.198 C 
ATOM      6  C   UNL     1      -0.417  -5.914  -5.595  0.00  0.00    -0.000 C 
ATOM      7  C   UNL     1      -0.485  -7.196  -6.113  0.00  0.00    +0.006 A 
ATOM      8  C   UNL     1       0.477  -8.030  -6.734  0.00  0.00    +0.030 A 
ATOM      9  C   UNL     1       0.121  -9.269  -7.154  0.00  0.00    +0.042 A 
ATOM     10  C   UNL     1      -1.183  -9.753  -6.992  0.00  0.00    +0.022 A 
ATOM     11  C   UNL     1      -2.154  -9.013  -6.408  0.00  0.00    +0.027 A 
ATOM     12  C   UNL     1      -1.860  -7.704  -5.940  0.00  0.00    +0.044 A 
ATOM     13  N   UNL     1      -2.613  -6.800  -5.350  0.00  0.00    -0.370 N 
ATOM     14 CL   UNL     1       1.311 -10.279  -7.914  0.00  0.00    -0.084 Cl
ATOM     15  H   UNL     1      -3.552  -6.905  -5.130  0.00  0.00    +0.161 HD
BRANCH   6  16
ATOM     16  C   UNL     1       0.755  -5.037  -5.557  0.00  0.00    -0.019 A 
ATOM     17  C   UNL     1       2.046  -5.583  -5.604  0.00  0.00    +0.008 A 
ATOM     18  C   UNL     1       3.143  -4.750  -5.569  0.00  0.00    +0.001 A 
ATOM     19  C   UNL     1       2.974  -3.378  -5.486  0.00  0.00    +0.000 A 
ATOM     20  C   UNL     1       1.703  -2.830  -5.439  0.00  0.00    +0.001 A 
ATOM     21  C   UNL     1       0.594  -3.647  -5.479  0.00  0.00    +0.008 A 
ENDBRANCH   6  16
ENDBRANCH   2   5
BRANCH   1  24
ATOM     22  C   UNL     1      -1.547  -2.035  -0.057  0.00  0.00    +0.168 C 
ATOM     23  C   UNL     1      -0.859  -2.524  -1.349  0.00  0.00    +0.054 C 
ATOM     24  C   UNL     1      -1.650  -3.812  -1.700  0.00  0.00    +0.089 C 
ATOM     25  C   UNL     1      -3.084  -3.428  -1.260  0.00  0.00    +0.107 C 
ATOM     26  N   UNL     1      -2.900  -2.622  -0.030  0.00  0.00    -0.284 NA
BRANCH  22  27
ATOM     27  C   UNL     1      -1.641  -0.531  -0.064  0.00  0.00    +0.324 C 
ATOM     28  O   UNL     1      -2.723   0.007  -0.042  0.00  0.00    -0.249 OA
BRANCH  27  30
ATOM     29  C   UNL     1      -0.686   1.630  -0.099  0.00  0.00    +0.280 C 
ATOM     30  O   UNL     1      -0.523   0.210  -0.094  0.00  0.00    -0.467 OA
ENDBRANCH  27  30
ENDBRANCH  22  27
BRANCH  26  31
ATOM     31  C   UNL     1      -3.094  -3.441   1.174  0.00  0.00    +0.120 C 
BRANCH  31  32
ATOM     32  C   UNL     1      -4.548  -3.820   1.295  0.00  0.00    -0.031 A 
ATOM     33  C   UNL     1      -5.421  -3.000   1.986  0.00  0.00    +0.005 A 
ATOM     34  C   UNL     1      -6.754  -3.346   2.097  0.00  0.00    +0.003 A 
ATOM     35  C   UNL     1      -7.216  -4.513   1.518  0.00  0.00    +0.038 A 
ATOM     36  C   UNL     1      -6.343  -5.335   0.826  0.00  0.00    +0.124 A 
ATOM     37  C   UNL     1      -5.009  -4.984   0.710  0.00  0.00    +0.043 A 
ATOM     38  F   UNL     1      -6.794  -6.476   0.259  0.00  0.00    -0.205 F 
ENDBRANCH  31  32
ENDBRANCH  26  31
ENDBRANCH   1  24
TORSDOF 7
