REMARK  Name = ZINC62244890
REMARK  5 active torsions:
REMARK  status: ('A' for Active; 'I' for Inactive)
REMARK    1  A    between atoms: C_1  and  C_2
REMARK    2  A    between atoms: C_7  and  N_8
REMARK    3  A    between atoms: C_9  and  N_22
REMARK    4  A    between atoms: C_10  and  S_13
REMARK    5  A    between atoms: S_13  and  C_16
REMARK                            x       y       z     vdW  Elec       q    Type
REMARK                         _______ _______ _______ _____ _____    ______ ____
ROOT
ATOM      1  N   UNL     1       0.388   0.146   2.329  0.00  0.00    -0.197 N 
ATOM      2  C   UNL     1       0.378  -0.352   3.600  0.00  0.00    +0.166 A 
ATOM      3  C   UNL     1       0.155   0.702   4.429  0.00  0.00    +0.244 A 
ATOM      4  N   UNL     1       0.031   1.808   3.695  0.00  0.00    -0.108 NA
ATOM      5  N   UNL     1       0.168   1.527   2.446  0.00  0.00    -0.057 NA
ENDROOT
BRANCH   1  12
ATOM      6  C   UNL     1      -1.424   0.572   0.176  0.00  0.00    +0.046 C 
ATOM      7  C   UNL     1      -0.277  -0.399   0.070  0.00  0.00    -0.025 A 
ATOM      8  C   UNL     1      -0.078  -1.109  -1.098  0.00  0.00    +0.005 A 
ATOM      9  C   UNL     1       0.975  -2.000  -1.196  0.00  0.00    +0.000 A 
ATOM     10  C   UNL     1       1.831  -2.184  -0.126  0.00  0.00    +0.002 A 
ATOM     11  C   UNL     1       1.637  -1.477   1.044  0.00  0.00    +0.028 A 
ATOM     12  C   UNL     1       0.584  -0.577   1.144  0.00  0.00    +0.072 A 
ENDBRANCH   1  12
BRANCH   3  13
ATOM     13  S   UNL     1       0.046   0.620   6.185  0.00  0.00    +0.047 S 
ATOM     14  O   UNL     1      -0.719   1.744   6.598  0.00  0.00    -0.163 OA
ATOM     15  O   UNL     1      -0.326  -0.714   6.507  0.00  0.00    -0.163 OA
BRANCH  13  16
ATOM     16  C   UNL     1       1.673   0.856   6.820  0.00  0.00    +0.095 A 
ATOM     17  C   UNL     1       2.502  -0.232   7.020  0.00  0.00    +0.027 A 
ATOM     18  C   UNL     1       3.778  -0.046   7.518  0.00  0.00    +0.002 A 
ATOM     19  C   UNL     1       4.225   1.228   7.815  0.00  0.00    +0.000 A 
ATOM     20  C   UNL     1       3.396   2.316   7.614  0.00  0.00    +0.002 A 
ATOM     21  C   UNL     1       2.122   2.131   7.112  0.00  0.00    +0.027 A 
ENDBRANCH  13  16
ENDBRANCH   3  13
BRANCH   2  22
ATOM     22  N   UNL     1       0.561  -1.681   3.975  0.00  0.00    -0.340 N 
ATOM     23  H   UNL     1       0.619  -2.372   3.297  0.00  0.00    +0.144 HD
ATOM     24  H   UNL     1       0.631  -1.915   4.914  0.00  0.00    +0.144 HD
ENDBRANCH   2  22
TORSDOF 4
