REMARK  Name = ZINC09443700
REMARK  7 active torsions:
REMARK  status: ('A' for Active; 'I' for Inactive)
REMARK    1  A    between atoms: C_1  and  C_2
REMARK    2  A    between atoms: C_3  and  C_19
REMARK    3  A    between atoms: C_4  and  C_10
REMARK    4  A    between atoms: C_13  and  C_16
REMARK    5  A    between atoms: C_16  and  C_17
REMARK    6  A    between atoms: C_16  and  C_18
REMARK    7  A    between atoms: N_21  and  C_22
REMARK                            x       y       z     vdW  Elec       q    Type
REMARK                         _______ _______ _______ _____ _____    ______ ____
ROOT
ATOM      1  C   UNL     1      -3.276  -2.851  -0.928  0.00  0.00    +0.061 C 
ATOM      2  C   UNL     1      -1.889  -3.293  -0.538  0.00  0.00    +0.019 C 
ATOM      3  C   UNL     1      -0.886  -2.391  -0.519  0.00  0.00    +0.056 C 
ATOM      4  C   UNL     1       0.492  -2.876  -0.116  0.00  0.00    +0.142 C 
ATOM      5  N   UNL     1       0.625  -4.304   0.219  0.00  0.00    -0.288 N 
ATOM      6  C   UNL     1      -0.471  -5.085   0.148  0.00  0.00    +0.304 C 
ATOM      7  O   UNL     1      -0.372  -6.264   0.423  0.00  0.00    -0.252 OA
ATOM      8  N   UNL     1      -1.667  -4.603  -0.215  0.00  0.00    -0.273 N 
ATOM      9  H   UNL     1       1.482  -4.674   0.485  0.00  0.00    +0.151 HD
ATOM     10  H   UNL     1      -2.417  -5.216  -0.247  0.00  0.00    +0.156 HD
ENDROOT
BRANCH   4  11
ATOM     11  C   UNL     1       1.440  -2.575  -1.248  0.00  0.00    -0.023 A 
ATOM     12  C   UNL     1       1.364  -3.298  -2.424  0.00  0.00    +0.006 A 
ATOM     13  C   UNL     1       2.231  -3.018  -3.464  0.00  0.00    +0.004 A 
ATOM     14  C   UNL     1       3.180  -2.023  -3.324  0.00  0.00    -0.045 A 
ATOM     15  C   UNL     1       3.260  -1.304  -2.146  0.00  0.00    +0.004 A 
ATOM     16  C   UNL     1       2.390  -1.580  -1.108  0.00  0.00    +0.006 A 
BRANCH  14  17
ATOM     17  C   UNL     1       4.129  -1.723  -4.456  0.00  0.00    +0.013 C 
ATOM     18  C   UNL     1       4.949  -2.974  -4.780  0.00  0.00    +0.012 C 
ATOM     19  C   UNL     1       3.332  -1.302  -5.692  0.00  0.00    +0.012 C 
ENDBRANCH  14  17
ENDBRANCH   4  11
BRANCH   3  20
ATOM     20  C   UNL     1      -1.114  -1.035  -0.859  0.00  0.00    +0.248 C 
ATOM     21  O   UNL     1      -1.317  -0.214   0.016  0.00  0.00    -0.270 OA
ATOM     22  N   UNL     1      -1.107  -0.654  -2.152  0.00  0.00    -0.282 N 
ATOM     23  H   UNL     1      -1.047  -1.321  -2.854  0.00  0.00    +0.155 HD
BRANCH  22  24
ATOM     24  C   UNL     1      -1.185   0.703  -2.482  0.00  0.00    +0.034 A 
ATOM     25  C   UNL     1      -1.991   1.555  -1.737  0.00  0.00    +0.024 A 
ATOM     26  C   UNL     1      -2.062   2.895  -2.061  0.00  0.00    +0.017 A 
ATOM     27  C   UNL     1      -1.340   3.388  -3.134  0.00  0.00    +0.018 A 
ATOM     28  C   UNL     1      -0.541   2.541  -3.881  0.00  0.00    +0.017 A 
ATOM     29  C   UNL     1      -0.461   1.201  -3.558  0.00  0.00    +0.024 A 
ATOM     30 BR   UNL     1      -1.446   5.223  -3.579  0.00  0.00    -0.050 Br
ENDBRANCH  22  24
ENDBRANCH   3  20
TORSDOF 4
