REMARK  Name = ZINC02120612
REMARK  9 active torsions:
REMARK  status: ('A' for Active; 'I' for Inactive)
REMARK    1  A    between atoms: C_1  and  O_2
REMARK    2  A    between atoms: O_2  and  C_3
REMARK    3  A    between atoms: C_6  and  C_20
REMARK    4  A    between atoms: C_8  and  C_9
REMARK    5  A    between atoms: C_9  and  S_10
REMARK    6  A    between atoms: S_10  and  C_11
REMARK    7  A    between atoms: C_33  and  C_35
REMARK    8  A    between atoms: C_35  and  O_37
REMARK    9  A    between atoms: O_37  and  C_38
REMARK                            x       y       z     vdW  Elec       q    Type
REMARK                         _______ _______ _______ _____ _____    ______ ____
ROOT
ATOM      1  C   UNL     1       2.490   1.045  -0.016  0.00  0.00    +0.008 C 
ATOM      2  C   UNL     1       2.812   0.553   1.375  0.00  0.00    +0.010 A 
ATOM      3  C   UNL     1       3.292  -0.687   1.626  0.00  0.00    -0.021 A 
ATOM      4  C   UNL     1       3.474  -0.794   3.056  0.00  0.00    +0.003 A 
ATOM      5  C   UNL     1       3.933  -1.825   3.882  0.00  0.00    +0.010 A 
ATOM      6  C   UNL     1       3.975  -1.568   5.230  0.00  0.00    +0.001 A 
ATOM      7  C   UNL     1       3.584  -0.350   5.761  0.00  0.00    +0.002 A 
ATOM      8  C   UNL     1       3.126   0.688   4.967  0.00  0.00    +0.026 A 
ATOM      9  C   UNL     1       3.072   0.456   3.595  0.00  0.00    +0.047 A 
ATOM     10  N   UNL     1       2.680   1.243   2.549  0.00  0.00    -0.359 N 
ATOM     11  H   UNL     1       2.357   2.154   2.627  0.00  0.00    +0.166 HD
ATOM     12  C   UNL     1       3.558  -1.709   0.549  0.00  0.00    +0.033 C 
ATOM     13  C   UNL     1       3.579  -0.980  -0.802  0.00  0.00    +0.045 C 
ATOM     14  N   UNL     1       2.383  -0.121  -0.920  0.00  0.00    +0.396 N 
ATOM     15  H   UNL     1       2.298   0.209  -1.888  0.00  0.00    -0.083 HD
ATOM     16  H   UNL     1       1.549  -0.666  -0.670  0.00  0.00    -0.083 HD
ENDROOT
BRANCH   1  20
ATOM     17  C   UNL     1      -1.236   3.137   0.030  0.00  0.00    +0.124 A 
ATOM     18  C   UNL     1      -1.218   1.750   0.017  0.00  0.00    +0.046 A 
ATOM     19  C   UNL     1      -0.013   1.076   0.008  0.00  0.00    +0.006 A 
ATOM     20  C   UNL     1       1.176   1.783   0.000  0.00  0.00    -0.055 A 
ATOM     21  C   UNL     1       1.161   3.165   0.007  0.00  0.00    +0.010 A 
ATOM     22  C   UNL     1      -0.043   3.844   0.022  0.00  0.00    +0.005 A 
BRANCH  17  24
ATOM     23  C   UNL     1      -3.610   3.009   0.052  0.00  0.00    +0.277 C 
ATOM     24  O   UNL     1      -2.421   3.802   0.045  0.00  0.00    -0.495 OA
ENDBRANCH  17  24
BRANCH  22  25
ATOM     25  C   UNL     1      -0.059   5.351   0.029  0.00  0.00    +0.115 C 
BRANCH  25  26
ATOM     26  S   UNL     1      -0.082   5.962  -1.674  0.00  0.00    -0.094 S 
BRANCH  26  27
ATOM     27  C   UNL     1      -0.098   7.699  -1.376  0.00  0.00    +0.136 A 
ATOM     28  N   UNL     1      -0.099   8.338  -0.227  0.00  0.00    -0.233 NA
ATOM     29  C   UNL     1      -0.109   9.686  -0.148  0.00  0.00    +0.079 A 
ATOM     30  C   UNL     1      -0.107  10.492   1.014  0.00  0.00    +0.029 A 
ATOM     31  C   UNL     1      -0.123  11.860   0.917  0.00  0.00    +0.002 A 
ATOM     32  C   UNL     1      -0.141  12.499  -0.313  0.00  0.00    +0.001 A 
ATOM     33  C   UNL     1      -0.144  11.742  -1.471  0.00  0.00    +0.017 A 
ATOM     34  C   UNL     1      -0.128  10.372  -1.384  0.00  0.00    +0.040 A 
ATOM     35  S   UNL     1      -0.124   9.039  -2.558  0.00  0.00    -0.061 S 
ENDBRANCH  26  27
ENDBRANCH  25  26
ENDBRANCH  22  25
ENDBRANCH   1  20
BRANCH  13  36
ATOM     36  C   UNL     1       3.570  -1.991  -1.919  0.00  0.00    +0.293 C 
ATOM     37  O   UNL     1       2.539  -2.246  -2.495  0.00  0.00    -0.253 OA
BRANCH  36  38
ATOM     38  O   UNL     1       4.707  -2.610  -2.273  0.00  0.00    -0.469 OA
ATOM     39  C   UNL     1       4.624  -3.572  -3.357  0.00  0.00    +0.280 C 
ENDBRANCH  36  38
ENDBRANCH  13  36
TORSDOF 7
