REMARK  Name = ZINC13787419
REMARK  5 active torsions:
REMARK  status: ('A' for Active; 'I' for Inactive)
REMARK    1  A    between atoms: C_4  and  N_7
REMARK    2  A    between atoms: C_8  and  C_27
REMARK    3  A    between atoms: N_17  and  C_20
REMARK    4  A    between atoms: C_30  and  O_34
REMARK    5  A    between atoms: C_31  and  O_33
REMARK                            x       y       z     vdW  Elec       q    Type
REMARK                         _______ _______ _______ _____ _____    ______ ____
ROOT
ATOM      1  N   UNL     1       1.380   3.519  -0.103  0.00  0.00    -0.244 N 
ATOM      2  C   UNL     1       1.846   4.020   1.228  0.00  0.00    +0.157 C 
ATOM      3  C   UNL     1       0.560   4.526   1.885  0.00  0.00    +0.145 C 
ATOM      4  C   UNL     1      -0.159   5.012   0.564  0.00  0.00    +0.249 C 
ATOM      5  O   UNL     1      -0.058   3.909  -0.245  0.00  0.00    -0.257 OA
ATOM      6  C   UNL     1      -1.176   5.894   1.111  0.00  0.00    +0.259 C 
ATOM      7  O   UNL     1      -2.301   6.071   0.696  0.00  0.00    -0.272 OA
ATOM      8  N   UNL     1      -0.586   6.482   2.199  0.00  0.00    -0.208 N 
ATOM      9  C   UNL     1       0.572   5.864   2.572  0.00  0.00    +0.235 C 
ATOM     10  O   UNL     1       1.433   6.303   3.304  0.00  0.00    -0.274 OA
ENDROOT
BRANCH   8  11
ATOM     11  C   UNL     1      -1.117   7.599   2.860  0.00  0.00    +0.045 A 
ATOM     12  C   UNL     1      -0.461   8.133   3.961  0.00  0.00    +0.024 A 
ATOM     13  C   UNL     1      -0.982   9.236   4.607  0.00  0.00    +0.003 A 
ATOM     14  C   UNL     1      -2.163   9.804   4.165  0.00  0.00    +0.020 A 
ATOM     15  C   UNL     1      -2.823   9.272   3.072  0.00  0.00    +0.043 A 
ATOM     16  C   UNL     1      -2.302   8.170   2.418  0.00  0.00    +0.044 A 
ATOM     17 CL   UNL     1      -4.306   9.987   2.521  0.00  0.00    -0.083 Cl
ENDBRANCH   8  11
BRANCH   1  21
ATOM     18  C   UNL     1       1.841  -0.609  -0.389  0.00  0.00    +0.000 A 
ATOM     19  C   UNL     1       0.579  -0.065  -0.239  0.00  0.00    +0.002 A 
ATOM     20  C   UNL     1       0.423   1.304  -0.144  0.00  0.00    +0.028 A 
ATOM     21  C   UNL     1       1.535   2.134  -0.199  0.00  0.00    +0.065 A 
ATOM     22  C   UNL     1       2.802   1.584  -0.348  0.00  0.00    +0.028 A 
ATOM     23  C   UNL     1       2.951   0.214  -0.443  0.00  0.00    +0.002 A 
ENDBRANCH   1  21
BRANCH   2  24
ATOM     24  C   UNL     1       2.450   2.900   2.035  0.00  0.00    -0.018 A 
ATOM     25  C   UNL     1       1.658   1.849   2.457  0.00  0.00    +0.009 A 
ATOM     26  C   UNL     1       2.209   0.816   3.193  0.00  0.00    +0.049 A 
ATOM     27  C   UNL     1       3.555   0.839   3.519  0.00  0.00    +0.158 A 
ATOM     28  C   UNL     1       4.351   1.900   3.099  0.00  0.00    +0.159 A 
ATOM     29  C   UNL     1       3.794   2.929   2.356  0.00  0.00    +0.055 A 
BRANCH  28  30
ATOM     30  O   UNL     1       5.674   1.927   3.415  0.00  0.00    -0.503 OA
ATOM     31  H   UNL     1       6.302   2.767   3.083  0.00  0.00    +0.292 HD
ENDBRANCH  28  30
BRANCH  27  32
ATOM     32  O   UNL     1       4.098  -0.173   4.248  0.00  0.00    -0.503 OA
ATOM     33  H   UNL     1       5.167  -0.153   4.505  0.00  0.00    +0.292 HD
ENDBRANCH  27  32
ENDBRANCH   2  24
TORSDOF 5
