REMARK  Name = ZINC61881402
REMARK  5 active torsions:
REMARK  status: ('A' for Active; 'I' for Inactive)
REMARK    1  A    between atoms: C_1  and  C_2
REMARK    2  A    between atoms: N_5  and  S_11
REMARK    3  A    between atoms: C_7  and  C_10
REMARK    4  A    between atoms: S_11  and  C_14
REMARK    5  A    between atoms: C_18  and  N_21
REMARK                            x       y       z     vdW  Elec       q    Type
REMARK                         _______ _______ _______ _____ _____    ______ ____
ROOT
ATOM      1  S   UNL     1      -2.225  -3.006  -0.815  0.00  0.00    +0.062 S 
ATOM      2  O   UNL     1      -2.504  -4.281  -0.251  0.00  0.00    -0.153 OA
ATOM      3  O   UNL     1      -3.251  -2.115  -1.229  0.00  0.00    -0.153 OA
ENDROOT
BRANCH   1   7
ATOM      4  C   UNL     1      -0.050   1.354   0.717  0.00  0.00    +0.039 C 
ATOM      5  C   UNL     1       0.006  -0.138   0.383  0.00  0.00    +0.131 C 
ATOM      6  C   UNL     1      -1.408  -0.728   0.433  0.00  0.00    +0.140 C 
ATOM      7  N   UNL     1      -1.307  -2.189   0.295  0.00  0.00    -0.172 NA
ATOM      8  C   UNL     1      -0.365  -2.903   1.173  0.00  0.00    +0.140 C 
ATOM      9  C   UNL     1       0.998  -2.207   1.087  0.00  0.00    +0.131 C 
ATOM     10  O   UNL     1       0.831  -0.810   1.338  0.00  0.00    -0.371 OA
ATOM     11  C   UNL     1       1.943  -2.806   2.130  0.00  0.00    +0.039 C 
ENDBRANCH   1   7
BRANCH   1  12
ATOM     12  C   UNL     1      -1.207  -3.292  -2.224  0.00  0.00    +0.123 A 
ATOM     13  C   UNL     1      -0.808  -4.578  -2.539  0.00  0.00    +0.049 A 
ATOM     14  C   UNL     1      -0.009  -4.807  -3.646  0.00  0.00    +0.045 A 
ATOM     15  C   UNL     1       0.393  -3.749  -4.440  0.00  0.00    +0.044 A 
ATOM     16  C   UNL     1      -0.005  -2.457  -4.126  0.00  0.00    +0.042 A 
ATOM     17  C   UNL     1      -0.812  -2.231  -3.017  0.00  0.00    +0.065 A 
ATOM     18 BR   UNL     1      -1.365  -0.474  -2.589  0.00  0.00    -0.046 Br
ATOM     19 CL   UNL     1       0.489  -6.423  -4.037  0.00  0.00    -0.083 Cl
BRANCH  16  20
ATOM     20  N   UNL     1       0.400  -1.385  -4.926  0.00  0.00    -0.357 N 
ATOM     21  H   UNL     1       0.960  -1.544  -5.702  0.00  0.00    +0.142 HD
ATOM     22  H   UNL     1       0.121  -0.483  -4.706  0.00  0.00    +0.142 HD
ENDBRANCH  16  20
ENDBRANCH   1  12
TORSDOF 3
