REMARK  Name = ZINC58917113
REMARK  9 active torsions:
REMARK  status: ('A' for Active; 'I' for Inactive)
REMARK    1  A    between atoms: C_1  and  C_2
REMARK    2  A    between atoms: C_2  and  C_17
REMARK    3  A    between atoms: N_3  and  N_4
REMARK    4  A    between atoms: C_5  and  C_7
REMARK    5  A    between atoms: C_7  and  O_8
REMARK    6  A    between atoms: O_8  and  C_9
REMARK    7  A    between atoms: C_14  and  O_15
REMARK    8  A    between atoms: O_15  and  C_16
REMARK    9  A    between atoms: C_30  and  C_33
REMARK                            x       y       z     vdW  Elec       q    Type
REMARK                         _______ _______ _______ _____ _____    ______ ____
ROOT
ATOM      1  C   UNL     1      -0.000  -0.734  -1.278  0.00  0.00    -0.002 A 
ATOM      2  C   UNL     1      -0.015  -0.031  -2.486  0.00  0.00    +0.011 A 
ATOM      3  C   UNL     1      -0.023  -0.722  -3.676  0.00  0.00    +0.024 A 
ATOM      4  C   UNL     1      -0.014  -2.116  -3.681  0.00  0.00    +0.031 A 
ATOM      5  C   UNL     1       0.013  -2.820  -2.488  0.00  0.00    -0.019 A 
ATOM      6  C   UNL     1       0.019  -2.129  -1.289  0.00  0.00    +0.015 A 
ATOM      7  C   UNL     1       0.059  -4.322  -2.442  0.00  0.00    +0.049 C 
ATOM      8  C   UNL     1       1.205  -4.723  -1.527  0.00  0.00    -0.023 C 
ATOM      9  C   UNL     1       2.247  -5.090  -2.227  0.00  0.00    -0.030 C 
ATOM     10  C   UNL     1       1.960  -5.003  -3.711  0.00  0.00    +0.033 C 
ATOM     11  C   UNL     1       0.402  -4.952  -3.790  0.00  0.00    +0.029 C 
ATOM     12  C   UNL     1      -0.102  -4.228  -5.002  0.00  0.00    +0.106 C 
ATOM     13  N   UNL     1      -0.038  -2.783  -4.900  0.00  0.00    -0.336 N 
ATOM     14  H   UNL     1      -0.036  -2.258  -5.716  0.00  0.00    +0.147 HD
ENDROOT
BRANCH  12  15
ATOM     15  C   UNL     1       0.739  -4.636  -6.185  0.00  0.00    -0.009 A 
ATOM     16  C   UNL     1       1.823  -3.865  -6.561  0.00  0.00    +0.007 A 
ATOM     17  C   UNL     1       2.594  -4.240  -7.645  0.00  0.00    +0.000 A 
ATOM     18  C   UNL     1       2.281  -5.385  -8.354  0.00  0.00    +0.001 A 
ATOM     19  C   UNL     1       1.197  -6.155  -7.979  0.00  0.00    +0.020 A 
ATOM     20  C   UNL     1       0.428  -5.784  -6.890  0.00  0.00    +0.046 A 
ATOM     21 CL   UNL     1      -0.929  -6.756  -6.415  0.00  0.00    -0.083 Cl
ENDBRANCH  12  15
BRANCH   1  23
ATOM     22  C   UNL     1      -0.018   1.503   0.010  0.00  0.00    +0.068 C 
ATOM     23  C   UNL     1       0.002  -0.004   0.002  0.00  0.00    +0.063 C 
ATOM     24  N   UNL     1       0.022  -0.659   1.123  0.00  0.00    -0.184 NA
BRANCH  24  25
ATOM     25  N   UNL     1       0.024   0.035   2.340  0.00  0.00    -0.204 N 
ATOM     26  C   UNL     1       0.044  -0.645   3.503  0.00  0.00    +0.270 C 
ATOM     27  O   UNL     1       0.060  -1.858   3.496  0.00  0.00    -0.270 OA
ATOM     28  H   UNL     1       0.011   1.005   2.345  0.00  0.00    +0.177 HD
BRANCH  26  29
ATOM     29  C   UNL     1       0.046   0.101   4.812  0.00  0.00    +0.326 C 
BRANCH  29  30
ATOM     30  O   UNL     1       0.069  -0.833   5.893  0.00  0.00    -0.479 OA
BRANCH  30  31
ATOM     31  C   UNL     1       0.074  -0.320   7.153  0.00  0.00    +0.163 A 
ATOM     32  C   UNL     1       0.051   1.052   7.343  0.00  0.00    +0.049 A 
ATOM     33  C   UNL     1       0.056   1.572   8.624  0.00  0.00    +0.004 A 
ATOM     34  C   UNL     1       0.084   0.725   9.717  0.00  0.00    +0.004 A 
ATOM     35  C   UNL     1       0.107  -0.645   9.534  0.00  0.00    +0.049 A 
ATOM     36  C   UNL     1       0.096  -1.172   8.252  0.00  0.00    +0.162 A 
BRANCH  36  37
ATOM     37  O   UNL     1       0.113  -2.520   8.070  0.00  0.00    -0.491 OA
ATOM     38  C   UNL     1       0.135  -3.333   9.245  0.00  0.00    +0.277 C 
ENDBRANCH  36  37
ENDBRANCH  30  31
ENDBRANCH  29  30
ENDBRANCH  26  29
ENDBRANCH  24  25
ENDBRANCH   1  23
TORSDOF 7
