REMARK  Name = ZINC64392183
REMARK  8 active torsions:
REMARK  status: ('A' for Active; 'I' for Inactive)
REMARK    1  A    between atoms: C_1  and  C_2
REMARK    2  A    between atoms: C_2  and  O_3
REMARK    3  A    between atoms: O_3  and  C_4
REMARK    4  A    between atoms: C_8  and  C_10
REMARK    5  A    between atoms: C_12  and  C_16
REMARK    6  A    between atoms: N_26  and  C_29
REMARK    7  A    between atoms: C_29  and  C_30
REMARK    8  A    between atoms: C_30  and  C_31
REMARK                            x       y       z     vdW  Elec       q    Type
REMARK                         _______ _______ _______ _____ _____    ______ ____
ROOT
ATOM      1  C   UNL     1      -6.220  -7.021   0.483  0.00  0.00    +0.006 A 
ATOM      2  C   UNL     1      -5.266  -7.395   1.417  0.00  0.00    +0.009 A 
ATOM      3  C   UNL     1      -5.434  -8.541   2.166  0.00  0.00    +0.016 A 
ATOM      4  C   UNL     1      -6.571  -9.323   1.978  0.00  0.00    +0.063 A 
ATOM      5  C   UNL     1      -7.538  -8.943   1.031  0.00  0.00    +0.056 A 
ATOM      6  C   UNL     1      -7.355  -7.785   0.292  0.00  0.00    +0.034 A 
ATOM      7  N   UNL     1      -8.660  -9.741   0.866  0.00  0.00    -0.307 N 
ATOM      8  H   UNL     1      -9.336  -9.491   0.216  0.00  0.00    +0.170 HD
ATOM      9  C   UNL     1      -8.821 -10.857   1.598  0.00  0.00    +0.330 A 
ATOM     10  O   UNL     1      -9.819 -11.529   1.422  0.00  0.00    -0.246 OA
ATOM     11  N   UNL     1      -7.927 -11.262   2.513  0.00  0.00    -0.260 N 
ATOM     12  C   UNL     1      -6.800 -10.557   2.752  0.00  0.00    +0.264 A 
ATOM     13  O   UNL     1      -5.995 -10.930   3.583  0.00  0.00    -0.267 OA
ENDROOT
BRANCH   1  16
ATOM     14  C   UNL     1      -4.288  -4.371   0.008  0.00  0.00    +0.134 C 
ATOM     15  N   UNL     1      -4.589  -5.514  -0.527  0.00  0.00    -0.339 N 
ATOM     16  C   UNL     1      -6.021  -5.766  -0.326  0.00  0.00    +0.274 C 
ATOM     17  O   UNL     1      -6.512  -4.625   0.394  0.00  0.00    -0.243 OA
ATOM     18  N   UNL     1      -5.386  -3.782   0.584  0.00  0.00    -0.247 N 
ATOM     19  H   UNL     1      -5.392  -2.928   1.044  0.00  0.00    +0.196 HD
ATOM     20  H   UNL     1      -3.970  -6.104  -0.986  0.00  0.00    +0.164 HD
BRANCH  14  25
ATOM     21  C   UNL     1      -1.498  -1.848   0.006  0.00  0.00    +0.121 A 
ATOM     22  C   UNL     1      -0.386  -2.679  -0.003  0.00  0.00    +0.045 A 
ATOM     23  C   UNL     1      -0.543  -4.052  -0.008  0.00  0.00    +0.004 A 
ATOM     24  C   UNL     1      -1.807  -4.606  -0.005  0.00  0.00    +0.012 A 
ATOM     25  C   UNL     1      -2.930  -3.780   0.004  0.00  0.00    +0.020 A 
ATOM     26  C   UNL     1      -2.771  -2.395   0.016  0.00  0.00    +0.057 A 
BRANCH  21  27
ATOM     27  O   UNL     1      -1.339  -0.499   0.012  0.00  0.00    -0.492 OA
BRANCH  27  29
ATOM     28  C   UNL     1      -0.019   1.526   0.010  0.00  0.00    +0.048 C 
ATOM     29  C   UNL     1       0.002  -0.004   0.002  0.00  0.00    +0.225 C 
ENDBRANCH  27  29
ENDBRANCH  21  27
ENDBRANCH  14  25
ENDBRANCH   1  16
BRANCH  11  30
ATOM     30  C   UNL     1      -8.178 -12.492   3.269  0.00  0.00    +0.134 C 
BRANCH  30  31
ATOM     31  C   UNL     1      -7.575 -13.682   2.520  0.00  0.00    +0.057 C 
BRANCH  31  32
ATOM     32  C   UNL     1      -7.834 -14.947   3.297  0.00  0.00    -0.046 A 
ATOM     33  C   UNL     1      -6.924 -15.373   4.247  0.00  0.00    +0.004 A 
ATOM     34  C   UNL     1      -7.162 -16.533   4.960  0.00  0.00    +0.000 A 
ATOM     35  C   UNL     1      -8.309 -17.268   4.723  0.00  0.00    +0.000 A 
ATOM     36  C   UNL     1      -9.218 -16.842   3.773  0.00  0.00    +0.000 A 
ATOM     37  C   UNL     1      -8.983 -15.679   3.064  0.00  0.00    +0.004 A 
ENDBRANCH  31  32
ENDBRANCH  30  31
ENDBRANCH  11  30
TORSDOF 7
