REMARK  Name = ZINC06781183
REMARK  4 active torsions:
REMARK  status: ('A' for Active; 'I' for Inactive)
REMARK    1  A    between atoms: N_9  and  C_22
REMARK    2  A    between atoms: C_12  and  C_15
REMARK    3  A    between atoms: C_20  and  O_21
REMARK    4  A    between atoms: C_22  and  C_23
REMARK                            x       y       z     vdW  Elec       q    Type
REMARK                         _______ _______ _______ _____ _____    ______ ____
ROOT
ATOM      1  C   UNL     1       1.653   0.798  -3.957  0.00  0.00    +0.001 A 
ATOM      2  C   UNL     1       2.556   1.613  -3.292  0.00  0.00    +0.002 A 
ATOM      3  C   UNL     1       3.335   1.110  -2.268  0.00  0.00    +0.027 A 
ATOM      4  C   UNL     1       3.215  -0.222  -1.900  0.00  0.00    +0.064 A 
ATOM      5  C   UNL     1       2.300  -1.048  -2.573  0.00  0.00    +0.064 A 
ATOM      6  C   UNL     1       1.520  -0.528  -3.604  0.00  0.00    +0.015 A 
ATOM      7  C   UNL     1       2.190  -2.461  -2.165  0.00  0.00    +0.263 A 
ATOM      8  O   UNL     1       1.410  -3.207  -2.725  0.00  0.00    -0.267 OA
ATOM      9  N   UNL     1       2.971  -2.911  -1.161  0.00  0.00    -0.272 N 
ATOM     10  C   UNL     1       3.860  -2.071  -0.519  0.00  0.00    +0.240 A 
ATOM     11  N   UNL     1       3.984  -0.759  -0.876  0.00  0.00    -0.260 N 
ATOM     12  C   UNL     1       4.941  -0.229  -0.047  0.00  0.00    +0.174 A 
ATOM     13  N   UNL     1       5.341  -1.200   0.744  0.00  0.00    -0.127 NA
ATOM     14  N   UNL     1       4.706  -2.282   0.467  0.00  0.00    -0.110 NA
ENDROOT
BRANCH  12  15
ATOM     15  C   UNL     1       5.429   1.166  -0.044  0.00  0.00    +0.061 A 
ATOM     16  C   UNL     1       4.799   2.128   0.747  0.00  0.00    +0.015 A 
ATOM     17  C   UNL     1       5.259   3.429   0.745  0.00  0.00    +0.001 A 
ATOM     18  C   UNL     1       6.343   3.784  -0.039  0.00  0.00    +0.004 A 
ATOM     19  C   UNL     1       6.975   2.840  -0.827  0.00  0.00    +0.046 A 
ATOM     20  C   UNL     1       6.529   1.528  -0.831  0.00  0.00    +0.128 A 
BRANCH  20  21
ATOM     21  O   UNL     1       7.153   0.599  -1.600  0.00  0.00    -0.506 OA
ATOM     22  H   UNL     1       6.792   0.520  -2.493  0.00  0.00    +0.292 HD
ENDBRANCH  20  21
ENDBRANCH  12  15
BRANCH   9  23
ATOM     23  C   UNL     1       2.873  -4.312  -0.744  0.00  0.00    +0.163 C 
BRANCH  23  24
ATOM     24  C   UNL     1       3.846  -5.142  -1.541  0.00  0.00    -0.027 A 
ATOM     25  C   UNL     1       3.453  -5.707  -2.740  0.00  0.00    +0.008 A 
ATOM     26  C   UNL     1       4.345  -6.468  -3.471  0.00  0.00    +0.038 A 
ATOM     27  C   UNL     1       5.633  -6.665  -3.003  0.00  0.00    +0.123 A 
ATOM     28  C   UNL     1       6.025  -6.099  -1.801  0.00  0.00    +0.038 A 
ATOM     29  C   UNL     1       5.133  -5.335  -1.074  0.00  0.00    +0.008 A 
ATOM     30  F   UNL     1       6.505  -7.409  -3.717  0.00  0.00    -0.205 F 
ENDBRANCH  23  24
ENDBRANCH   9  23
TORSDOF 4
