REMARK  Name = ZINC02412021
REMARK  7 active torsions:
REMARK  status: ('A' for Active; 'I' for Inactive)
REMARK    1  A    between atoms: C_1  and  O_2
REMARK    2  A    between atoms: O_2  and  C_3
REMARK    3  A    between atoms: C_6  and  S_9
REMARK    4  A    between atoms: S_9  and  C_12
REMARK    5  A    between atoms: N_23  and  N_26
REMARK    6  A    between atoms: C_24  and  N_25
REMARK    7  A    between atoms: C_27  and  C_28
REMARK                            x       y       z     vdW  Elec       q    Type
REMARK                         _______ _______ _______ _____ _____    ______ ____
ROOT
ATOM      1  C   UNL     1      -2.002   2.482   1.708  0.00  0.00    +0.162 A 
ATOM      2  C   UNL     1      -1.655   3.598   2.507  0.00  0.00    +0.137 A 
ATOM      3  C   UNL     1      -2.251   3.351   3.827  0.00  0.00    +0.184 A 
ATOM      4  N   UNL     1      -2.091   4.232   4.788  0.00  0.00    -0.224 NA
ATOM      5  C   UNL     1      -1.387   5.348   4.560  0.00  0.00    +0.092 A 
ATOM      6  C   UNL     1      -1.212   6.297   5.584  0.00  0.00    +0.030 A 
ATOM      7  C   UNL     1      -0.496   7.429   5.344  0.00  0.00    +0.002 A 
ATOM      8  C   UNL     1       0.071   7.666   4.092  0.00  0.00    +0.002 A 
ATOM      9  C   UNL     1      -0.077   6.773   3.077  0.00  0.00    +0.030 A 
ATOM     10  C   UNL     1      -0.811   5.590   3.287  0.00  0.00    +0.090 A 
ATOM     11  N   UNL     1      -0.962   4.705   2.295  0.00  0.00    -0.240 NA
ATOM     12  N   UNL     1      -2.899   2.136   3.736  0.00  0.00    -0.197 N 
ATOM     13  C   UNL     1      -2.743   1.638   2.465  0.00  0.00    +0.148 A 
ENDROOT
BRANCH   1  14
ATOM     14  S   UNL     1      -1.555   2.237   0.022  0.00  0.00    +0.030 S 
ATOM     15  O   UNL     1      -1.306   3.526  -0.523  0.00  0.00    -0.164 OA
ATOM     16  O   UNL     1      -2.519   1.351  -0.529  0.00  0.00    -0.164 OA
BRANCH  14  20
ATOM     17  C   UNL     1       2.399   0.030  -0.021  0.00  0.00    +0.120 A 
ATOM     18  C   UNL     1       1.207  -0.680  -0.013  0.00  0.00    +0.047 A 
ATOM     19  C   UNL     1       0.002  -0.004   0.002  0.00  0.00    +0.031 A 
ATOM     20  C   UNL     1      -0.017   1.378   0.010  0.00  0.00    +0.094 A 
ATOM     21  C   UNL     1       1.170   2.088   0.002  0.00  0.00    +0.031 A 
ATOM     22  C   UNL     1       2.377   1.417  -0.013  0.00  0.00    +0.047 A 
BRANCH  17  24
ATOM     23  C   UNL     1       4.772   0.164  -0.042  0.00  0.00    +0.277 C 
ATOM     24  O   UNL     1       3.586  -0.632  -0.035  0.00  0.00    -0.495 OA
ENDBRANCH  17  24
ENDBRANCH  14  20
ENDBRANCH   1  14
BRANCH  13  25
ATOM     25  N   UNL     1      -3.269   0.437   2.021  0.00  0.00    -0.341 N 
ATOM     26  H   UNL     1      -3.115   0.149   1.107  0.00  0.00    +0.144 HD
ATOM     27  H   UNL     1      -3.791  -0.116   2.622  0.00  0.00    +0.144 HD
ENDBRANCH  13  25
BRANCH  12  28
ATOM     28  N   UNL     1      -3.607   1.513   4.772  0.00  0.00    -0.171 NA
ATOM     29  C   UNL     1      -4.875   1.750   4.926  0.00  0.00    +0.143 C 
BRANCH  29  30
ATOM     30  C   UNL     1      -5.618   1.095   6.015  0.00  0.00    +0.020 A 
ATOM     31  C   UNL     1      -6.939   1.248   6.303  0.00  0.00    +0.093 A 
ATOM     32  N   UNL     1      -7.266   0.478   7.380  0.00  0.00    -0.360 N 
ATOM     33  H   UNL     1      -8.152   0.419   7.771  0.00  0.00    +0.165 HD
ATOM     34  C   UNL     1      -6.156  -0.200   7.837  0.00  0.00    +0.047 A 
ATOM     35  C   UNL     1      -5.077   0.152   7.009  0.00  0.00    +0.008 A 
ATOM     36  C   UNL     1      -3.814  -0.390   7.240  0.00  0.00    +0.010 A 
ATOM     37  C   UNL     1      -3.630  -1.270   8.283  0.00  0.00    +0.001 A 
ATOM     38  C   UNL     1      -4.695  -1.619   9.102  0.00  0.00    +0.002 A 
ATOM     39  C   UNL     1      -5.949  -1.091   8.885  0.00  0.00    +0.026 A 
ENDBRANCH  29  30
ENDBRANCH  12  28
TORSDOF 6
