REMARK  Name = ZINC36386860
REMARK  6 active torsions:
REMARK  status: ('A' for Active; 'I' for Inactive)
REMARK    1  A    between atoms: C_6  and  C_7
REMARK    2  A    between atoms: C_7  and  C_8
REMARK    3  A    between atoms: C_7  and  N_11
REMARK    4  A    between atoms: N_14  and  C_17
REMARK    5  A    between atoms: C_20  and  C_26
REMARK    6  A    between atoms: C_22  and  N_23
REMARK                            x       y       z     vdW  Elec       q    Type
REMARK                         _______ _______ _______ _____ _____    ______ ____
ROOT
ATOM      1  N   UNL     1      -1.180  -1.932  -0.887  0.00  0.00    -0.285 NA
ATOM      2  C   UNL     1      -0.795  -1.513  -2.241  0.00  0.00    +0.104 C 
ATOM      3  C   UNL     1      -0.512  -2.753  -3.095  0.00  0.00    +0.120 C 
ATOM      4  N   UNL     1      -1.681  -3.643  -3.029  0.00  0.00    -0.326 N 
ATOM      5  C   UNL     1      -2.210  -3.998  -1.704  0.00  0.00    +0.120 C 
ATOM      6  C   UNL     1      -2.426  -2.709  -0.904  0.00  0.00    +0.104 C 
ENDROOT
BRANCH   4   7
ATOM      7  C   UNL     1      -2.273  -4.137  -4.194  0.00  0.00    +0.062 A 
ATOM      8  C   UNL     1      -1.842  -5.341  -4.736  0.00  0.00    +0.046 A 
ATOM      9  C   UNL     1      -2.430  -5.827  -5.888  0.00  0.00    +0.054 A 
ATOM     10  C   UNL     1      -3.446  -5.115  -6.502  0.00  0.00    +0.075 A 
ATOM     11  C   UNL     1      -3.876  -3.916  -5.963  0.00  0.00    +0.048 A 
ATOM     12  C   UNL     1      -3.297  -3.428  -4.808  0.00  0.00    +0.148 A 
ATOM     13 CL   UNL     1      -1.894  -7.332  -6.568  0.00  0.00    -0.083 Cl
BRANCH  10  14
ATOM     14  C   UNL     1      -4.085  -5.646  -7.759  0.00  0.00    +0.419 C 
ATOM     15  F   UNL     1      -5.078  -4.760  -8.188  0.00  0.00    -0.166 F 
ATOM     16  F   UNL     1      -3.113  -5.777  -8.756  0.00  0.00    -0.166 F 
ATOM     17  F   UNL     1      -4.657  -6.896  -7.498  0.00  0.00    -0.166 F 
ENDBRANCH  10  14
BRANCH  12  18
ATOM     18  N   UNL     1      -3.762  -2.148  -4.230  0.00  0.00    +0.058 N 
ATOM     19  O   UNL     1      -4.654  -1.531  -4.766  0.00  0.00    -0.126 OA
ATOM     20  O   UNL     1      -3.251  -1.718  -3.222  0.00  0.00    -0.126 OA
ENDBRANCH  12  18
ENDBRANCH   4   7
BRANCH   1  21
ATOM     21  C   UNL     1      -1.293  -0.775   0.011  0.00  0.00    +0.174 C 
BRANCH  21  27
ATOM     22  C   UNL     1      -0.017   1.378   0.010  0.00  0.00    +0.007 A 
ATOM     23  C   UNL     1       1.171   2.086   0.002  0.00  0.00    +0.020 A 
ATOM     24  C   UNL     1       2.378   1.410  -0.013  0.00  0.00    +0.041 A 
ATOM     25  C   UNL     1       2.396   0.027  -0.021  0.00  0.00    +0.020 A 
ATOM     26  C   UNL     1       1.208  -0.679  -0.013  0.00  0.00    +0.007 A 
ATOM     27  C   UNL     1       0.002  -0.004   0.002  0.00  0.00    -0.021 A 
ATOM     28 CL   UNL     1       3.870   2.298  -0.023  0.00  0.00    -0.084 Cl
ENDBRANCH  21  27
BRANCH  21  29
ATOM     29  C   UNL     1      -1.584  -1.251   1.410  0.00  0.00    +0.232 C 
ATOM     30  O   UNL     1      -1.688  -2.438   1.638  0.00  0.00    -0.274 OA
ATOM     31  N   UNL     1      -1.730  -0.359   2.409  0.00  0.00    -0.328 N 
ATOM     32  H   UNL     1      -1.647   0.591   2.228  0.00  0.00    +0.145 HD
ATOM     33  H   UNL     1      -1.918  -0.665   3.310  0.00  0.00    +0.145 HD
ENDBRANCH  21  29
ENDBRANCH   1  21
TORSDOF 6
