REMARK  Name = ZINC39898871
REMARK  7 active torsions:
REMARK  status: ('A' for Active; 'I' for Inactive)
REMARK    1  A    between atoms: C_4  and  C_7
REMARK    2  A    between atoms: C_7  and  N_8
REMARK    3  A    between atoms: C_9  and  C_27
REMARK    4  A    between atoms: C_12  and  C_19
REMARK    5  A    between atoms: C_31  and  O_33
REMARK    6  A    between atoms: O_33  and  C_34
REMARK    7  A    between atoms: C_34  and  C_35
REMARK                            x       y       z     vdW  Elec       q    Type
REMARK                         _______ _______ _______ _____ _____    ______ ____
ROOT
ATOM      1  N   UNL     1       4.152  -0.952   1.338  0.00  0.00    -0.281 N 
ATOM      2  C   UNL     1       4.987  -0.050   2.139  0.00  0.00    +0.142 C 
ATOM      3  C   UNL     1       5.175  -0.720   3.473  0.00  0.00    +0.035 A 
ATOM      4  C   UNL     1       5.722  -0.670   4.715  0.00  0.00    +0.075 A 
ATOM      5  N   UNL     1       5.353  -1.821   5.352  0.00  0.00    -0.276 N 
ATOM      6  N   UNL     1       4.628  -2.540   4.571  0.00  0.00    -0.168 NA
ATOM      7  H   UNL     1       5.600  -2.059   6.259  0.00  0.00    +0.189 HD
ATOM      8  C   UNL     1       4.471  -1.943   3.406  0.00  0.00    +0.153 A 
ATOM      9  C   UNL     1       3.852  -2.038   2.072  0.00  0.00    +0.268 C 
ATOM     10  O   UNL     1       3.170  -2.968   1.688  0.00  0.00    -0.268 OA
ENDROOT
BRANCH   4  11
ATOM     11  C   UNL     1       6.557   0.418   5.270  0.00  0.00    +0.048 A 
ATOM     12  C   UNL     1       7.893   0.182   5.590  0.00  0.00    +0.033 A 
ATOM     13  C   UNL     1       8.667   1.201   6.108  0.00  0.00    +0.042 A 
ATOM     14  C   UNL     1       8.121   2.458   6.311  0.00  0.00    +0.024 A 
ATOM     15  C   UNL     1       6.797   2.701   5.997  0.00  0.00    +0.053 A 
ATOM     16  C   UNL     1       6.010   1.690   5.471  0.00  0.00    +0.188 A 
ATOM     17  O   UNL     1       4.711   1.931   5.157  0.00  0.00    -0.287 OA
ATOM     18 CL   UNL     1      10.331   0.907   6.507  0.00  0.00    -0.084 Cl
ENDBRANCH   4  11
BRANCH   2  19
ATOM     19  C   UNL     1       6.321   0.154   1.468  0.00  0.00    -0.019 A 
ATOM     20  C   UNL     1       6.941  -0.904   0.830  0.00  0.00    +0.006 A 
ATOM     21  C   UNL     1       8.165  -0.721   0.213  0.00  0.00    +0.004 A 
ATOM     22  C   UNL     1       8.771   0.520   0.234  0.00  0.00    +0.045 A 
ATOM     23  C   UNL     1       8.150   1.583   0.873  0.00  0.00    +0.121 A 
ATOM     24  C   UNL     1       6.919   1.398   1.486  0.00  0.00    +0.051 A 
BRANCH  23  25
ATOM     25  O   UNL     1       8.744   2.805   0.895  0.00  0.00    -0.487 OA
BRANCH  25  26
ATOM     26  C   UNL     1      10.008   2.924   0.239  0.00  0.00    +0.264 C 
BRANCH  26  27
ATOM     27  C   UNL     1      10.509   4.340   0.365  0.00  0.00    -0.010 A 
ATOM     28  C   UNL     1      10.178   5.279  -0.593  0.00  0.00    +0.007 A 
ATOM     29  C   UNL     1      10.637   6.577  -0.477  0.00  0.00    +0.000 A 
ATOM     30  C   UNL     1      11.428   6.937   0.599  0.00  0.00    +0.000 A 
ATOM     31  C   UNL     1      11.759   5.998   1.558  0.00  0.00    +0.000 A 
ATOM     32  C   UNL     1      11.296   4.701   1.444  0.00  0.00    +0.007 A 
ENDBRANCH  26  27
ENDBRANCH  25  26
ENDBRANCH  23  25
ENDBRANCH   2  19
BRANCH   1  33
ATOM     33  C   UNL     1       3.711  -0.707  -0.038  0.00  0.00    +0.144 C 
BRANCH  33  37
ATOM     34  C   UNL     1      -0.017   1.378   0.010  0.00  0.00    +0.000 A 
ATOM     35  C   UNL     1       1.171   2.086   0.002  0.00  0.00    +0.000 A 
ATOM     36  C   UNL     1       2.377   1.411  -0.013  0.00  0.00    +0.005 A 
ATOM     37  C   UNL     1       2.396   0.029  -0.020  0.00  0.00    -0.030 A 
ATOM     38  C   UNL     1       1.208  -0.679  -0.012  0.00  0.00    +0.005 A 
ATOM     39  C   UNL     1       0.002  -0.004   0.002  0.00  0.00    +0.000 A 
ENDBRANCH  33  37
ENDBRANCH   1  33
TORSDOF 7
