REMARK  Name = ZINC39598911
REMARK  7 active torsions:
REMARK  status: ('A' for Active; 'I' for Inactive)
REMARK    1  A    between atoms: C_1  and  O_2
REMARK    2  A    between atoms: O_2  and  C_3
REMARK    3  A    between atoms: C_9  and  C_12
REMARK    4  A    between atoms: C_12  and  C_13
REMARK    5  A    between atoms: C_13  and  N_14
REMARK    6  A    between atoms: C_15  and  C_17
REMARK    7  A    between atoms: C_28  and  C_30
REMARK                            x       y       z     vdW  Elec       q    Type
REMARK                         _______ _______ _______ _____ _____    ______ ____
ROOT
ATOM      1  C   UNL     1       0.714  -8.463   2.542  0.00  0.00    +0.100 C 
ATOM      2  C   UNL     1      -0.073  -9.726   2.127  0.00  0.00    +0.121 C 
ATOM      3  N   UNL     1       0.496 -10.812   2.960  0.00  0.00    -0.296 N 
ATOM      4  C   UNL     1       0.718 -10.184   4.284  0.00  0.00    +0.115 C 
ATOM      5  C   UNL     1       1.230  -8.767   3.959  0.00  0.00    -0.004 C 
ATOM      6  C   UNL     1       0.664  -7.760   4.955  0.00  0.00    -0.010 C 
ATOM      7  C   UNL     1       1.238  -8.047   6.346  0.00  0.00    -0.082 C 
ATOM      8  N   UNL     1       2.702  -7.952   6.302  0.00  0.00    +0.379 N 
ATOM      9  C   UNL     1       3.244  -8.986   5.412  0.00  0.00    -0.082 C 
ATOM     10  C   UNL     1       2.756  -8.739   3.982  0.00  0.00    -0.010 C 
ATOM     11  C   UNL     1       0.754 -12.083   2.595  0.00  0.00    +0.248 C 
ATOM     12  O   UNL     1       0.608 -12.425   1.437  0.00  0.00    -0.270 OA
ATOM     13  H   UNL     1       2.969  -7.042   5.960  0.00  0.00    -0.086 HD
ATOM     14  H   UNL     1       3.074  -8.082   7.231  0.00  0.00    -0.086 HD
ENDROOT
BRANCH  11  15
ATOM     15  C   UNL     1       1.214 -13.062   3.601  0.00  0.00    +0.055 A 
ATOM     16  C   UNL     1       0.732 -13.000   4.910  0.00  0.00    +0.016 A 
ATOM     17  C   UNL     1       1.165 -13.916   5.845  0.00  0.00    +0.021 A 
ATOM     18  C   UNL     1       2.077 -14.896   5.489  0.00  0.00    +0.042 A 
ATOM     19  C   UNL     1       2.560 -14.963   4.194  0.00  0.00    +0.040 A 
ATOM     20  C   UNL     1       2.129 -14.056   3.246  0.00  0.00    +0.054 A 
ATOM     21 CL   UNL     1       2.729 -14.146   1.619  0.00  0.00    -0.083 Cl
ATOM     22 CL   UNL     1       2.618 -16.045   6.673  0.00  0.00    -0.083 Cl
ENDBRANCH  11  15
BRANCH   1  24
ATOM     23  N   UNL     1       0.326  -6.020   2.485  0.00  0.00    -0.315 N 
ATOM     24  C   UNL     1      -0.195  -7.261   2.562  0.00  0.00    +0.218 C 
ATOM     25  O   UNL     1      -1.396  -7.410   2.649  0.00  0.00    -0.275 OA
ATOM     26  H   UNL     1       1.286  -5.901   2.416  0.00  0.00    +0.149 HD
BRANCH  23  27
ATOM     27  C   UNL     1      -0.558  -4.852   2.504  0.00  0.00    +0.109 C 
BRANCH  27  28
ATOM     28  C   UNL     1       0.281  -3.576   2.403  0.00  0.00    +0.056 C 
BRANCH  28  35
ATOM     29  C   UNL     1      -1.667  -1.074   5.872  0.00  0.00    +0.121 A 
ATOM     30  C   UNL     1      -2.453  -0.026   5.401  0.00  0.00    +0.047 A 
ATOM     31  C   UNL     1      -2.595   0.191   4.048  0.00  0.00    +0.030 A 
ATOM     32  C   UNL     1      -1.950  -0.641   3.139  0.00  0.00    +0.047 A 
ATOM     33  N   UNL     1      -1.900  -0.680   1.762  0.00  0.00    -0.360 N 
ATOM     34  C   UNL     1      -1.108  -1.719   1.355  0.00  0.00    +0.087 A 
ATOM     35  C   UNL     1      -0.628  -2.375   2.423  0.00  0.00    -0.021 A 
ATOM     36  C   UNL     1      -1.156  -1.701   3.612  0.00  0.00    +0.006 A 
ATOM     37  C   UNL     1      -1.015  -1.908   4.986  0.00  0.00    +0.056 A 
ATOM     38  H   UNL     1      -2.357  -0.063   1.169  0.00  0.00    +0.165 HD
BRANCH  29  40
ATOM     39  C   UNL     1      -2.234  -0.371   8.072  0.00  0.00    +0.277 C 
ATOM     40  O   UNL     1      -1.537  -1.274   7.211  0.00  0.00    -0.495 OA
ENDBRANCH  29  40
ENDBRANCH  28  35
ENDBRANCH  27  28
ENDBRANCH  23  27
ENDBRANCH   1  24
TORSDOF 6
