REMARK  Name = ZINC08846368
REMARK  3 active torsions:
REMARK  status: ('A' for Active; 'I' for Inactive)
REMARK    1  A    between atoms: C_1  and  C_2
REMARK    2  A    between atoms: C_14  and  C_15
REMARK    3  A    between atoms: C_18  and  C_20
REMARK                            x       y       z     vdW  Elec       q    Type
REMARK                         _______ _______ _______ _____ _____    ______ ____
ROOT
ATOM      1  C   UNL     1      10.499   1.029   4.839  0.00  0.00    +0.109 C 
ATOM      2  C   UNL     1      10.898   0.768   3.410  0.00  0.00    +0.215 C 
ATOM      3  O   UNL     1      12.040   0.456   3.146  0.00  0.00    -0.276 OA
ATOM      4  N   UNL     1       9.985   0.880   2.425  0.00  0.00    -0.265 N 
ATOM      5  C   UNL     1      10.353   0.638   1.101  0.00  0.00    +0.212 A 
ATOM      6  C   UNL     1       9.500   0.827  -0.075  0.00  0.00    +0.220 A 
ATOM      7  N   UNL     1      10.186   0.505  -1.135  0.00  0.00    -0.031 NA
ATOM      8  O   UNL     1      11.476   0.100  -0.712  0.00  0.00    -0.239 OA
ATOM      9  N   UNL     1      11.515   0.202   0.700  0.00  0.00    -0.032 NA
ATOM     10  N   UNL     1       8.178   1.279  -0.062  0.00  0.00    -0.193 N 
ATOM     11  C   UNL     1       7.929   2.577  -0.061  0.00  0.00    +0.265 C 
ATOM     12  O   UNL     1       8.829   3.397  -0.070  0.00  0.00    -0.269 OA
ATOM     13  C   UNL     1       6.518   2.989  -0.041  0.00  0.00    +0.081 C 
ATOM     14  C   UNL     1       5.983   4.245  -0.031  0.00  0.00    +0.066 C 
ATOM     15  S   UNL     1       5.689   1.406  -0.043  0.00  0.00    -0.049 S 
ATOM     16  C   UNL     1       7.140   0.365  -0.059  0.00  0.00    +0.166 C 
ATOM     17  N   UNL     1       7.205  -0.938  -0.065  0.00  0.00    -0.279 NA
ATOM     18  H   UNL     1       9.072   1.130   2.636  0.00  0.00    +0.156 HD
ATOM     19  H   UNL     1       6.390  -1.464  -0.062  0.00  0.00    +0.189 HD
ENDROOT
BRANCH  14  20
ATOM     20  C   UNL     1       4.582   4.415  -0.019  0.00  0.00    +0.130 A 
ATOM     21  C   UNL     1       3.910   5.625  -0.009  0.00  0.00    +0.050 A 
ATOM     22  C   UNL     1       2.545   5.327   0.002  0.00  0.00    +0.050 A 
ATOM     23  C   UNL     1       2.429   3.966  -0.003  0.00  0.00    +0.136 A 
ATOM     24  O   UNL     1       3.663   3.427  -0.011  0.00  0.00    -0.455 OA
BRANCH  23  25
ATOM     25  C   UNL     1       1.162   3.211   0.006  0.00  0.00    +0.017 A 
ATOM     26  C   UNL     1       1.177   1.814  -0.001  0.00  0.00    +0.014 A 
ATOM     27  C   UNL     1      -0.010   1.114   0.008  0.00  0.00    +0.039 A 
ATOM     28  C   UNL     1      -1.218   1.793   0.017  0.00  0.00    +0.123 A 
ATOM     29  C   UNL     1      -1.240   3.179   0.029  0.00  0.00    +0.039 A 
ATOM     30  C   UNL     1      -0.059   3.890   0.020  0.00  0.00    +0.014 A 
ATOM     31  F   UNL     1      -2.379   1.102   0.019  0.00  0.00    -0.205 F 
ENDBRANCH  23  25
ENDBRANCH  14  20
TORSDOF 2
