REMARK  Name = ZINC09137697
REMARK  6 active torsions:
REMARK  status: ('A' for Active; 'I' for Inactive)
REMARK    1  A    between atoms: C_1  and  N_2
REMARK    2  A    between atoms: C_10  and  C_12
REMARK    3  A    between atoms: C_12  and  C_14
REMARK    4  A    between atoms: C_12  and  N_64
REMARK    5  A    between atoms: C_14  and  N_15
REMARK    6  A    between atoms: C_16  and  C_18
REMARK                            x       y       z     vdW  Elec       q    Type
REMARK                         _______ _______ _______ _____ _____    ______ ____
ROOT
ATOM      1  C   UNL     1      -4.871   0.073   0.176  0.00  0.00    -0.020 C 
ENDROOT
BRANCH   1  11
ATOM      2  C   UNL     1     -10.210  -3.082  -1.041  0.00  0.00    +0.129 C 
ATOM      3  N   UNL     1     -10.063  -2.218   0.138  0.00  0.00    -0.333 N 
ATOM      4  C   UNL     1     -10.442  -2.929   1.361  0.00  0.00    +0.105 C 
ATOM      5  C   UNL     1     -10.244  -1.990   2.557  0.00  0.00    +0.024 C 
ATOM      6  C   UNL     1      -8.741  -1.755   2.727  0.00  0.00    +0.038 C 
ATOM      7  C   UNL     1      -8.125  -1.423   1.391  0.00  0.00    -0.026 A 
ATOM      8  C   UNL     1      -8.784  -1.669   0.198  0.00  0.00    +0.033 A 
ATOM      9  C   UNL     1      -8.158  -1.350  -1.008  0.00  0.00    +0.023 A 
ATOM     10  C   UNL     1      -6.898  -0.790  -1.014  0.00  0.00    +0.004 A 
ATOM     11  C   UNL     1      -6.247  -0.542   0.180  0.00  0.00    -0.059 A 
ATOM     12  C   UNL     1      -6.858  -0.863   1.377  0.00  0.00    +0.007 A 
ENDBRANCH   1  11
BRANCH   1  18
ATOM     13  C   UNL     1      -6.158   1.964  -0.614  0.00  0.00    -0.078 C 
ATOM     14  C   UNL     1      -6.072   3.273  -1.403  0.00  0.00    -0.019 C 
ATOM     15  C   UNL     1      -5.715   2.962  -2.860  0.00  0.00    -0.004 C 
ATOM     16  C   UNL     1      -4.394   2.191  -2.900  0.00  0.00    -0.019 C 
ATOM     17  C   UNL     1      -4.529   0.914  -2.068  0.00  0.00    -0.078 C 
ATOM     18  N   UNL     1      -4.848   1.282  -0.672  0.00  0.00    +0.385 N 
ATOM     19  H   UNL     1      -4.125   1.921  -0.322  0.00  0.00    -0.081 HD
ENDBRANCH   1  18
BRANCH   1  20
ATOM     20  C   UNL     1      -3.860  -0.944  -0.359  0.00  0.00    +0.094 C 
BRANCH  20  21
ATOM     21  N   UNL     1      -2.521  -0.350  -0.352  0.00  0.00    -0.312 N 
ATOM     22  C   UNL     1      -1.450  -1.100  -0.680  0.00  0.00    +0.251 C 
ATOM     23  O   UNL     1      -1.596  -2.269  -0.982  0.00  0.00    -0.270 OA
ATOM     24  H   UNL     1      -2.405   0.582  -0.111  0.00  0.00    +0.149 HD
BRANCH  22  25
ATOM     25  C   UNL     1      -0.104  -0.503  -0.673  0.00  0.00    +0.122 A 
ATOM     26  C   UNL     1       0.076   0.826  -0.332  0.00  0.00    +0.031 A 
ATOM     27  C   UNL     1       1.390   1.359  -0.338  0.00  0.00    +0.018 A 
ATOM     28  C   UNL     1       1.608   2.703   0.003  0.00  0.00    +0.011 A 
ATOM     29  C   UNL     1       2.876   3.209  -0.006  0.00  0.00    +0.001 A 
ATOM     30  C   UNL     1       3.953   2.404  -0.350  0.00  0.00    +0.004 A 
ATOM     31  C   UNL     1       3.762   1.081  -0.688  0.00  0.00    +0.047 A 
ATOM     32  C   UNL     1       2.480   0.542  -0.687  0.00  0.00    +0.139 A 
ATOM     33  O   UNL     1       2.296  -0.754  -1.019  0.00  0.00    -0.422 OA
ATOM     34  C   UNL     1       1.071  -1.307  -1.028  0.00  0.00    +0.350 A 
ATOM     35  O   UNL     1       0.937  -2.478  -1.331  0.00  0.00    -0.244 OA
ENDBRANCH  22  25
ENDBRANCH  20  21
ENDBRANCH   1  20
TORSDOF 5
