REMARK  Name = ZINC35664452
REMARK  12 active torsions:
REMARK  status: ('A' for Active; 'I' for Inactive)
REMARK    1  A    between atoms: C_1  and  C_2
REMARK    2  A    between atoms: C_2  and  N_3
REMARK    3  A    between atoms: N_9  and  C_14
REMARK    4  A    between atoms: C_11  and  C_13
REMARK    5  A    between atoms: C_14  and  C_15
REMARK    6  A    between atoms: C_16  and  C_33
REMARK    7  A    between atoms: C_17  and  C_25
REMARK    8  A    between atoms: N_22  and  C_23
REMARK    9  A    between atoms: C_23  and  C_24
REMARK   10  A    between atoms: C_33  and  O_35
REMARK   11  A    between atoms: O_35  and  C_36
REMARK   12  A    between atoms: C_36  and  C_37
REMARK                            x       y       z     vdW  Elec       q    Type
REMARK                         _______ _______ _______ _____ _____    ______ ____
ROOT
ATOM      1  C   UNL     1      -7.631  -2.965  -0.974  0.00  0.00    +0.041 C 
ATOM      2  C   UNL     1      -8.104  -2.054  -1.851  0.00  0.00    +0.080 C 
ATOM      3  C   UNL     1      -9.362  -1.298  -1.474  0.00  0.00    +0.144 C 
ATOM      4  N   UNL     1      -9.969  -1.621  -0.172  0.00  0.00    -0.288 N 
ATOM      5  C   UNL     1      -9.378  -2.558   0.597  0.00  0.00    +0.307 C 
ATOM      6  O   UNL     1      -9.872  -2.832   1.673  0.00  0.00    -0.252 OA
ATOM      7  N   UNL     1      -8.269  -3.200   0.210  0.00  0.00    -0.258 N 
ATOM      8  H   UNL     1     -10.775  -1.171   0.126  0.00  0.00    +0.151 HD
ENDROOT
BRANCH   3   9
ATOM      9  C   UNL     1      -9.040   0.174  -1.482  0.00  0.00    -0.021 A 
ATOM     10  C   UNL     1      -8.386   0.745  -0.405  0.00  0.00    +0.007 A 
ATOM     11  C   UNL     1      -8.090   2.095  -0.411  0.00  0.00    +0.022 A 
ATOM     12  C   UNL     1      -8.447   2.876  -1.495  0.00  0.00    +0.059 A 
ATOM     13  C   UNL     1      -9.102   2.305  -2.573  0.00  0.00    +0.060 A 
ATOM     14  C   UNL     1      -9.393   0.953  -2.568  0.00  0.00    +0.027 A 
ATOM     15 CL   UNL     1      -9.552   3.285  -3.934  0.00  0.00    -0.082 Cl
ATOM     16 CL   UNL     1      -8.077   4.572  -1.503  0.00  0.00    -0.082 Cl
ENDBRANCH   3   9
BRANCH   7  17
ATOM     17  C   UNL     1      -7.703  -4.207   1.112  0.00  0.00    +0.111 C 
ATOM     18  C   UNL     1      -6.705  -3.540   2.060  0.00  0.00    +0.025 C 
ENDBRANCH   7  17
BRANCH   2  19
ATOM     19  C   UNL     1      -7.447  -1.812  -3.081  0.00  0.00    +0.339 C 
ATOM     20  O   UNL     1      -6.658  -0.892  -3.179  0.00  0.00    -0.245 OA
BRANCH  19  21
ATOM     21  O   UNL     1      -7.697  -2.603  -4.145  0.00  0.00    -0.462 OA
BRANCH  21  22
ATOM     22  C   UNL     1      -6.998  -2.302  -5.355  0.00  0.00    +0.229 C 
ATOM     23  C   UNL     1      -7.407  -3.299  -6.442  0.00  0.00    +0.048 C 
ENDBRANCH  21  22
ENDBRANCH  19  21
ENDBRANCH   2  19
BRANCH   1  24
ATOM     24  C   UNL     1      -6.382  -3.739  -1.310  0.00  0.00    +0.136 C 
BRANCH  24  31
ATOM     25  N   UNL     1      -1.246  -0.711   0.424  0.00  0.00    -0.299 N 
ATOM     26  C   UNL     1      -1.520  -2.030   0.385  0.00  0.00    +0.303 C 
ATOM     27  O   UNL     1      -0.614  -2.836   0.289  0.00  0.00    -0.253 OA
ATOM     28  N   UNL     1      -2.796  -2.456   0.453  0.00  0.00    -0.280 N 
ATOM     29  C   UNL     1      -3.913  -1.499   0.439  0.00  0.00    +0.125 C 
ATOM     30  C   UNL     1      -4.914  -1.935  -0.637  0.00  0.00    +0.104 C 
ATOM     31  N   UNL     1      -5.297  -3.334  -0.406  0.00  0.00    -0.294 NA
ATOM     32  C   UNL     1      -4.142  -4.232  -0.537  0.00  0.00    +0.107 C 
ATOM     33  C   UNL     1      -3.110  -3.891   0.537  0.00  0.00    +0.088 C 
ATOM     34  C   UNL     1      -1.838  -4.709   0.304  0.00  0.00    +0.029 C 
ATOM     35  H   UNL     1      -1.971  -0.065   0.428  0.00  0.00    +0.150 HD
BRANCH  25  37
ATOM     36  C   UNL     1       0.175   1.278   0.500  0.00  0.00    +0.024 C 
ATOM     37  C   UNL     1       0.144  -0.251   0.459  0.00  0.00    +0.102 C 
ENDBRANCH  25  37
ENDBRANCH  24  31
ENDBRANCH   1  24
TORSDOF 8
