REMARK  Name = ZINC23667560
REMARK  14 active torsions:
REMARK  status: ('A' for Active; 'I' for Inactive)
REMARK    1  A    between atoms: C_1  and  C_2
REMARK    2  A    between atoms: C_2  and  O_3
REMARK    3  A    between atoms: O_3  and  C_4
REMARK    4  A    between atoms: C_4  and  C_6
REMARK    5  A    between atoms: C_7  and  C_32
REMARK    6  A    between atoms: C_8  and  C_28
REMARK    7  A    between atoms: C_10  and  N_11
REMARK    8  A    between atoms: C_12  and  C_14
REMARK    9  A    between atoms: C_14  and  N_15
REMARK   10  A    between atoms: N_15  and  C_16
REMARK   11  A    between atoms: N_15  and  C_17
REMARK   12  A    between atoms: C_17  and  C_19
REMARK   13  A    between atoms: C_17  and  C_20
REMARK   14  A    between atoms: N_30  and  C_31
REMARK                            x       y       z     vdW  Elec       q    Type
REMARK                         _______ _______ _______ _____ _____    ______ ____
ROOT
ATOM      1  N   UNL     1       4.376   7.662  -3.000  0.00  0.00    -0.281 N 
ATOM      2  C   UNL     1       3.369   6.985  -2.414  0.00  0.00    +0.201 C 
ATOM      3  O   UNL     1       2.230   7.139  -2.800  0.00  0.00    -0.278 OA
ATOM      4  H   UNL     1       5.410   7.523  -2.650  0.00  0.00    +0.155 HD
ENDROOT
BRANCH   1   9
ATOM      5  C   UNL     1       5.008   9.318  -4.770  0.00  0.00    +0.091 A 
ATOM      6  C   UNL     1       4.493  10.118  -5.778  0.00  0.00    -0.015 A 
ATOM      7  C   UNL     1       3.141  10.084  -5.989  0.00  0.00    +0.079 A 
ATOM      8  S   UNL     1       2.584   8.912  -4.767  0.00  0.00    -0.068 S 
ATOM      9  C   UNL     1       4.111   8.532  -4.040  0.00  0.00    +0.087 A 
ATOM     10  C   UNL     1       5.390  10.996  -6.613  0.00  0.00    +0.046 C 
BRANCH   7  11
ATOM     11  C   UNL     1       2.351  10.822  -6.976  0.00  0.00    +0.251 C 
ATOM     12  O   UNL     1       2.900  11.587  -7.747  0.00  0.00    -0.270 OA
ATOM     13  N   UNL     1       1.014  10.654  -7.031  0.00  0.00    -0.314 N 
ATOM     14  C   UNL     1       0.223  11.392  -8.019  0.00  0.00    +0.128 C 
ATOM     15  H   UNL     1       0.518   9.962  -6.335  0.00  0.00    +0.149 HD
ENDBRANCH   7  11
BRANCH   5  16
ATOM     16  C   UNL     1       6.446   9.296  -4.479  0.00  0.00    +0.342 C 
ATOM     17  O   UNL     1       7.170   8.501  -5.048  0.00  0.00    -0.245 OA
BRANCH  16  18
ATOM     18  O   UNL     1       6.965  10.157  -3.581  0.00  0.00    -0.461 OA
BRANCH  18  20
ATOM     19  C   UNL     1       8.797  11.125  -2.301  0.00  0.00    +0.048 C 
ATOM     20  C   UNL     1       8.396  10.079  -3.343  0.00  0.00    +0.229 C 
ENDBRANCH  18  20
ENDBRANCH  16  18
ENDBRANCH   5  16
ENDBRANCH   1   9
BRANCH   2  21
ATOM     21  C   UNL     1       3.659   6.037  -1.279  0.00  0.00    +0.019 C 
BRANCH  21  22
ATOM     22  N   UNL     1       2.404   5.428  -0.817  0.00  0.00    +0.388 N 
ATOM     23  C   UNL     1       1.521   6.436  -0.214  0.00  0.00    -0.095 C 
ATOM     24  H   UNL     1       1.889   5.009  -1.694  0.00  0.00    -0.081 HD
BRANCH  22  25
ATOM     25  C   UNL     1       2.666   4.329   0.121  0.00  0.00    -0.040 C 
ATOM     26  C   UNL     1       1.339   3.735   0.595  0.00  0.00    -0.008 C 
BRANCH  25  27
ATOM     27  C   UNL     1       3.476   3.262  -0.569  0.00  0.00    -0.058 A 
ATOM     28  C   UNL     1       3.127   2.843  -1.840  0.00  0.00    +0.005 A 
ATOM     29  C   UNL     1       3.869   1.865  -2.475  0.00  0.00    +0.041 A 
ATOM     30  C   UNL     1       4.966   1.308  -1.842  0.00  0.00    +0.158 A 
ATOM     31  C   UNL     1       5.313   1.723  -0.566  0.00  0.00    +0.159 A 
ATOM     32  C   UNL     1       4.568   2.703   0.068  0.00  0.00    +0.043 A 
ATOM     33  F   UNL     1       6.380   1.177   0.057  0.00  0.00    -0.202 F 
ATOM     34  F   UNL     1       5.694   0.356  -2.465  0.00  0.00    -0.202 F 
ENDBRANCH  25  27
ENDBRANCH  22  25
ENDBRANCH  21  22
ENDBRANCH   2  21
TORSDOF 9
