REMARK  Name = ZINC46747772
REMARK  11 active torsions:
REMARK  status: ('A' for Active; 'I' for Inactive)
REMARK    1  A    between atoms: C_1  and  C_2
REMARK    2  A    between atoms: C_2  and  C_4
REMARK    3  A    between atoms: C_2  and  O_25
REMARK    4  A    between atoms: N_6  and  C_7
REMARK    5  A    between atoms: C_7  and  C_8
REMARK    6  A    between atoms: C_8  and  C_9
REMARK    7  A    between atoms: C_9  and  C_10
REMARK    8  A    between atoms: C_11  and  C_23
REMARK    9  A    between atoms: C_12  and  N_22
REMARK   10  A    between atoms: N_13  and  C_15
REMARK   11  A    between atoms: O_25  and  C_26
REMARK                            x       y       z     vdW  Elec       q    Type
REMARK                         _______ _______ _______ _____ _____    ______ ____
ROOT
ATOM      1  C   UNL     1       1.329  -0.237   6.115  0.00  0.00    +0.060 C 
ENDROOT
BRANCH   1   2
ATOM      2  C   UNL     1       0.573   0.126   7.367  0.00  0.00    +0.083 A 
ATOM      3  C   UNL     1       0.577   1.391   7.999  0.00  0.00    +0.114 A 
ATOM      4  C   UNL     1      -0.249   1.291   9.115  0.00  0.00    +0.138 A 
ATOM      5  N   UNL     1      -0.723   0.025   9.147  0.00  0.00    -0.217 N 
ATOM      6  N   UNL     1      -0.201  -0.669   8.050  0.00  0.00    -0.168 NA
BRANCH   5   7
ATOM      7  C   UNL     1      -1.594  -0.501  10.112  0.00  0.00    +0.068 A 
ATOM      8  C   UNL     1      -1.504  -0.080  11.432  0.00  0.00    +0.030 A 
ATOM      9  C   UNL     1      -2.363  -0.599  12.381  0.00  0.00    +0.040 A 
ATOM     10  C   UNL     1      -3.312  -1.539  12.017  0.00  0.00    +0.124 A 
ATOM     11  C   UNL     1      -3.402  -1.960  10.700  0.00  0.00    +0.040 A 
ATOM     12  C   UNL     1      -2.550  -1.439   9.747  0.00  0.00    +0.030 A 
ATOM     13  F   UNL     1      -4.151  -2.046  12.946  0.00  0.00    -0.205 F 
ENDBRANCH   5   7
BRANCH   4  14
ATOM     14  N   UNL     1      -0.531   2.296  10.021  0.00  0.00    -0.342 N 
ATOM     15  H   UNL     1      -0.138   3.176   9.908  0.00  0.00    +0.144 HD
ATOM     16  H   UNL     1      -1.123   2.122  10.770  0.00  0.00    +0.144 HD
ENDBRANCH   4  14
BRANCH   3  17
ATOM     17  C   UNL     1       1.295   2.555   7.572  0.00  0.00    +0.104 C 
ATOM     18  N   UNL     1       1.864   3.478   7.234  0.00  0.00    -0.191 NA
ENDBRANCH   3  17
ENDBRANCH   1   2
BRANCH   1  19
ATOM     19  C   UNL     1       0.457   0.049   4.891  0.00  0.00    +0.025 C 
BRANCH  19  20
ATOM     20  C   UNL     1       1.224  -0.320   3.620  0.00  0.00    +0.104 C 
BRANCH  20  23
ATOM     21  C   UNL     1       0.861  -0.295   1.210  0.00  0.00    +0.254 C 
ATOM     22  O   UNL     1       1.977  -0.747   1.067  0.00  0.00    -0.272 OA
ATOM     23  N   UNL     1       0.389  -0.045   2.448  0.00  0.00    -0.312 N 
ATOM     24  H   UNL     1      -0.504   0.316   2.563  0.00  0.00    +0.149 HD
BRANCH  21  26
ATOM     25  C   UNL     1      -0.253   1.492  -0.099  0.00  0.00    +0.062 C 
ATOM     26  C   UNL     1       0.001  -0.013   0.005  0.00  0.00    +0.256 C 
BRANCH  26  27
ATOM     27  O   UNL     1       0.671  -0.465  -1.174  0.00  0.00    -0.478 OA
BRANCH  27  28
ATOM     28  C   UNL     1      -0.107  -0.775  -2.245  0.00  0.00    +0.141 A 
ATOM     29  C   UNL     1      -1.473  -0.541  -2.202  0.00  0.00    +0.047 A 
ATOM     30  C   UNL     1      -2.262  -0.856  -3.291  0.00  0.00    +0.005 A 
ATOM     31  C   UNL     1      -1.692  -1.405  -4.425  0.00  0.00    +0.022 A 
ATOM     32  C   UNL     1      -0.329  -1.641  -4.471  0.00  0.00    +0.063 A 
ATOM     33  C   UNL     1       0.466  -1.321  -3.385  0.00  0.00    +0.101 A 
ATOM     34 CL   UNL     1       2.177  -1.609  -3.445  0.00  0.00    -0.078 Cl
ATOM     35 CL   UNL     1       0.384  -2.331  -5.895  0.00  0.00    -0.082 Cl
ENDBRANCH  27  28
ENDBRANCH  26  27
ENDBRANCH  21  26
ENDBRANCH  20  23
ENDBRANCH  19  20
ENDBRANCH   1  19
TORSDOF 10
