REMARK  Name = ZINC39966226
REMARK  7 active torsions:
REMARK  status: ('A' for Active; 'I' for Inactive)
REMARK    1  A    between atoms: C_1  and  N_2
REMARK    2  A    between atoms: C_3  and  C_21
REMARK    3  A    between atoms: C_6  and  S_7
REMARK    4  A    between atoms: S_7  and  C_8
REMARK    5  A    between atoms: C_8  and  C_9
REMARK    6  A    between atoms: N_11  and  C_12
REMARK    7  A    between atoms: C_16  and  N_18
REMARK                            x       y       z     vdW  Elec       q    Type
REMARK                         _______ _______ _______ _____ _____    ______ ____
ROOT
ATOM      1  C   UNL     1       0.794   1.395  -0.082  0.00  0.00    +0.153 C 
ATOM      2  N   UNL     1       0.560  -0.051  -0.059  0.00  0.00    -0.305 N 
ATOM      3  C   UNL     1       0.343  -0.875  -1.138  0.00  0.00    +0.165 A 
ATOM      4  N   UNL     1       0.181  -2.091  -0.668  0.00  0.00    -0.128 NA
ATOM      5  N   UNL     1       0.281  -2.083   0.613  0.00  0.00    -0.122 NA
ATOM      6  C   UNL     1       0.518  -0.865   1.040  0.00  0.00    +0.192 A 
ENDROOT
BRANCH   3   7
ATOM      7  C   UNL     1       0.299  -0.470  -2.559  0.00  0.00    +0.030 A 
ATOM      8  C   UNL     1       1.282   0.322  -3.077  0.00  0.00    +0.057 A 
ATOM      9  S   UNL     1       0.755   0.498  -4.774  0.00  0.00    -0.101 S 
ATOM     10  C   UNL     1      -0.717  -0.489  -4.678  0.00  0.00    -0.006 A 
ATOM     11  C   UNL     1      -0.756  -0.903  -3.388  0.00  0.00    -0.026 A 
ATOM     12  C   UNL     1      -1.889  -1.775  -2.852  0.00  0.00    +0.036 C 
ATOM     13  C   UNL     1      -2.493  -2.596  -3.984  0.00  0.00    +0.005 C 
ATOM     14  C   UNL     1      -3.634  -1.833  -4.655  0.00  0.00    +0.001 C 
ATOM     15  C   UNL     1      -3.105  -0.550  -5.289  0.00  0.00    +0.005 C 
ATOM     16  C   UNL     1      -1.679  -0.801  -5.778  0.00  0.00    +0.043 C 
ENDBRANCH   3   7
BRANCH   6  17
ATOM     17  S   UNL     1       0.737  -0.369   2.716  0.00  0.00    -0.077 S 
BRANCH  17  18
ATOM     18  C   UNL     1       0.562  -1.910   3.656  0.00  0.00    +0.173 C 
BRANCH  18  19
ATOM     19  C   UNL     1       0.730  -1.624   5.126  0.00  0.00    +0.227 C 
ATOM     20  O   UNL     1       0.946  -0.491   5.503  0.00  0.00    -0.275 OA
ATOM     21  N   UNL     1       0.640  -2.627   6.023  0.00  0.00    -0.285 N 
ATOM     22  H   UNL     1       0.542  -3.542   5.718  0.00  0.00    +0.155 HD
BRANCH  21  23
ATOM     23  C   UNL     1       0.688  -2.346   7.393  0.00  0.00    +0.036 A 
ATOM     24  C   UNL     1       1.273  -3.252   8.268  0.00  0.00    +0.023 A 
ATOM     25  C   UNL     1       1.319  -2.973   9.620  0.00  0.00    +0.004 A 
ATOM     26  C   UNL     1       0.783  -1.793  10.102  0.00  0.00    +0.033 A 
ATOM     27  C   UNL     1       0.200  -0.889   9.233  0.00  0.00    +0.128 A 
ATOM     28  C   UNL     1       0.157  -1.160   7.880  0.00  0.00    +0.056 A 
BRANCH  27  29
ATOM     29  N   UNL     1      -0.373   0.373   9.754  0.00  0.00    +0.056 N 
ATOM     30  O   UNL     1      -0.330   0.612  10.938  0.00  0.00    -0.126 OA
ATOM     31  O   UNL     1      -0.883   1.163   8.995  0.00  0.00    -0.126 OA
ENDBRANCH  27  29
ENDBRANCH  21  23
ENDBRANCH  18  19
ENDBRANCH  17  18
ENDBRANCH   6  17
TORSDOF 6
