REMARK  Name = ZINC58809448
REMARK  11 active torsions:
REMARK  status: ('A' for Active; 'I' for Inactive)
REMARK    1  A    between atoms: C_1  and  C_2
REMARK    2  A    between atoms: C_2  and  N_3
REMARK    3  A    between atoms: N_3  and  C_4
REMARK    4  A    between atoms: N_3  and  C_6
REMARK    5  A    between atoms: C_4  and  C_5
REMARK    6  A    between atoms: C_6  and  C_8
REMARK    7  A    between atoms: C_6  and  C_15
REMARK    8  A    between atoms: C_8  and  C_9
REMARK    9  A    between atoms: C_15  and  N_16
REMARK   10  A    between atoms: N_16  and  S_17
REMARK   11  A    between atoms: S_17  and  C_20
REMARK                            x       y       z     vdW  Elec       q    Type
REMARK                         _______ _______ _______ _____ _____    ______ ____
ROOT
ATOM      1  N   UNL     1       2.352   1.867   0.072  0.00  0.00    -0.191 NA
ATOM      2  H   UNL     1       2.136   1.316  -0.697  0.00  0.00    +0.148 HD
ENDROOT
BRANCH   1   3
ATOM      3  S   UNL     1       2.247   3.516  -0.036  0.00  0.00    +0.060 S 
ATOM      4  O   UNL     1       1.847   3.812  -1.367  0.00  0.00    -0.153 OA
ATOM      5  O   UNL     1       1.506   3.951   1.096  0.00  0.00    -0.153 OA
BRANCH   3   6
ATOM      6  C   UNL     1       3.878   4.155   0.154  0.00  0.00    +0.127 A 
ATOM      7  C   UNL     1       4.484   4.821  -0.896  0.00  0.00    +0.077 A 
ATOM      8  C   UNL     1       5.764   5.323  -0.747  0.00  0.00    +0.144 A 
ATOM      9  C   UNL     1       6.440   5.156   0.461  0.00  0.00    +0.077 A 
ATOM     10  C   UNL     1       5.829   4.490   1.509  0.00  0.00    +0.049 A 
ATOM     11  C   UNL     1       4.545   3.995   1.355  0.00  0.00    +0.069 A 
ATOM     12 CL   UNL     1       3.773   3.165   2.670  0.00  0.00    -0.081 Cl
ATOM     13  N   UNL     1       7.737   5.670   0.597  0.00  0.00    -0.280 N 
ATOM     14  C   UNL     1       8.183   6.572  -0.304  0.00  0.00    +0.255 C 
ATOM     15  O   UNL     1       9.312   7.006  -0.224  0.00  0.00    -0.272 OA
ATOM     16  C   UNL     1       7.270   7.037  -1.411  0.00  0.00    +0.325 C 
ATOM     17  O   UNL     1       6.374   5.981  -1.770  0.00  0.00    -0.481 OA
ATOM     18  H   UNL     1       8.307   5.381   1.328  0.00  0.00    +0.155 HD
ENDBRANCH   3   6
ENDBRANCH   1   3
BRANCH   1  19
ATOM     19  C   UNL     1       2.770   1.240   1.328  0.00  0.00    +0.091 C 
BRANCH  19  20
ATOM     20  C   UNL     1       2.375  -0.238   1.317  0.00  0.00    -0.049 C 
BRANCH  20  21
ATOM     21  N   UNL     1       0.911  -0.353   1.305  0.00  0.00    +0.382 N 
ATOM     22  H   UNL     1       0.636  -1.192   1.795  0.00  0.00    -0.081 HD
BRANCH  21  24
ATOM     23  C   UNL     1       0.643   0.770   3.465  0.00  0.00    -0.017 C 
ATOM     24  C   UNL     1       0.322   0.817   1.969  0.00  0.00    -0.082 C 
ENDBRANCH  21  24
BRANCH  21  25
ATOM     25  C   UNL     1       0.436  -0.419  -0.083  0.00  0.00    -0.082 C 
ATOM     26  C   UNL     1       0.945  -1.706  -0.736  0.00  0.00    -0.017 C 
ENDBRANCH  21  25
ENDBRANCH  20  21
BRANCH  20  27
ATOM     27  C   UNL     1       2.931  -0.924   2.567  0.00  0.00    +0.021 C 
BRANCH  27  28
ATOM     28  C   UNL     1       2.628  -2.398   2.507  0.00  0.00    -0.049 A 
ATOM     29  C   UNL     1       1.489  -2.895   3.114  0.00  0.00    +0.003 A 
ATOM     30  C   UNL     1       1.211  -4.248   3.059  0.00  0.00    +0.000 A 
ATOM     31  C   UNL     1       2.071  -5.104   2.397  0.00  0.00    +0.000 A 
ATOM     32  C   UNL     1       3.209  -4.608   1.790  0.00  0.00    +0.000 A 
ATOM     33  C   UNL     1       3.485  -3.254   1.841  0.00  0.00    +0.003 A 
ENDBRANCH  27  28
ENDBRANCH  20  27
ENDBRANCH  19  20
ENDBRANCH   1  19
TORSDOF 9
