REMARK  Name = ZINC59368742
REMARK  9 active torsions:
REMARK  status: ('A' for Active; 'I' for Inactive)
REMARK    1  A    between atoms: C_1  and  C_2
REMARK    2  A    between atoms: C_2  and  C_3
REMARK    3  A    between atoms: C_2  and  C_4
REMARK    4  A    between atoms: C_7  and  C_11
REMARK    5  A    between atoms: C_8  and  O_10
REMARK    6  A    between atoms: N_13  and  N_14
REMARK    7  A    between atoms: C_15  and  C_17
REMARK    8  A    between atoms: C_20  and  S_23
REMARK    9  A    between atoms: S_23  and  N_26
REMARK                            x       y       z     vdW  Elec       q    Type
REMARK                         _______ _______ _______ _____ _____    ______ ____
ROOT
ATOM      1  N   UNL     1      -7.537  -2.159   1.091  0.00  0.00    -0.230 N 
ATOM      2  C   UNL     1      -8.359  -1.843   2.112  0.00  0.00    +0.260 C 
ATOM      3  O   UNL     1      -7.960  -1.140   3.019  0.00  0.00    -0.269 OA
ATOM      4  H   UNL     1      -7.856  -2.720   0.367  0.00  0.00    +0.173 HD
ENDROOT
BRANCH   2   5
ATOM      5  C   UNL     1      -9.747  -2.353   2.127  0.00  0.00    +0.038 A 
ATOM      6  C   UNL     1     -10.207  -3.166   1.090  0.00  0.00    +0.015 A 
ATOM      7  C   UNL     1     -11.503  -3.639   1.111  0.00  0.00    +0.029 A 
ATOM      8  C   UNL     1     -12.346  -3.308   2.157  0.00  0.00    +0.106 A 
ATOM      9  C   UNL     1     -11.897  -2.503   3.188  0.00  0.00    +0.029 A 
ATOM     10  C   UNL     1     -10.601  -2.029   3.183  0.00  0.00    +0.015 A 
BRANCH   8  11
ATOM     11  S   UNL     1     -14.000  -3.916   2.175  0.00  0.00    +0.061 S 
ATOM     12  O   UNL     1     -14.753  -3.020   2.982  0.00  0.00    -0.153 OA
ATOM     13  O   UNL     1     -14.344  -4.198   0.826  0.00  0.00    -0.153 OA
BRANCH  11  14
ATOM     14  N   UNL     1     -13.980  -5.367   2.972  0.00  0.00    -0.177 NA
ATOM     15  C   UNL     1     -13.767  -6.683   2.351  0.00  0.00    +0.109 C 
ATOM     16  C   UNL     1     -13.858  -7.739   3.473  0.00  0.00    +0.018 C 
ATOM     17  C   UNL     1     -14.678  -7.011   4.571  0.00  0.00    +0.018 C 
ATOM     18  C   UNL     1     -14.166  -5.554   4.423  0.00  0.00    +0.109 C 
ENDBRANCH  11  14
ENDBRANCH   8  11
ENDBRANCH   2   5
BRANCH   1  21
ATOM     19  C   UNL     1      -5.400  -1.991   0.056  0.00  0.00    +0.264 C 
ATOM     20  O   UNL     1      -5.799  -2.695  -0.851  0.00  0.00    -0.269 OA
ATOM     21  N   UNL     1      -6.222  -1.675   1.077  0.00  0.00    -0.230 N 
ATOM     22  H   UNL     1      -5.904  -1.114   1.800  0.00  0.00    +0.173 HD
BRANCH  19  26
ATOM     23  C   UNL     1      -1.412  -0.526   0.013  0.00  0.00    -0.041 A 
ATOM     24  C   UNL     1      -2.258  -0.201   1.061  0.00  0.00    +0.005 A 
ATOM     25  C   UNL     1      -3.552  -0.673   1.081  0.00  0.00    +0.017 A 
ATOM     26  C   UNL     1      -4.015  -1.482   0.041  0.00  0.00    +0.079 A 
ATOM     27  C   UNL     1      -3.157  -1.808  -1.018  0.00  0.00    +0.129 A 
ATOM     28  C   UNL     1      -1.858  -1.320  -1.025  0.00  0.00    +0.050 A 
BRANCH  23  30
ATOM     29  C   UNL     1      -0.019   1.526   0.010  0.00  0.00    +0.012 C 
ATOM     30  C   UNL     1       0.002  -0.004   0.002  0.00  0.00    +0.013 C 
ATOM     31  C   UNL     1       0.742  -0.511   1.242  0.00  0.00    +0.012 C 
ENDBRANCH  23  30
BRANCH  27  32
ATOM     32  O   UNL     1      -3.595  -2.592  -2.034  0.00  0.00    -0.506 OA
ATOM     33  H   UNL     1      -3.991  -2.102  -2.767  0.00  0.00    +0.292 HD
ENDBRANCH  27  32
ENDBRANCH  19  26
ENDBRANCH   1  21
TORSDOF 7
