REMARK  Name = ZINC52819196
REMARK  5 active torsions:
REMARK  status: ('A' for Active; 'I' for Inactive)
REMARK    1  A    between atoms: C_1  and  C_2
REMARK    2  A    between atoms: C_7  and  N_12
REMARK    3  A    between atoms: C_9  and  C_11
REMARK    4  A    between atoms: C_13  and  C_15
REMARK    5  A    between atoms: C_18  and  N_21
REMARK                            x       y       z     vdW  Elec       q    Type
REMARK                         _______ _______ _______ _____ _____    ______ ____
ROOT
ATOM      1  C   UNL     1       2.770  -4.229   3.601  0.00  0.00    +0.037 A 
ATOM      2  C   UNL     1       2.835  -3.436   4.751  0.00  0.00    +0.015 A 
ATOM      3  C   UNL     1       3.501  -3.895   5.864  0.00  0.00    +0.025 A 
ATOM      4  C   UNL     1       4.110  -5.147   5.846  0.00  0.00    +0.051 A 
ATOM      5  C   UNL     1       4.047  -5.939   4.703  0.00  0.00    +0.025 A 
ATOM      6  C   UNL     1       3.377  -5.488   3.588  0.00  0.00    +0.015 A 
ENDROOT
BRANCH   4   7
ATOM      7  N   UNL     1       4.782  -5.608   6.973  0.00  0.00    -0.207 N 
ATOM      8  C   UNL     1       5.386  -4.792   8.043  0.00  0.00    +0.133 C 
ATOM      9  C   UNL     1       5.377  -5.552   9.382  0.00  0.00    +0.045 C 
ATOM     10  C   UNL     1       5.874  -6.988   9.035  0.00  0.00    +0.190 C 
ATOM     11  S   UNL     1       5.067  -7.204   7.397  0.00  0.00    +0.046 S 
ATOM     12  O   UNL     1       5.997  -7.691   6.440  0.00  0.00    -0.155 OA
ATOM     13  O   UNL     1       3.782  -7.793   7.541  0.00  0.00    -0.155 OA
ENDBRANCH   4   7
BRANCH   1  15
ATOM     14  N   UNL     1       1.471  -2.526   2.420  0.00  0.00    -0.308 N 
ATOM     15  C   UNL     1       2.056  -3.740   2.406  0.00  0.00    +0.244 C 
ATOM     16  O   UNL     1       1.996  -4.433   1.409  0.00  0.00    -0.270 OA
ATOM     17  H   UNL     1       1.520  -1.974   3.216  0.00  0.00    +0.149 HD
BRANCH  14  23
ATOM     18  C   UNL     1      -0.019   1.526   0.010  0.00  0.00    +0.008 C 
ATOM     19  C   UNL     1       0.002  -0.004   0.002  0.00  0.00    -0.009 C 
ATOM     20  C   UNL     1      -1.433  -0.534   0.013  0.00  0.00    +0.003 C 
ATOM     21  C   UNL     1      -1.413  -2.063   0.004  0.00  0.00    +0.002 C 
ATOM     22  C   UNL     1      -0.673  -2.570   1.244  0.00  0.00    +0.022 C 
ATOM     23  C   UNL     1       0.763  -2.041   1.233  0.00  0.00    +0.076 C 
ATOM     24  C   UNL     1       0.742  -0.511   1.242  0.00  0.00    +0.009 C 
ATOM     25  C   UNL     1       0.026  -0.018   2.500  0.00  0.00    +0.009 C 
ENDBRANCH  14  23
ENDBRANCH   1  15
TORSDOF 3
