REMARK  Name = ZINC12833118
REMARK  10 active torsions:
REMARK  status: ('A' for Active; 'I' for Inactive)
REMARK    1  A    between atoms: C_1  and  C_2
REMARK    2  A    between atoms: C_5  and  C_35
REMARK    3  A    between atoms: C_9  and  C_14
REMARK    4  A    between atoms: C_14  and  N_69
REMARK    5  A    between atoms: C_15  and  C_16
REMARK    6  A    between atoms: C_15  and  N_69
REMARK    7  A    between atoms: C_16  and  C_17
REMARK    8  A    between atoms: C_23  and  C_24
REMARK    9  A    between atoms: C_23  and  N_69
REMARK   10  A    between atoms: N_28  and  C_29
REMARK                            x       y       z     vdW  Elec       q    Type
REMARK                         _______ _______ _______ _____ _____    ______ ____
ROOT
ATOM      1  N   UNL     1      -2.107   4.483   0.403  0.00  0.00    +0.387 N 
ATOM      2  H   UNL     1      -1.106   4.588   0.608  0.00  0.00    -0.081 HD
ENDROOT
BRANCH   1   3
ATOM      3  C   UNL     1      -2.882   4.801   1.621  0.00  0.00    -0.037 C 
BRANCH   3  12
ATOM      4  C   UNL     1       0.634   6.436   5.096  0.00  0.00    +0.044 C 
ATOM      5  C   UNL     1       0.294   5.009   5.441  0.00  0.00    -0.041 A 
ATOM      6  C   UNL     1       0.893   4.400   6.508  0.00  0.00    +0.004 A 
ATOM      7  C   UNL     1       0.587   3.086   6.833  0.00  0.00    +0.005 A 
ATOM      8  C   UNL     1      -0.325   2.370   6.087  0.00  0.00    -0.026 A 
ATOM      9  C   UNL     1      -0.946   2.969   4.997  0.00  0.00    +0.052 A 
ATOM     10  C   UNL     1      -0.634   4.303   4.670  0.00  0.00    +0.002 A 
ATOM     11  C   UNL     1      -1.293   4.925   3.520  0.00  0.00    +0.017 A 
ATOM     12  C   UNL     1      -2.185   4.191   2.810  0.00  0.00    +0.001 A 
ATOM     13  C   UNL     1      -2.467   2.859   3.183  0.00  0.00    +0.251 A 
ATOM     14  O   UNL     1      -3.275   2.218   2.533  0.00  0.00    -0.268 OA
ATOM     15  N   UNL     1      -1.863   2.277   4.234  0.00  0.00    -0.322 N 
ATOM     16  H   UNL     1      -2.077   1.359   4.460  0.00  0.00    +0.169 HD
ATOM     17  C   UNL     1      -0.647   0.944   6.451  0.00  0.00    +0.046 C 
ENDBRANCH   3  12
ENDBRANCH   1   3
BRANCH   1  18
ATOM     18  C   UNL     1      -2.474   5.412  -0.686  0.00  0.00    -0.073 C 
BRANCH  18  19
ATOM     19  C   UNL     1      -1.852   6.779  -0.396  0.00  0.00    +0.016 C 
BRANCH  19  20
ATOM     20  C   UNL     1      -2.224   7.743  -1.494  0.00  0.00    -0.049 A 
ATOM     21  C   UNL     1      -1.363   7.946  -2.556  0.00  0.00    +0.003 A 
ATOM     22  C   UNL     1      -1.706   8.826  -3.565  0.00  0.00    +0.000 A 
ATOM     23  C   UNL     1      -2.905   9.511  -3.507  0.00  0.00    +0.000 A 
ATOM     24  C   UNL     1      -3.764   9.313  -2.441  0.00  0.00    +0.000 A 
ATOM     25  C   UNL     1      -3.423   8.428  -1.435  0.00  0.00    +0.003 A 
ENDBRANCH  19  20
ENDBRANCH  18  19
ENDBRANCH   1  18
BRANCH   1  26
ATOM     26  C   UNL     1      -2.368   3.089  -0.012  0.00  0.00    +0.001 C 
BRANCH  26  27
ATOM     27  C   UNL     1      -1.408   2.722  -1.114  0.00  0.00    +0.135 A 
ATOM     28  N   UNL     1      -1.607   2.858  -2.403  0.00  0.00    -0.115 NA
ATOM     29  N   UNL     1      -0.556   2.432  -3.015  0.00  0.00    -0.023 NA
ATOM     30  N   UNL     1       0.310   2.032  -2.150  0.00  0.00    -0.044 NA
ATOM     31  N   UNL     1      -0.181   2.189  -0.967  0.00  0.00    -0.228 N 
BRANCH  31  32
ATOM     32  C   UNL     1       0.477   1.857   0.299  0.00  0.00    +0.111 C 
ATOM     33  C   UNL     1       1.777   2.655   0.424  0.00  0.00    +0.027 C 
ATOM     34  C   UNL     1       2.464   2.307   1.746  0.00  0.00    +0.002 C 
ATOM     35  C   UNL     1       2.779   0.811   1.779  0.00  0.00    +0.000 C 
ATOM     36  C   UNL     1       1.480   0.013   1.654  0.00  0.00    +0.002 C 
ATOM     37  C   UNL     1       0.793   0.360   0.332  0.00  0.00    +0.027 C 
ENDBRANCH  31  32
ENDBRANCH  26  27
ENDBRANCH   1  26
TORSDOF 8
