REMARK  Name = ZINC63407978
REMARK  8 active torsions:
REMARK  status: ('A' for Active; 'I' for Inactive)
REMARK    1  A    between atoms: C_1  and  C_2
REMARK    2  A    between atoms: C_2  and  C_3
REMARK    3  A    between atoms: C_3  and  C_4
REMARK    4  A    between atoms: C_4  and  N_5
REMARK    5  A    between atoms: C_6  and  C_8
REMARK    6  A    between atoms: N_16  and  C_17
REMARK    7  A    between atoms: N_20  and  C_23
REMARK    8  A    between atoms: C_23  and  C_24
REMARK                            x       y       z     vdW  Elec       q    Type
REMARK                         _______ _______ _______ _____ _____    ______ ____
ROOT
ATOM      1  C   UNL     1      -3.980  -5.330  -0.834  0.00  0.00    +0.078 C 
ATOM      2  C   UNL     1      -4.695  -4.647   0.335  0.00  0.00    +0.032 C 
ATOM      3  C   UNL     1      -6.163  -5.082   0.355  0.00  0.00    +0.110 C 
ATOM      4  N   UNL     1      -6.222  -6.549   0.387  0.00  0.00    -0.286 N 
ATOM      5  C   UNL     1      -5.494  -7.308  -0.639  0.00  0.00    +0.110 C 
ATOM      6  C   UNL     1      -4.032  -6.848  -0.648  0.00  0.00    +0.032 C 
ATOM      7  C   UNL     1      -6.929  -7.188   1.340  0.00  0.00    +0.302 C 
ATOM      8  O   UNL     1      -7.455  -6.553   2.234  0.00  0.00    -0.253 OA
ATOM      9  N   UNL     1      -7.054  -8.529   1.302  0.00  0.00    -0.297 N 
ATOM     10  H   UNL     1      -6.576  -9.042   0.632  0.00  0.00    +0.151 HD
ENDROOT
BRANCH   9  11
ATOM     11  C   UNL     1      -7.912  -9.213   2.273  0.00  0.00    +0.071 C 
ATOM     12  C   UNL     1      -7.121  -9.479   3.557  0.00  0.00    +0.004 C 
ATOM     13  C   UNL     1      -7.997 -10.263   4.536  0.00  0.00    -0.077 C 
ATOM     14  N   UNL     1      -8.393 -11.540   3.930  0.00  0.00    +0.380 N 
ATOM     15  C   UNL     1      -9.213 -11.292   2.738  0.00  0.00    -0.077 C 
ATOM     16  C   UNL     1      -8.383 -10.548   1.689  0.00  0.00    +0.004 C 
ATOM     17  H   UNL     1      -7.567 -12.057   3.668  0.00  0.00    -0.082 HD
BRANCH  14  18
ATOM     18  C   UNL     1      -9.169 -12.322   4.902  0.00  0.00    -0.075 C 
BRANCH  18  19
ATOM     19  C   UNL     1      -8.271 -12.707   6.079  0.00  0.00    -0.028 C 
ATOM     20  C   UNL     1      -7.152 -13.656   5.603  0.00  0.00    +0.002 C 
ATOM     21  C   UNL     1      -6.976 -14.655   6.774  0.00  0.00    +0.000 C 
ATOM     22  C   UNL     1      -8.431 -14.873   7.258  0.00  0.00    +0.000 C 
ATOM     23  C   UNL     1      -9.085 -13.481   7.132  0.00  0.00    +0.002 C 
ENDBRANCH  18  19
ENDBRANCH  14  18
ENDBRANCH   9  11
BRANCH   1  25
ATOM     24  N   UNL     1      -2.252  -3.572  -1.035  0.00  0.00    -0.315 N 
ATOM     25  C   UNL     1      -2.543  -4.879  -0.877  0.00  0.00    +0.216 C 
ATOM     26  O   UNL     1      -1.649  -5.691  -0.770  0.00  0.00    -0.276 OA
ATOM     27  H   UNL     1      -2.967  -2.923  -1.121  0.00  0.00    +0.149 HD
BRANCH  24  28
ATOM     28  C   UNL     1      -0.855  -3.133  -1.077  0.00  0.00    +0.104 C 
BRANCH  28  29
ATOM     29  C   UNL     1      -0.803  -1.615  -1.263  0.00  0.00    +0.018 C 
BRANCH  29  31
ATOM     30  C   UNL     1       0.708   0.361  -1.492  0.00  0.00    +0.004 C 
ATOM     31  C   UNL     1       0.656  -1.157  -1.307  0.00  0.00    -0.002 C 
ENDBRANCH  29  31
ENDBRANCH  28  29
ENDBRANCH  24  28
ENDBRANCH   1  25
TORSDOF 7
