REMARK  Name = ZINC02119354
REMARK  8 active torsions:
REMARK  status: ('A' for Active; 'I' for Inactive)
REMARK    1  A    between atoms: C_1  and  O_2
REMARK    2  A    between atoms: O_2  and  C_3
REMARK    3  A    between atoms: C_6  and  C_19
REMARK    4  A    between atoms: C_8  and  C_9
REMARK    5  A    between atoms: C_9  and  N_10
REMARK    6  A    between atoms: C_32  and  C_34
REMARK    7  A    between atoms: C_34  and  O_36
REMARK    8  A    between atoms: O_36  and  C_37
REMARK                            x       y       z     vdW  Elec       q    Type
REMARK                         _______ _______ _______ _____ _____    ______ ____
ROOT
ATOM      1  C   UNL     1       7.045   4.213  -3.981  0.00  0.00    +0.008 C 
ATOM      2  C   UNL     1       6.058   4.932  -4.870  0.00  0.00    +0.010 A 
ATOM      3  C   UNL     1       6.374   5.391  -6.101  0.00  0.00    -0.021 A 
ATOM      4  C   UNL     1       5.187   6.014  -6.643  0.00  0.00    +0.003 A 
ATOM      5  C   UNL     1       4.917   6.649  -7.859  0.00  0.00    +0.010 A 
ATOM      6  C   UNL     1       3.644   7.134  -8.038  0.00  0.00    +0.001 A 
ATOM      7  C   UNL     1       2.664   7.004  -7.067  0.00  0.00    +0.002 A 
ATOM      8  C   UNL     1       2.903   6.379  -5.856  0.00  0.00    +0.026 A 
ATOM      9  C   UNL     1       4.186   5.878  -5.646  0.00  0.00    +0.047 A 
ATOM     10  N   UNL     1       4.750   5.221  -4.590  0.00  0.00    -0.359 N 
ATOM     11  H   UNL     1       4.292   4.993  -3.765  0.00  0.00    +0.166 HD
ATOM     12  C   UNL     1       7.742   5.240  -6.720  0.00  0.00    +0.033 C 
ATOM     13  C   UNL     1       8.729   4.873  -5.603  0.00  0.00    +0.045 C 
ATOM     14  N   UNL     1       8.183   3.754  -4.807  0.00  0.00    +0.396 N 
ATOM     15  H   UNL     1       7.863   3.013  -5.442  0.00  0.00    -0.083 HD
ATOM     16  H   UNL     1       8.919   3.386  -4.194  0.00  0.00    -0.083 HD
ENDROOT
BRANCH   1  20
ATOM     17  C   UNL     1       5.161   0.823  -2.184  0.00  0.00    +0.125 A 
ATOM     18  C   UNL     1       5.602   0.758  -3.498  0.00  0.00    +0.046 A 
ATOM     19  C   UNL     1       6.212   1.854  -4.076  0.00  0.00    +0.006 A 
ATOM     20  C   UNL     1       6.379   3.018  -3.348  0.00  0.00    -0.055 A 
ATOM     21  C   UNL     1       5.937   3.087  -2.040  0.00  0.00    +0.011 A 
ATOM     22  C   UNL     1       5.325   1.993  -1.457  0.00  0.00    +0.016 A 
BRANCH  17  24
ATOM     23  C   UNL     1       4.430  -1.426  -2.420  0.00  0.00    +0.277 C 
ATOM     24  O   UNL     1       4.565  -0.256  -1.612  0.00  0.00    -0.495 OA
ENDBRANCH  17  24
BRANCH  22  25
ATOM     25  C   UNL     1       4.843   2.069  -0.032  0.00  0.00    +0.184 C 
BRANCH  25  26
ATOM     26  N   UNL     1       3.399   2.313  -0.017  0.00  0.00    -0.239 N 
ATOM     27  C   UNL     1       2.404   1.365  -0.013  0.00  0.00    +0.089 A 
ATOM     28  C   UNL     1       2.395  -0.026  -0.021  0.00  0.00    +0.029 A 
ATOM     29  C   UNL     1       1.205  -0.698  -0.013  0.00  0.00    +0.002 A 
ATOM     30  C   UNL     1       0.002  -0.004   0.002  0.00  0.00    +0.002 A 
ATOM     31  C   UNL     1      -0.016   1.360   0.009  0.00  0.00    +0.032 A 
ATOM     32  C   UNL     1       1.190   2.073   0.002  0.00  0.00    +0.113 A 
ATOM     33  N   UNL     1       1.484   3.388   0.006  0.00  0.00    -0.129 NA
ATOM     34  N   UNL     1       2.758   3.562  -0.005  0.00  0.00    -0.064 NA
ENDBRANCH  25  26
ENDBRANCH  22  25
ENDBRANCH   1  20
BRANCH  13  35
ATOM     35  C   UNL     1      10.041   4.450  -6.212  0.00  0.00    +0.293 C 
ATOM     36  O   UNL     1      10.306   3.276  -6.320  0.00  0.00    -0.253 OA
BRANCH  35  37
ATOM     37  O   UNL     1      10.915   5.377  -6.634  0.00  0.00    -0.469 OA
ATOM     38  C   UNL     1      12.159   4.896  -7.210  0.00  0.00    +0.280 C 
ENDBRANCH  35  37
ENDBRANCH  13  35
TORSDOF 6
