REMARK  Name = ZINC20038466
REMARK  7 active torsions:
REMARK  status: ('A' for Active; 'I' for Inactive)
REMARK    1  A    between atoms: C_1  and  O_2
REMARK    2  A    between atoms: O_2  and  C_3
REMARK    3  A    between atoms: C_6  and  N_9
REMARK    4  A    between atoms: N_21  and  C_24
REMARK    5  A    between atoms: C_24  and  N_25
REMARK    6  A    between atoms: N_28  and  C_31
REMARK    7  A    between atoms: C_31  and  C_32
REMARK                            x       y       z     vdW  Elec       q    Type
REMARK                         _______ _______ _______ _____ _____    ______ ____
ROOT
ATOM      1  N   UNL     1       4.430  -0.809  -1.150  0.00  0.00    -0.243 N 
ATOM      2  C   UNL     1       5.301   0.176  -0.935  0.00  0.00    +0.231 C 
ATOM      3  O   UNL     1       5.801   0.786  -1.856  0.00  0.00    -0.274 OA
ATOM      4  C   UNL     1       5.645   0.506   0.510  0.00  0.00    +0.168 C 
ATOM      5  S   UNL     1       4.975  -0.989   1.364  0.00  0.00    -0.111 S 
ATOM      6  C   UNL     1       3.872  -1.517  -0.003  0.00  0.00    +0.193 C 
ATOM      7  C   UNL     1       2.448  -1.155   0.285  0.00  0.00    +0.017 A 
ATOM      8  C   UNL     1       1.794   0.032   0.525  0.00  0.00    +0.009 A 
ATOM      9  C   UNL     1       0.431   0.038   0.763  0.00  0.00    +0.000 A 
ATOM     10  C   UNL     1      -0.273  -1.152   0.761  0.00  0.00    +0.002 A 
ATOM     11  C   UNL     1       0.377  -2.345   0.523  0.00  0.00    +0.024 A 
ATOM     12  C   UNL     1       1.748  -2.361   0.282  0.00  0.00    +0.044 A 
ATOM     13  N   UNL     1       2.617  -3.423   0.020  0.00  0.00    -0.255 N 
ATOM     14  C   UNL     1       3.888  -3.008  -0.159  0.00  0.00    +0.260 C 
ATOM     15  O   UNL     1       4.853  -3.703  -0.399  0.00  0.00    -0.271 OA
ENDROOT
BRANCH   1  19
ATOM     16  C   UNL     1       3.320  -1.850  -5.033  0.00  0.00    +0.120 A 
ATOM     17  C   UNL     1       2.544  -0.960  -4.305  0.00  0.00    +0.047 A 
ATOM     18  C   UNL     1       2.911  -0.616  -3.019  0.00  0.00    +0.027 A 
ATOM     19  C   UNL     1       4.057  -1.159  -2.455  0.00  0.00    +0.039 A 
ATOM     20  C   UNL     1       4.837  -2.046  -3.186  0.00  0.00    +0.027 A 
ATOM     21  C   UNL     1       4.465  -2.394  -4.470  0.00  0.00    +0.047 A 
BRANCH  16  23
ATOM     22  C   UNL     1       3.804  -3.110  -6.990  0.00  0.00    +0.277 C 
ATOM     23  O   UNL     1       2.959  -2.189  -6.299  0.00  0.00    -0.495 OA
ENDBRANCH  16  23
ENDBRANCH   1  19
BRANCH  13  24
ATOM     24  C   UNL     1       2.197  -4.825  -0.053  0.00  0.00    +0.200 C 
BRANCH  24  25
ATOM     25  N   UNL     1       1.820  -5.152  -1.434  0.00  0.00    -0.290 NA
ATOM     26  C   UNL     1       0.451  -4.703  -1.727  0.00  0.00    +0.067 C 
ATOM     27  C   UNL     1       0.126  -4.990  -3.195  0.00  0.00    -0.063 C 
ATOM     28  N   UNL     1       0.272  -6.429  -3.454  0.00  0.00    +0.384 N 
ATOM     29  C   UNL     1       1.640  -6.878  -3.161  0.00  0.00    -0.063 C 
ATOM     30  C   UNL     1       1.966  -6.591  -1.693  0.00  0.00    +0.067 C 
ATOM     31  H   UNL     1      -0.413  -6.966  -2.781  0.00  0.00    -0.081 HD
BRANCH  28  32
ATOM     32  C   UNL     1      -0.105  -6.756  -4.835  0.00  0.00    -0.043 C 
BRANCH  32  33
ATOM     33  C   UNL     1      -1.404  -6.073  -5.177  0.00  0.00    -0.064 A 
ATOM     34  C   UNL     1      -2.606  -6.717  -4.947  0.00  0.00    +0.002 A 
ATOM     35  C   UNL     1      -3.797  -6.088  -5.255  0.00  0.00    +0.000 A 
ATOM     36  C   UNL     1      -3.787  -4.819  -5.803  0.00  0.00    +0.000 A 
ATOM     37  C   UNL     1      -2.586  -4.177  -6.038  0.00  0.00    +0.000 A 
ATOM     38  C   UNL     1      -1.394  -4.804  -5.725  0.00  0.00    +0.002 A 
ENDBRANCH  32  33
ENDBRANCH  28  32
ENDBRANCH  24  25
ENDBRANCH  13  24
TORSDOF 6
