REMARK  Name = ZINC05342844
REMARK  8 active torsions:
REMARK  status: ('A' for Active; 'I' for Inactive)
REMARK    1  A    between atoms: C_1  and  C_2
REMARK    2  A    between atoms: C_4  and  C_30
REMARK    3  A    between atoms: C_5  and  O_29
REMARK    4  A    between atoms: C_6  and  C_8
REMARK    5  A    between atoms: N_16  and  C_26
REMARK    6  A    between atoms: C_17  and  C_19
REMARK    7  A    between atoms: C_26  and  C_27
REMARK    8  A    between atoms: C_27  and  O_28
REMARK                            x       y       z     vdW  Elec       q    Type
REMARK                         _______ _______ _______ _____ _____    ______ ____
ROOT
ATOM      1  C   UNL     1      -0.106  -3.399   2.893  0.00  0.00    +0.102 A 
ATOM      2  C   UNL     1       0.034  -2.675   4.081  0.00  0.00    +0.035 A 
ATOM      3  C   UNL     1       0.215  -3.616   5.077  0.00  0.00    +0.126 A 
ATOM      4  N   UNL     1       0.177  -4.834   4.459  0.00  0.00    -0.272 N 
ATOM      5  H   UNL     1       0.276  -5.689   4.906  0.00  0.00    +0.189 HD
ATOM      6  N   UNL     1      -0.015  -4.678   3.197  0.00  0.00    -0.173 NA
ATOM      7  C   UNL     1       0.370  -2.917   6.357  0.00  0.00    +0.266 C 
ATOM      8  O   UNL     1       0.546  -3.463   7.429  0.00  0.00    -0.268 OA
ATOM      9  N   UNL     1       0.290  -1.586   6.177  0.00  0.00    -0.283 N 
ATOM     10  C   UNL     1       0.074  -1.327   4.748  0.00  0.00    +0.144 C 
ENDROOT
BRANCH   1  16
ATOM     11  C   UNL     1      -0.933   0.543  -0.057  0.00  0.00    +0.044 C 
ATOM     12  C   UNL     1      -0.722  -0.939   0.116  0.00  0.00    -0.049 A 
ATOM     13  C   UNL     1      -0.733  -1.771  -0.990  0.00  0.00    +0.010 A 
ATOM     14  C   UNL     1      -0.540  -3.131  -0.840  0.00  0.00    -0.008 A 
ATOM     15  C   UNL     1      -0.335  -3.669   0.420  0.00  0.00    +0.129 A 
ATOM     16  C   UNL     1      -0.324  -2.832   1.539  0.00  0.00    +0.044 A 
ATOM     17  C   UNL     1      -0.513  -1.461   1.377  0.00  0.00    +0.017 A 
ATOM     18  C   UNL     1      -0.553  -4.030  -2.050  0.00  0.00    +0.047 C 
BRANCH  15  19
ATOM     19  O   UNL     1      -0.147  -5.007   0.568  0.00  0.00    -0.506 OA
ATOM     20  H   UNL     1       0.779  -5.281   0.517  0.00  0.00    +0.292 HD
ENDBRANCH  15  19
ENDBRANCH   1  16
BRANCH  10  21
ATOM     21  C   UNL     1       1.210  -0.507   4.193  0.00  0.00    +0.013 A 
ATOM     22  C   UNL     1       2.495  -1.016   4.195  0.00  0.00    +0.008 A 
ATOM     23  C   UNL     1       3.538  -0.264   3.686  0.00  0.00    +0.001 A 
ATOM     24  C   UNL     1       3.296   0.998   3.174  0.00  0.00    +0.003 A 
ATOM     25  C   UNL     1       2.012   1.508   3.170  0.00  0.00    +0.039 A 
ATOM     26  C   UNL     1       0.966   0.754   3.675  0.00  0.00    +0.129 A 
ATOM     27  F   UNL     1      -0.290   1.250   3.668  0.00  0.00    -0.205 F 
ENDBRANCH  10  21
BRANCH   9  28
ATOM     28  C   UNL     1       0.399  -0.570   7.227  0.00  0.00    +0.137 C 
BRANCH  28  29
ATOM     29  C   UNL     1       1.875  -0.276   7.501  0.00  0.00    +0.175 C 
BRANCH  29  30
ATOM     30  O   UNL     1       2.451   0.369   6.364  0.00  0.00    -0.393 OA
ATOM     31  H   UNL     1       3.404   0.522   6.439  0.00  0.00    +0.209 HD
ENDBRANCH  29  30
ENDBRANCH  28  29
ENDBRANCH   9  28
TORSDOF 6
