REMARK  Name = ZINC38650210
REMARK  12 active torsions:
REMARK  status: ('A' for Active; 'I' for Inactive)
REMARK    1  A    between atoms: C_1  and  C_2
REMARK    2  A    between atoms: C_4  and  C_35
REMARK    3  A    between atoms: C_6  and  O_8
REMARK    4  A    between atoms: O_8  and  C_9
REMARK    5  A    between atoms: C_9  and  C_10
REMARK    6  A    between atoms: C_10  and  O_12
REMARK    7  A    between atoms: O_12  and  C_13
REMARK    8  A    between atoms: C_20  and  N_34
REMARK    9  A    between atoms: C_21  and  C_32
REMARK   10  A    between atoms: C_22  and  C_24
REMARK   11  A    between atoms: C_28  and  O_30
REMARK   12  A    between atoms: O_30  and  C_31
REMARK                            x       y       z     vdW  Elec       q    Type
REMARK                         _______ _______ _______ _____ _____    ______ ____
ROOT
ATOM      1  C   UNL     1       0.045  -3.221   7.098  0.00  0.00    +0.135 A 
ATOM      2  C   UNL     1       0.107  -4.601   6.962  0.00  0.00    +0.047 A 
ATOM      3  C   UNL     1       0.088  -5.407   8.084  0.00  0.00    +0.012 A 
ATOM      4  C   UNL     1       0.009  -4.844   9.345  0.00  0.00    +0.008 A 
ATOM      5  C   UNL     1      -0.052  -3.466   9.487  0.00  0.00    +0.138 A 
ATOM      6  C   UNL     1      -0.028  -2.654   8.360  0.00  0.00    +0.093 A 
ATOM      7  O   UNL     1      -0.131  -2.896  10.715  0.00  0.00    -0.441 OA
ATOM      8  C   UNL     1       0.231  -3.596  11.803  0.00  0.00    +0.199 C 
ATOM      9  C   UNL     1       0.307  -4.948  11.793  0.00  0.00    +0.098 C 
ATOM     10  C   UNL     1      -0.011  -5.739  10.556  0.00  0.00    +0.098 C 
ENDROOT
BRANCH  10  11
ATOM     11  C   UNL     1      -1.378  -6.358  10.697  0.00  0.00    -0.031 A 
ATOM     12  C   UNL     1      -2.489  -5.550  10.852  0.00  0.00    +0.005 A 
ATOM     13  C   UNL     1      -3.745  -6.114  10.982  0.00  0.00    +0.004 A 
ATOM     14  C   UNL     1      -3.892  -7.488  10.956  0.00  0.00    +0.045 A 
ATOM     15  C   UNL     1      -2.778  -8.301  10.800  0.00  0.00    +0.120 A 
ATOM     16  C   UNL     1      -1.520  -7.731  10.664  0.00  0.00    +0.050 A 
BRANCH  15  17
ATOM     17  O   UNL     1      -2.920  -9.652  10.775  0.00  0.00    -0.495 OA
ATOM     18  C   UNL     1      -4.246 -10.168  10.915  0.00  0.00    +0.277 C 
ENDBRANCH  15  17
ENDBRANCH  10  11
BRANCH   8  19
ATOM     19  N   UNL     1       0.531  -2.921  12.960  0.00  0.00    -0.328 N 
ATOM     20  H   UNL     1       0.481  -1.952  12.982  0.00  0.00    +0.145 HD
ATOM     21  H   UNL     1       0.794  -3.412  13.754  0.00  0.00    +0.145 HD
ENDBRANCH   8  19
BRANCH   9  22
ATOM     22  C   UNL     1       0.700  -5.637  12.985  0.00  0.00    +0.101 C 
ATOM     23  N   UNL     1       1.011  -6.184  13.931  0.00  0.00    -0.191 NA
ENDBRANCH   9  22
BRANCH   1  24
ATOM     24  O   UNL     1       0.063  -2.427   5.995  0.00  0.00    -0.423 OA
BRANCH  24  25
ATOM     25  C   UNL     1      -1.067  -2.318   5.279  0.00  0.00    +0.350 C 
ATOM     26  O   UNL     1      -2.033  -2.983   5.569  0.00  0.00    -0.247 OA
BRANCH  25  27
ATOM     27  C   UNL     1      -1.131  -1.364   4.114  0.00  0.00    +0.349 C 
BRANCH  27  28
ATOM     28  O   UNL     1      -2.428  -1.428   3.517  0.00  0.00    -0.481 OA
BRANCH  28  34
ATOM     29  C   UNL     1      -0.789   1.931   0.378  0.00  0.00    +0.044 C 
ATOM     30  C   UNL     1      -1.881   1.026   0.887  0.00  0.00    -0.047 A 
ATOM     31  C   UNL     1      -3.115   1.012   0.263  0.00  0.00    +0.007 A 
ATOM     32  C   UNL     1      -4.118   0.183   0.727  0.00  0.00    -0.047 A 
ATOM     33  C   UNL     1      -3.891  -0.636   1.817  0.00  0.00    +0.049 A 
ATOM     34  C   UNL     1      -2.654  -0.624   2.445  0.00  0.00    +0.122 A 
ATOM     35  C   UNL     1      -1.647   0.205   1.974  0.00  0.00    +0.049 A 
ATOM     36  C   UNL     1      -5.462   0.171   0.044  0.00  0.00    +0.044 C 
ENDBRANCH  28  34
ENDBRANCH  27  28
ENDBRANCH  25  27
ENDBRANCH  24  25
ENDBRANCH   1  24
TORSDOF 9
