REMARK  Name = ZINC64349274
REMARK  10 active torsions:
REMARK  status: ('A' for Active; 'I' for Inactive)
REMARK    1  A    between atoms: C_1  and  C_2
REMARK    2  A    between atoms: C_7  and  O_22
REMARK    3  A    between atoms: C_13  and  C_15
REMARK    4  A    between atoms: C_15  and  C_16
REMARK    5  A    between atoms: O_22  and  C_23
REMARK    6  A    between atoms: C_23  and  C_24
REMARK    7  A    between atoms: N_26  and  CA_27
REMARK    8  A    between atoms: CA_27  and  CB_29
REMARK    9  A    between atoms: CA_27  and  C_39
REMARK   10  A    between atoms: CB_29  and  CG_30
REMARK                            x       y       z     vdW  Elec       q    Type
REMARK                         _______ _______ _______ _____ _____    ______ ____
ROOT
ATOM      1  O   UNK A   0      -5.323  -1.866  -0.078  0.00  0.00    -0.483 OA
ENDROOT
BRANCH   1   7
ATOM      2  C   UNK A   0      -0.019   1.526   0.010  0.00  0.00    +0.013 C 
ATOM      3  C   UNK A   0       0.002  -0.004   0.002  0.00  0.00    +0.034 C 
ATOM      4  C   UNK A   0      -1.413  -0.524   0.009  0.00  0.00    -0.001 A 
ATOM      5  C   UNK A   0      -2.362   0.134  -0.759  0.00  0.00    +0.011 A 
ATOM      6  C   UNK A   0      -3.668  -0.310  -0.789  0.00  0.00    +0.046 A 
ATOM      7  C   UNK A   0      -4.039  -1.424  -0.048  0.00  0.00    +0.125 A 
ATOM      8  C   UNK A   0      -3.095  -2.082   0.722  0.00  0.00    +0.092 A 
ATOM      9  C   UNK A   0      -1.781  -1.631   0.754  0.00  0.00    +0.139 A 
ATOM     10  O   UNK A   0      -0.889  -2.295   1.540  0.00  0.00    -0.425 OA
ATOM     11  C   UNK A   0       0.414  -1.979   1.408  0.00  0.00    +0.316 C 
ATOM     12  O   UNK A   0       1.276  -2.826   1.423  0.00  0.00    -0.250 OA
ATOM     13  C   UNK A   0       0.747  -0.510   1.241  0.00  0.00    +0.110 C 
BRANCH  13  14
ATOM     14  C   UNK A   0       0.290   0.271   2.476  0.00  0.00    +0.050 C 
BRANCH  14  15
ATOM     15  C   UNK A   0       1.113  -0.147   3.667  0.00  0.00    -0.047 A 
ATOM     16  C   UNK A   0       0.698  -1.201   4.459  0.00  0.00    +0.003 A 
ATOM     17  C   UNK A   0       1.453  -1.585   5.551  0.00  0.00    +0.000 A 
ATOM     18  C   UNK A   0       2.623  -0.913   5.852  0.00  0.00    +0.000 A 
ATOM     19  C   UNK A   0       3.039   0.140   5.060  0.00  0.00    +0.000 A 
ATOM     20  C   UNK A   0       2.286   0.520   3.965  0.00  0.00    +0.003 A 
ENDBRANCH  14  15
ENDBRANCH  13  14
ENDBRANCH   1   7
BRANCH   1  21
ATOM     21  C   UNK A   0      -6.241  -1.136  -0.895  0.00  0.00    +0.324 C 
BRANCH  21  22
ATOM     22  C   UNK A   0      -7.607  -1.768  -0.803  0.00  0.00    +0.251 C 
ATOM     23  O   UNK A   0      -7.777  -2.746  -0.108  0.00  0.00    -0.272 OA
ATOM     24  N   TRP A   1      -8.639  -1.245  -1.495  0.00  0.00    -0.299 N 
ATOM     25  H   TRP A   1      -8.503  -0.462  -2.052  0.00  0.00    +0.150 HD
BRANCH  24  26
ATOM     26  CA  TRP A   1      -9.966  -1.859  -1.406  0.00  0.00    +0.190 C 
BRANCH  26  27
ATOM     27  C   TRP A   1     -10.689  -1.319  -0.200  0.00  0.00    +0.376 C 
ATOM     28  O   TRP A   1     -10.229  -0.372   0.414  0.00  0.00    -0.244 OA
ATOM     29  OXT TRP A   1     -11.735  -1.830   0.164  0.00  0.00    -0.244 OA
ENDBRANCH  26  27
BRANCH  26  30
ATOM     30  CB  TRP A   1     -10.765  -1.531  -2.669  0.00  0.00    +0.067 C 
BRANCH  30  31
ATOM     31  CG  TRP A   1     -10.107  -2.175  -3.862  0.00  0.00    -0.039 C 
ATOM     32  CD2 TRP A   1     -10.419  -3.369  -4.417  0.00  0.00    -0.001 A 
ATOM     33  CE3 TRP A   1     -11.425  -4.386  -4.088  0.00  0.00    +0.010 A 
ATOM     34  CZ3 TRP A   1     -11.498  -5.505  -4.844  0.00  0.00    +0.001 A 
ATOM     35  CH2 TRP A   1     -10.639  -5.717  -5.931  0.00  0.00    +0.002 A 
ATOM     36  CZ2 TRP A   1      -9.690  -4.829  -6.295  0.00  0.00    +0.026 A 
ATOM     37  CE2 TRP A   1      -9.524  -3.617  -5.570  0.00  0.00    +0.043 A 
ATOM     38  NE1 TRP A   1      -8.691  -2.615  -5.722  0.00  0.00    -0.380 N 
ATOM     39  CD1 TRP A   1      -8.968  -1.615  -4.685  0.00  0.00    +0.144 C 
ATOM     40  HE1 TRP A   1      -8.009  -2.546  -6.407  0.00  0.00    +0.160 HD
ENDBRANCH  30  31
ENDBRANCH  26  30
ENDBRANCH  24  26
ENDBRANCH  21  22
ENDBRANCH   1  21
TORSDOF 9
