REMARK  Name = ZINC12791344
REMARK  5 active torsions:
REMARK  status: ('A' for Active; 'I' for Inactive)
REMARK    1  A    between atoms: C_1  and  C_2
REMARK    2  A    between atoms: N_5  and  C_11
REMARK    3  A    between atoms: C_7  and  C_10
REMARK    4  A    between atoms: C_11  and  C_12
REMARK    5  A    between atoms: C_18  and  C_20
REMARK                            x       y       z     vdW  Elec       q    Type
REMARK                         _______ _______ _______ _____ _____    ______ ____
ROOT
ATOM      1  C   UNL     1       4.176   0.223  -2.490  0.00  0.00    +0.064 A 
ATOM      2  C   UNL     1       5.296  -0.392  -2.036  0.00  0.00    +0.073 A 
ATOM      3  S   UNL     1       6.519   0.872  -2.348  0.00  0.00    -0.060 S 
ATOM      4  C   UNL     1       5.493   2.029  -3.012  0.00  0.00    +0.165 A 
ATOM      5  N   UNL     1       4.317   1.441  -2.979  0.00  0.00    -0.228 NA
ATOM      6  N   UNL     1       5.812   3.296  -3.484  0.00  0.00    -0.261 N 
ATOM      7  C   UNL     1       7.088   3.730  -3.441  0.00  0.00    +0.252 C 
ATOM      8  O   UNL     1       7.959   3.012  -2.989  0.00  0.00    -0.270 OA
ATOM      9  H   UNL     1       5.117   3.868  -3.845  0.00  0.00    +0.157 HD
ENDROOT
BRANCH   7  10
ATOM     10  C   UNL     1       7.427   5.076  -3.943  0.00  0.00    +0.072 A 
ATOM     11  C   UNL     1       6.428   5.905  -4.458  0.00  0.00    +0.016 A 
ATOM     12  C   UNL     1       6.751   7.161  -4.925  0.00  0.00    +0.001 A 
ATOM     13  C   UNL     1       8.063   7.603  -4.886  0.00  0.00    +0.003 A 
ATOM     14  C   UNL     1       9.059   6.790  -4.378  0.00  0.00    +0.039 A 
ATOM     15  C   UNL     1       8.749   5.529  -3.900  0.00  0.00    +0.135 A 
ATOM     16  F   UNL     1       9.722   4.737  -3.399  0.00  0.00    -0.205 F 
ENDBRANCH   7  10
BRANCH   1  17
ATOM     17  C   UNL     1       2.832  -0.456  -2.443  0.00  0.00    +0.140 C 
BRANCH  17  21
ATOM     18  C   UNL     1      -0.019   1.526   0.010  0.00  0.00    +0.039 C 
ATOM     19  C   UNL     1       0.002  -0.004   0.002  0.00  0.00    +0.130 C 
ATOM     20  C   UNL     1       0.720  -0.499  -1.256  0.00  0.00    +0.116 C 
ATOM     21  N   UNL     1       2.120  -0.050  -1.224  0.00  0.00    -0.292 NA
ATOM     22  C   UNL     1       2.801  -0.554  -0.023  0.00  0.00    +0.116 C 
ATOM     23  C   UNL     1       2.062  -0.059   1.223  0.00  0.00    +0.130 C 
ATOM     24  O   UNL     1       0.695  -0.479   1.159  0.00  0.00    -0.371 OA
ATOM     25  C   UNL     1       2.719  -0.646   2.474  0.00  0.00    +0.039 C 
ENDBRANCH  17  21
ENDBRANCH   1  17
TORSDOF 3
