REMARK  Name = ZINC40892614
REMARK  10 active torsions:
REMARK  status: ('A' for Active; 'I' for Inactive)
REMARK    1  A    between atoms: C_1  and  C_2
REMARK    2  A    between atoms: C_2  and  C_3
REMARK    3  A    between atoms: C_3  and  C_4
REMARK    4  A    between atoms: C_6  and  C_9
REMARK    5  A    between atoms: C_12  and  N_16
REMARK    6  A    between atoms: C_20  and  C_23
REMARK    7  A    between atoms: N_25  and  C_26
REMARK    8  A    between atoms: C_26  and  C_27
REMARK    9  A    between atoms: C_27  and  C_28
REMARK   10  A    between atoms: C_28  and  N_29
REMARK                            x       y       z     vdW  Elec       q    Type
REMARK                         _______ _______ _______ _____ _____    ______ ____
ROOT
ATOM      1  N   UNL     1       4.494  -8.427  -0.930  0.00  0.00    -0.327 N 
ATOM      2  C   UNL     1       4.276  -8.999  -2.266  0.00  0.00    +0.105 C 
ATOM      3  C   UNL     1       4.045 -10.507  -2.124  0.00  0.00    +0.020 C 
ATOM      4  C   UNL     1       5.215 -11.128  -1.358  0.00  0.00    +0.016 C 
ATOM      5  C   UNL     1       5.291 -10.517   0.043  0.00  0.00    +0.092 C 
ATOM      6  C   UNL     1       5.539  -9.006  -0.075  0.00  0.00    +0.118 C 
ENDROOT
BRANCH   1  10
ATOM      7  C   UNL     1       2.203  -5.209   0.400  0.00  0.00    +0.025 A 
ATOM      8  C   UNL     1       3.393  -4.982  -0.289  0.00  0.00    +0.013 A 
ATOM      9  C   UNL     1       4.150  -6.048  -0.728  0.00  0.00    +0.027 A 
ATOM     10  C   UNL     1       3.727  -7.349  -0.484  0.00  0.00    +0.065 A 
ATOM     11  C   UNL     1       2.538  -7.579   0.204  0.00  0.00    +0.145 A 
ATOM     12  C   UNL     1       1.781  -6.515   0.649  0.00  0.00    +0.052 A 
ATOM     13  F   UNL     1       2.128  -8.845   0.439  0.00  0.00    -0.204 F 
BRANCH   7  16
ATOM     14  C   UNL     1       0.762  -2.018   1.233  0.00  0.00    +0.228 A 
ATOM     15  N   UNL     1       1.686  -2.763   0.696  0.00  0.00    -0.191 NA
ATOM     16  C   UNL     1       1.388  -4.063   0.873  0.00  0.00    +0.202 A 
ATOM     17  N   UNL     1       0.259  -4.149   1.532  0.00  0.00    -0.056 NA
ATOM     18  O   UNL     1      -0.163  -2.816   1.782  0.00  0.00    -0.338 OA
BRANCH  14  19
ATOM     19  C   UNL     1       0.742  -0.511   1.242  0.00  0.00    +0.098 C 
BRANCH  19  21
ATOM     20  C   UNL     1      -0.019   1.526   0.010  0.00  0.00    +0.004 C 
ATOM     21  C   UNL     1       0.002  -0.004   0.002  0.00  0.00    +0.006 C 
ENDBRANCH  19  21
ENDBRANCH  14  19
ENDBRANCH   7  16
ENDBRANCH   1  10
BRANCH   5  22
ATOM     22  C   UNL     1       6.423 -11.153   0.809  0.00  0.00    +0.218 C 
ATOM     23  O   UNL     1       7.334 -10.469   1.223  0.00  0.00    -0.275 OA
ATOM     24  N   UNL     1       6.422 -12.482   1.033  0.00  0.00    -0.315 N 
ATOM     25  H   UNL     1       5.692 -13.029   0.702  0.00  0.00    +0.149 HD
BRANCH  24  26
ATOM     26  C   UNL     1       7.522 -13.100   1.777  0.00  0.00    +0.102 C 
BRANCH  26  27
ATOM     27  C   UNL     1       7.278 -14.607   1.890  0.00  0.00    +0.000 C 
BRANCH  27  28
ATOM     28  C   UNL     1       8.427 -15.252   2.667  0.00  0.00    -0.077 C 
BRANCH  28  29
ATOM     29  N   UNL     1       8.193 -16.698   2.775  0.00  0.00    +0.383 N 
ATOM     30  C   UNL     1       9.239 -17.305   3.613  0.00  0.00    -0.074 C 
ATOM     31  C   UNL     1       8.816 -18.731   3.966  0.00  0.00    +0.017 C 
ATOM     32  C   UNL     1       8.427 -19.473   2.712  0.00  0.00    -0.048 A 
ATOM     33  C   UNL     1       8.346 -20.856   2.756  0.00  0.00    +0.004 A 
ATOM     34  C   UNL     1       7.990 -21.569   1.629  0.00  0.00    +0.000 A 
ATOM     35  C   UNL     1       7.714 -20.899   0.451  0.00  0.00    +0.000 A 
ATOM     36  C   UNL     1       7.796 -19.522   0.406  0.00  0.00    +0.002 A 
ATOM     37  C   UNL     1       8.155 -18.805   1.538  0.00  0.00    -0.061 A 
ATOM     38  C   UNL     1       8.240 -17.304   1.441  0.00  0.00    -0.043 C 
ATOM     39  H   UNL     1       7.288 -16.864   3.190  0.00  0.00    -0.081 HD
ENDBRANCH  28  29
ENDBRANCH  27  28
ENDBRANCH  26  27
ENDBRANCH  24  26
ENDBRANCH   5  22
TORSDOF 9
