REMARK  Name = ZINC40217523
REMARK  6 active torsions:
REMARK  status: ('A' for Active; 'I' for Inactive)
REMARK    1  A    between atoms: C_3  and  N_12
REMARK    2  A    between atoms: C_5  and  N_7
REMARK    3  A    between atoms: N_7  and  S_8
REMARK    4  A    between atoms: S_8  and  N_11
REMARK    5  A    between atoms: C_13  and  C_15
REMARK    6  A    between atoms: C_16  and  C_17
REMARK                            x       y       z     vdW  Elec       q    Type
REMARK                         _______ _______ _______ _____ _____    ______ ____
ROOT
ATOM      1  C   UNL     1      -0.014   1.365  -0.001  0.00  0.00    +0.004 A 
ATOM      2  C   UNL     1       1.169   2.079  -0.002  0.00  0.00    +0.023 A 
ATOM      3  C   UNL     1       2.386   1.410  -0.020  0.00  0.00    +0.036 A 
ATOM      4  C   UNL     1       2.413   0.022  -0.037  0.00  0.00    +0.050 A 
ATOM      5  C   UNL     1       1.224  -0.692  -0.036  0.00  0.00    +0.077 A 
ATOM      6  C   UNL     1       0.009  -0.016  -0.018  0.00  0.00    +0.027 A 
ENDROOT
BRANCH   3   7
ATOM      7  N   UNL     1       3.583   2.133  -0.021  0.00  0.00    -0.282 N 
ATOM      8  C   UNL     1       4.659   1.657   0.635  0.00  0.00    +0.241 C 
ATOM      9  O   UNL     1       4.616   0.558   1.159  0.00  0.00    -0.270 OA
ATOM     10  H   UNL     1       3.638   2.978  -0.495  0.00  0.00    +0.155 HD
BRANCH   8  11
ATOM     11  C   UNL     1       5.838   2.433   0.717  0.00  0.00    +0.068 C 
ATOM     12  C   UNL     1       6.922   1.953   1.378  0.00  0.00    +0.020 C 
BRANCH  12  13
ATOM     13  C   UNL     1       8.102   2.730   1.459  0.00  0.00    +0.012 A 
ATOM     14  C   UNL     1       9.311   2.426   2.076  0.00  0.00    +0.015 A 
ATOM     15  C   UNL     1      10.285   3.391   1.985  0.00  0.00    +0.008 A 
ATOM     16  C   UNL     1      10.013   4.542   1.320  0.00  0.00    +0.046 A 
ATOM     17  S   UNL     1       8.431   4.350   0.790  0.00  0.00    -0.097 S 
ENDBRANCH  12  13
ENDBRANCH   8  11
ENDBRANCH   3   7
BRANCH   5  18
ATOM     18  N   UNL     1       1.246  -2.088  -0.054  0.00  0.00    -0.087 NA
BRANCH  18  19
ATOM     19  S   UNL     1      -0.174  -2.940  -0.053  0.00  0.00    +0.126 S 
ATOM     20  O   UNL     1      -0.795  -2.692   1.201  0.00  0.00    -0.137 OA
ATOM     21  O   UNL     1      -0.816  -2.660  -1.290  0.00  0.00    -0.137 OA
BRANCH  19  22
ATOM     22  N   UNL     1       0.219  -4.548  -0.077  0.00  0.00    -0.189 NA
ATOM     23  H   UNL     1       1.150  -4.820  -0.088  0.00  0.00    +0.146 HD
ATOM     24  H   UNL     1      -0.482  -5.219  -0.080  0.00  0.00    +0.146 HD
ENDBRANCH  19  22
ENDBRANCH  18  19
ENDBRANCH   5  18
TORSDOF 6
