REMARK  Name = ZINC54517065
REMARK  7 active torsions:
REMARK  status: ('A' for Active; 'I' for Inactive)
REMARK    1  A    between atoms: C_1  and  C_2
REMARK    2  A    between atoms: C_3  and  C_24
REMARK    3  A    between atoms: C_7  and  N_23
REMARK    4  A    between atoms: C_9  and  C_11
REMARK    5  A    between atoms: C_11  and  S_12
REMARK    6  A    between atoms: S_12  and  C_13
REMARK    7  A    between atoms: C_16  and  C_18
REMARK                            x       y       z     vdW  Elec       q    Type
REMARK                         _______ _______ _______ _____ _____    ______ ____
ROOT
ATOM      1  C   UNL     1      -1.596   1.384   0.669  0.00  0.00    +0.045 C 
ATOM      2  C   UNL     1      -1.424  -0.111   0.597  0.00  0.00    -0.028 A 
ATOM      3  C   UNL     1      -2.079  -0.826  -0.330  0.00  0.00    -0.008 A 
ATOM      4  S   UNL     1      -1.557  -2.500  -0.011  0.00  0.00    -0.074 S 
ATOM      5  C   UNL     1      -0.472  -2.195   1.358  0.00  0.00    +0.114 A 
ATOM      6  C   UNL     1      -0.541  -0.794   1.526  0.00  0.00    +0.050 A 
ATOM      7  C   UNL     1       0.255  -0.267   2.579  0.00  0.00    +0.128 A 
ATOM      8  N   UNL     1       0.991  -1.091   3.307  0.00  0.00    -0.216 NA
ATOM      9  C   UNL     1       1.012  -2.394   3.089  0.00  0.00    +0.143 A 
ATOM     10  N   UNL     1       0.286  -2.944   2.134  0.00  0.00    -0.224 NA
ATOM     11  C   UNL     1      -3.032  -0.331  -1.388  0.00  0.00    +0.052 C 
ENDROOT
BRANCH   7  12
ATOM     12  N   UNL     1       0.262   1.092   2.839  0.00  0.00    -0.343 N 
ATOM     13  H   UNL     1       0.110   1.724   2.119  0.00  0.00    +0.144 HD
ATOM     14  H   UNL     1       0.418   1.412   3.741  0.00  0.00    +0.144 HD
ENDBRANCH   7  12
BRANCH   9  15
ATOM     15  C   UNL     1       1.873  -3.273   3.958  0.00  0.00    +0.155 C 
BRANCH  15  16
ATOM     16  S   UNL     1       0.915  -3.828   5.395  0.00  0.00    -0.058 S 
BRANCH  16  17
ATOM     17  C   UNL     1       2.047  -4.832   6.300  0.00  0.00    +0.278 A 
ATOM     18  N   UNL     1       3.292  -5.085   5.973  0.00  0.00    -0.101 NA
ATOM     19  N   UNL     1       3.821  -5.853   6.860  0.00  0.00    -0.106 NA
ATOM     20  C   UNL     1       2.933  -6.120   7.790  0.00  0.00    +0.256 A 
ATOM     21  O   UNL     1       1.793  -5.474   7.457  0.00  0.00    -0.410 OA
BRANCH  20  22
ATOM     22  C   UNL     1       3.143  -6.962   8.977  0.00  0.00    +0.076 A 
ATOM     23  C   UNL     1       4.281  -7.636   9.378  0.00  0.00    +0.021 A 
ATOM     24  C   UNL     1       4.232  -8.368  10.543  0.00  0.00    +0.008 A 
ATOM     25  C   UNL     1       3.077  -8.406  11.256  0.00  0.00    +0.046 A 
ATOM     26  S   UNL     1       1.995  -7.373  10.282  0.00  0.00    -0.092 S 
ENDBRANCH  20  22
ENDBRANCH  16  17
ENDBRANCH  15  16
ENDBRANCH   9  15
TORSDOF 5
