REMARK  Name = ZINC34680001
REMARK  10 active torsions:
REMARK  status: ('A' for Active; 'I' for Inactive)
REMARK    1  A    between atoms: C_4  and  C_7
REMARK    2  A    between atoms: C_8  and  C_9
REMARK    3  A    between atoms: N_11  and  C_12
REMARK    4  A    between atoms: N_11  and  C_20
REMARK    5  A    between atoms: C_12  and  C_13
REMARK    6  A    between atoms: C_23  and  C_26
REMARK    7  A    between atoms: C_26  and  C_27
REMARK    8  A    between atoms: N_29  and  C_30
REMARK    9  A    between atoms: C_30  and  C_31
REMARK   10  A    between atoms: C_31  and  N_32
REMARK                            x       y       z     vdW  Elec       q    Type
REMARK                         _______ _______ _______ _____ _____    ______ ____
ROOT
ATOM      1  C   UNL     1       4.717  -3.261   0.955  0.00  0.00    +0.244 C 
ATOM      2  O   UNL     1       5.518  -3.094   1.855  0.00  0.00    -0.270 OA
ATOM      3  N   UNL     1       5.016  -4.086  -0.069  0.00  0.00    -0.264 N 
ENDROOT
BRANCH   3   4
ATOM      4  C   UNL     1       6.278  -4.684  -0.139  0.00  0.00    +0.037 A 
ATOM      5  C   UNL     1       6.389  -6.065  -0.234  0.00  0.00    +0.024 A 
ATOM      6  C   UNL     1       7.638  -6.652  -0.304  0.00  0.00    +0.006 A 
ATOM      7  C   UNL     1       8.775  -5.867  -0.278  0.00  0.00    -0.039 A 
ATOM      8  C   UNL     1       8.668  -4.491  -0.183  0.00  0.00    +0.006 A 
ATOM      9  C   UNL     1       7.423  -3.897  -0.119  0.00  0.00    +0.024 A 
BRANCH   7  10
ATOM     10  C   UNL     1      10.136  -6.511  -0.354  0.00  0.00    +0.130 C 
BRANCH  10  11
ATOM     11  C   UNL     1      10.555  -6.631  -1.796  0.00  0.00    +0.217 C 
ATOM     12  O   UNL     1       9.822  -6.233  -2.676  0.00  0.00    -0.275 OA
ATOM     13  N   UNL     1      11.745  -7.181  -2.108  0.00  0.00    -0.317 N 
ATOM     14  H   UNL     1      12.332  -7.500  -1.404  0.00  0.00    +0.149 HD
BRANCH  13  15
ATOM     15  C   UNL     1      12.153  -7.298  -3.510  0.00  0.00    +0.085 C 
BRANCH  15  16
ATOM     16  C   UNL     1      13.534  -7.952  -3.587  0.00  0.00    -0.060 C 
BRANCH  16  17
ATOM     17  N   UNL     1      13.944  -8.069  -4.993  0.00  0.00    +0.381 N 
ATOM     18  C   UNL     1      14.207  -6.723  -5.563  0.00  0.00    -0.079 C 
ATOM     19  C   UNL     1      15.129  -7.025  -6.772  0.00  0.00    -0.020 C 
ATOM     20  C   UNL     1      16.018  -8.177  -6.250  0.00  0.00    -0.020 C 
ATOM     21  C   UNL     1      15.221  -8.807  -5.092  0.00  0.00    -0.079 C 
ATOM     22  H   UNL     1      13.228  -8.540  -5.526  0.00  0.00    -0.082 HD
ENDBRANCH  16  17
ENDBRANCH  15  16
ENDBRANCH  13  15
ENDBRANCH  10  11
ENDBRANCH   7  10
ENDBRANCH   3   4
BRANCH   1  24
ATOM     23  C   UNL     1       3.130  -1.742   2.006  0.00  0.00    +0.013 C 
ATOM     24  C   UNL     1       3.429  -2.567   0.983  0.00  0.00    +0.068 C 
BRANCH  23  28
ATOM     25  C   UNL     1      -0.603   0.272   2.087  0.00  0.00    +0.000 A 
ATOM     26  C   UNL     1       0.305   0.465   3.113  0.00  0.00    +0.001 A 
ATOM     27  C   UNL     1       1.521  -0.186   3.094  0.00  0.00    +0.008 A 
ATOM     28  C   UNL     1       1.835  -1.043   2.034  0.00  0.00    -0.025 A 
ATOM     29  C   UNL     1       0.911  -1.232   1.001  0.00  0.00    +0.008 A 
ATOM     30  C   UNL     1      -0.300  -0.574   1.034  0.00  0.00    +0.001 A 
ENDBRANCH  23  28
ENDBRANCH   1  24
BRANCH   3  31
ATOM     31  C   UNL     1       4.018  -4.356  -1.107  0.00  0.00    +0.149 C 
BRANCH  31  32
ATOM     32  C   UNL     1       4.158  -3.343  -2.214  0.00  0.00    -0.027 A 
ATOM     33  C   UNL     1       3.449  -2.158  -2.159  0.00  0.00    +0.005 A 
ATOM     34  C   UNL     1       3.576  -1.227  -3.173  0.00  0.00    +0.003 A 
ATOM     35  C   UNL     1       4.412  -1.482  -4.244  0.00  0.00    +0.038 A 
ATOM     36  C   UNL     1       5.123  -2.669  -4.300  0.00  0.00    +0.124 A 
ATOM     37  C   UNL     1       4.999  -3.597  -3.280  0.00  0.00    +0.043 A 
ATOM     38  F   UNL     1       5.940  -2.919  -5.347  0.00  0.00    -0.205 F 
ENDBRANCH  31  32
ENDBRANCH   3  31
TORSDOF 10
