REMARK  Name = ZINC48620537
REMARK  7 active torsions:
REMARK  status: ('A' for Active; 'I' for Inactive)
REMARK    1  A    between atoms: C_2  and  C_9
REMARK    2  A    between atoms: C_5  and  N_6
REMARK    3  A    between atoms: C_9  and  S_10
REMARK    4  A    between atoms: S_10  and  C_11
REMARK    5  A    between atoms: C_12  and  C_19
REMARK    6  A    between atoms: C_13  and  N_18
REMARK    7  A    between atoms: C_15  and  N_17
REMARK                            x       y       z     vdW  Elec       q    Type
REMARK                         _______ _______ _______ _____ _____    ______ ____
ROOT
ATOM      1  C   UNL     1       1.246   5.896   1.563  0.00  0.00    +0.118 A 
ATOM      2  C   UNL     1       1.272   6.701   2.715  0.00  0.00    +0.104 A 
ATOM      3  C   UNL     1       1.288   8.103   2.564  0.00  0.00    +0.048 A 
ATOM      4  C   UNL     1       1.276   8.627   1.277  0.00  0.00    +0.067 A 
ATOM      5  C   UNL     1       1.250   7.762   0.190  0.00  0.00    +0.119 A 
ATOM      6  N   UNL     1       1.241   6.446   0.359  0.00  0.00    -0.225 NA
ENDROOT
BRANCH   5   7
ATOM      7  N   UNL     1       1.238   8.284  -1.095  0.00  0.00    -0.343 N 
ATOM      8  H   UNL     1       1.248   9.244  -1.228  0.00  0.00    +0.144 HD
ATOM      9  H   UNL     1       1.220   7.688  -1.860  0.00  0.00    +0.144 HD
ENDBRANCH   5   7
BRANCH   3  10
ATOM     10  N   UNL     1       1.314   8.938   3.671  0.00  0.00    -0.357 N 
ATOM     11  H   UNL     1       1.321   8.559   4.564  0.00  0.00    +0.142 HD
ATOM     12  H   UNL     1       1.324   9.900   3.553  0.00  0.00    +0.142 HD
ENDBRANCH   3  10
BRANCH   2  13
ATOM     13  C   UNL     1       1.283   6.108   4.019  0.00  0.00    +0.104 C 
ATOM     14  N   UNL     1       1.291   5.638   5.053  0.00  0.00    -0.191 NA
ENDBRANCH   2  13
BRANCH   1  15
ATOM     15  S   UNL     1       1.225   4.141   1.722  0.00  0.00    -0.100 S 
BRANCH  15  16
ATOM     16  C   UNL     1       1.202   3.545   0.009  0.00  0.00    +0.111 C 
BRANCH  16  18
ATOM     17  C   UNL     1      -0.016   1.351   0.009  0.00  0.00    +0.045 A 
ATOM     18  C   UNL     1       1.183   2.038   0.002  0.00  0.00    -0.028 A 
ATOM     19  C   UNL     1       2.343   1.336  -0.013  0.00  0.00    +0.052 A 
ATOM     20  S   UNL     1       1.754  -0.349  -0.017  0.00  0.00    -0.073 S 
ATOM     21  C   UNL     1       0.002  -0.004   0.002  0.00  0.00    +0.164 A 
BRANCH  21  22
ATOM     22  N   UNL     1      -1.135  -0.952   0.008  0.00  0.00    +0.063 N 
ATOM     23  O   UNL     1      -2.270  -0.535   0.021  0.00  0.00    -0.126 OA
ATOM     24  O   UNL     1      -0.929  -2.143  -0.001  0.00  0.00    -0.126 OA
ENDBRANCH  21  22
ENDBRANCH  16  18
ENDBRANCH  15  16
ENDBRANCH   1  15
TORSDOF 7
