REMARK  Name = ZINC09672364
REMARK  10 active torsions:
REMARK  status: ('A' for Active; 'I' for Inactive)
REMARK    1  A    between atoms: C_1  and  C_2
REMARK    2  A    between atoms: C_2  and  C_4
REMARK    3  A    between atoms: C_7  and  S_10
REMARK    4  A    between atoms: S_10  and  N_13
REMARK    5  A    between atoms: N_13  and  C_14
REMARK    6  A    between atoms: C_17  and  C_20
REMARK    7  A    between atoms: N_22  and  C_23
REMARK    8  A    between atoms: C_23  and  C_24
REMARK    9  A    between atoms: C_24  and  C_26
REMARK   10  A    between atoms: C_24  and  N_61
REMARK                            x       y       z     vdW  Elec       q    Type
REMARK                         _______ _______ _______ _____ _____    ______ ____
ROOT
ATOM      1  C   UNL     1       1.909   1.466  -6.913  0.00  0.00    +0.048 A 
ATOM      2  C   UNL     1       0.811   2.322  -6.939  0.00  0.00    +0.025 A 
ATOM      3  C   UNL     1       0.247   2.755  -5.761  0.00  0.00    +0.015 A 
ATOM      4  C   UNL     1       0.777   2.335  -4.538  0.00  0.00    +0.037 A 
ATOM      5  C   UNL     1       1.883   1.480  -4.515  0.00  0.00    +0.015 A 
ATOM      6  C   UNL     1       2.439   1.046  -5.697  0.00  0.00    +0.025 A 
ENDROOT
BRANCH   4   7
ATOM      7  C   UNL     1       0.174   2.799  -3.273  0.00  0.00    +0.244 C 
ATOM      8  O   UNL     1      -0.784   3.546  -3.295  0.00  0.00    -0.270 OA
ATOM      9  N   UNL     1       0.687   2.393  -2.095  0.00  0.00    -0.312 N 
ATOM     10  H   UNL     1       1.452   1.797  -2.078  0.00  0.00    +0.149 HD
BRANCH   9  11
ATOM     11  C   UNL     1       0.089   2.853  -0.839  0.00  0.00    +0.097 C 
BRANCH  11  12
ATOM     12  C   UNL     1       0.854   2.251   0.341  0.00  0.00    +0.016 C 
BRANCH  12  17
ATOM     13  C   UNL     1       2.478   4.037   0.032  0.00  0.00    -0.078 C 
ATOM     14  C   UNL     1       3.956   4.251   0.446  0.00  0.00    -0.020 C 
ATOM     15  C   UNL     1       4.126   3.274   1.633  0.00  0.00    -0.020 C 
ATOM     16  C   UNL     1       3.014   2.225   1.453  0.00  0.00    -0.078 C 
ATOM     17  N   UNL     1       2.304   2.589   0.226  0.00  0.00    +0.387 N 
ATOM     18  H   UNL     1       2.706   2.082  -0.571  0.00  0.00    -0.081 HD
ENDBRANCH  12  17
BRANCH  12  19
ATOM     19  C   UNL     1       0.318   2.819   1.630  0.00  0.00    +0.093 A 
ATOM     20  C   UNL     1      -0.454   2.166   2.517  0.00  0.00    +0.043 A 
ATOM     21  C   UNL     1      -0.721   3.069   3.571  0.00  0.00    +0.041 A 
ATOM     22  C   UNL     1      -0.102   4.222   3.262  0.00  0.00    +0.195 A 
ATOM     23  O   UNL     1       0.525   4.065   2.085  0.00  0.00    -0.469 OA
ENDBRANCH  12  19
ENDBRANCH  11  12
ENDBRANCH   9  11
ENDBRANCH   4   7
BRANCH   1  24
ATOM     24  N   UNL     1       2.477   1.029  -8.105  0.00  0.00    -0.216 N 
ATOM     25  H   UNL     1       1.909   0.718  -8.828  0.00  0.00    +0.174 HD
BRANCH  24  26
ATOM     26  S   UNL     1       4.122   1.041  -8.291  0.00  0.00    +0.072 S 
ATOM     27  O   UNL     1       4.664   0.378  -7.157  0.00  0.00    -0.150 OA
ATOM     28  O   UNL     1       4.383   0.614  -9.621  0.00  0.00    -0.150 OA
BRANCH  26  32
ATOM     29  C   UNL     1       5.469   5.361  -8.032  0.00  0.00    +0.017 A 
ATOM     30  C   UNL     1       5.502   4.545  -6.896  0.00  0.00    +0.013 A 
ATOM     31  C   UNL     1       5.090   3.232  -6.984  0.00  0.00    +0.029 A 
ATOM     32  C   UNL     1       4.646   2.721  -8.190  0.00  0.00    +0.109 A 
ATOM     33  C   UNL     1       4.615   3.520  -9.320  0.00  0.00    +0.029 A 
ATOM     34  C   UNL     1       5.019   4.837  -9.248  0.00  0.00    +0.013 A 
BRANCH  29  36
ATOM     35  C   UNL     1       5.869   7.639  -9.173  0.00  0.00    +0.091 C 
ATOM     36  C   UNL     1       5.906   6.764  -7.947  0.00  0.00    +0.160 C 
ATOM     37  O   UNL     1       6.295   7.215  -6.891  0.00  0.00    -0.292 OA
ENDBRANCH  29  36
ENDBRANCH  26  32
ENDBRANCH  24  26
ENDBRANCH   1  24
TORSDOF 9
