REMARK  Name = ZINC14458420
REMARK  7 active torsions:
REMARK  status: ('A' for Active; 'I' for Inactive)
REMARK    1  A    between atoms: C_1  and  C_2
REMARK    2  A    between atoms: C_5  and  C_8
REMARK    3  A    between atoms: C_19  and  S_24
REMARK    4  A    between atoms: S_24  and  N_27
REMARK    5  A    between atoms: N_27  and  C_28
REMARK    6  A    between atoms: C_31  and  C_35
REMARK    7  A    between atoms: C_33  and  C_34
REMARK                            x       y       z     vdW  Elec       q    Type
REMARK                         _______ _______ _______ _____ _____    ______ ____
ROOT
ATOM      1  C   UNL     1       1.099   2.024  -0.516  0.00  0.00    +0.105 C 
ATOM      2  C   UNL     1       2.038   1.524   0.586  0.00  0.00    +0.029 C 
ATOM      3  C   UNL     1       3.465   2.051   0.252  0.00  0.00    +0.033 C 
ATOM      4  C   UNL     1       3.978   1.051  -0.766  0.00  0.00    -0.030 C 
ATOM      5  C   UNL     1       3.322  -0.080  -0.669  0.00  0.00    -0.023 C 
ATOM      6  C   UNL     1       2.281   0.011   0.421  0.00  0.00    +0.049 C 
ATOM      7  C   UNL     1       1.041  -0.742   0.059  0.00  0.00    -0.018 A 
ATOM      8  C   UNL     1       1.058  -2.129   0.133  0.00  0.00    +0.034 A 
ATOM      9  C   UNL     1      -0.066  -2.862  -0.188  0.00  0.00    +0.109 A 
ATOM     10  C   UNL     1      -1.226  -2.222  -0.589  0.00  0.00    +0.030 A 
ATOM     11  C   UNL     1      -1.254  -0.844  -0.667  0.00  0.00    +0.025 A 
ATOM     12  C   UNL     1      -0.123  -0.106  -0.344  0.00  0.00    +0.031 A 
ATOM     13  N   UNL     1      -0.167   1.290  -0.431  0.00  0.00    -0.336 N 
ATOM     14  H   UNL     1      -1.016   1.760  -0.437  0.00  0.00    +0.147 HD
ENDROOT
BRANCH   1  19
ATOM     15  C   UNL     1       0.113   7.673   0.193  0.00  0.00    +0.044 C 
ATOM     16  C   UNL     1       0.370   6.200   0.008  0.00  0.00    -0.050 A 
ATOM     17  C   UNL     1       1.288   5.772  -0.933  0.00  0.00    +0.004 A 
ATOM     18  C   UNL     1       1.523   4.420  -1.103  0.00  0.00    +0.006 A 
ATOM     19  C   UNL     1       0.842   3.497  -0.331  0.00  0.00    -0.027 A 
ATOM     20  C   UNL     1      -0.079   3.926   0.606  0.00  0.00    +0.006 A 
ATOM     21  C   UNL     1      -0.312   5.277   0.779  0.00  0.00    +0.004 A 
ENDBRANCH   1  19
BRANCH   9  22
ATOM     22  S   UNL     1      -0.025  -4.620  -0.088  0.00  0.00    +0.072 S 
ATOM     23  O   UNL     1      -1.035  -5.101  -0.964  0.00  0.00    -0.150 OA
ATOM     24  O   UNL     1       1.338  -5.002  -0.214  0.00  0.00    -0.150 OA
BRANCH  22  25
ATOM     25  N   UNL     1      -0.492  -5.035   1.446  0.00  0.00    -0.216 N 
ATOM     26  H   UNL     1       0.115  -5.527   2.021  0.00  0.00    +0.174 HD
BRANCH  25  27
ATOM     27  C   UNL     1      -1.759  -4.675   1.911  0.00  0.00    +0.051 A 
ATOM     28  C   UNL     1      -2.844  -4.670   1.043  0.00  0.00    +0.025 A 
ATOM     29  C   UNL     1      -4.095  -4.315   1.507  0.00  0.00    +0.005 A 
ATOM     30  C   UNL     1      -4.269  -3.964   2.833  0.00  0.00    -0.050 A 
ATOM     31  C   UNL     1      -3.191  -3.968   3.700  0.00  0.00    +0.008 A 
ATOM     32  C   UNL     1      -1.938  -4.327   3.244  0.00  0.00    -0.028 A 
ATOM     33  C   UNL     1      -0.765  -4.336   4.190  0.00  0.00    +0.046 C 
ATOM     34  C   UNL     1      -5.636  -3.578   3.336  0.00  0.00    +0.044 C 
ENDBRANCH  25  27
ENDBRANCH  22  25
ENDBRANCH   9  22
TORSDOF 4
