REMARK  Name = ZINC48796251
REMARK  5 active torsions:
REMARK  status: ('A' for Active; 'I' for Inactive)
REMARK    1  A    between atoms: C_3  and  C_9
REMARK    2  A    between atoms: C_4  and  O_8
REMARK    3  A    between atoms: C_9  and  N_10
REMARK    4  A    between atoms: N_10  and  C_11
REMARK    5  A    between atoms: C_13  and  N_18
REMARK                            x       y       z     vdW  Elec       q    Type
REMARK                         _______ _______ _______ _____ _____    ______ ____
ROOT
ATOM      1  N   UNL     1       4.199   2.245  -1.388  0.00  0.00    -0.337 N 
ATOM      2  H   UNL     1       3.716   1.815  -2.111  0.00  0.00    +0.146 HD
ENDROOT
BRANCH   1   3
ATOM      3  C   UNL     1       5.398   2.915  -1.648  0.00  0.00    +0.065 A 
ATOM      4  C   UNL     1       6.092   3.527  -0.613  0.00  0.00    +0.058 A 
ATOM      5  C   UNL     1       7.277   4.188  -0.874  0.00  0.00    +0.128 A 
ATOM      6  C   UNL     1       7.773   4.241  -2.163  0.00  0.00    +0.035 A 
ATOM      7  C   UNL     1       7.085   3.634  -3.198  0.00  0.00    +0.042 A 
ATOM      8  C   UNL     1       5.901   2.966  -2.944  0.00  0.00    +0.144 A 
ATOM      9  F   UNL     1       5.232   2.368  -3.954  0.00  0.00    -0.204 F 
BRANCH   5  10
ATOM     10  N   UNL     1       8.017   4.840   0.230  0.00  0.00    +0.056 N 
ATOM     11  O   UNL     1       7.584   4.794   1.358  0.00  0.00    -0.126 OA
ATOM     12  O   UNL     1       9.054   5.419   0.003  0.00  0.00    -0.126 OA
ENDBRANCH   5  10
ENDBRANCH   1   3
BRANCH   1  13
ATOM     13  C   UNL     1       3.670   2.193  -0.023  0.00  0.00    +0.140 C 
BRANCH  13  16
ATOM     14  C   UNL     1      -0.017   1.378   0.010  0.00  0.00    +0.002 A 
ATOM     15  C   UNL     1       1.170   2.088   0.002  0.00  0.00    +0.009 A 
ATOM     16  C   UNL     1       2.378   1.418  -0.013  0.00  0.00    +0.012 A 
ATOM     17  C   UNL     1       2.400   0.031  -0.021  0.00  0.00    +0.135 A 
ATOM     18  C   UNL     1       1.208  -0.680  -0.013  0.00  0.00    +0.060 A 
ATOM     19  C   UNL     1       0.002  -0.004   0.002  0.00  0.00    +0.019 A 
ATOM     20 BR   UNL     1       1.233  -2.571  -0.024  0.00  0.00    -0.047 Br
BRANCH  17  21
ATOM     21  O   UNL     1       3.587  -0.631  -0.037  0.00  0.00    -0.505 OA
ATOM     22  H   UNL     1       3.940  -0.827   0.842  0.00  0.00    +0.292 HD
ENDBRANCH  17  21
ENDBRANCH  13  16
ENDBRANCH   1  13
TORSDOF 5
