REMARK  Name = ZINC38974710
REMARK  7 active torsions:
REMARK  status: ('A' for Active; 'I' for Inactive)
REMARK    1  A    between atoms: C_1  and  C_2
REMARK    2  A    between atoms: C_4  and  C_8
REMARK    3  A    between atoms: C_12  and  S_26
REMARK    4  A    between atoms: N_14  and  N_15
REMARK    5  A    between atoms: C_16  and  C_17
REMARK    6  A    between atoms: C_17  and  C_25
REMARK    7  A    between atoms: C_18  and  C_19
REMARK                            x       y       z     vdW  Elec       q    Type
REMARK                         _______ _______ _______ _____ _____    ______ ____
ROOT
ATOM      1  C   UNL     1      -0.839  -2.807  -1.099  0.00  0.00    +0.206 C 
ATOM      2  N   UNL     1      -0.316  -2.194  -2.342  0.00  0.00    -0.231 NA
ATOM      3  N   UNL     1      -0.258  -3.307  -3.302  0.00  0.00    -0.225 NA
ATOM      4  C   UNL     1       0.174  -4.453  -2.460  0.00  0.00    +0.231 C 
ATOM      5  N   UNL     1      -0.527  -4.245  -1.175  0.00  0.00    -0.207 N 
ATOM      6  H   UNL     1      -0.929  -1.464  -2.671  0.00  0.00    +0.143 HD
ATOM      7  H   UNL     1       0.414  -3.121  -4.032  0.00  0.00    +0.143 HD
ENDROOT
BRANCH   1  11
ATOM      8  C   UNL     1       0.746   1.431   0.239  0.00  0.00    +0.067 C 
ATOM      9  C   UNL     1       0.605  -0.067   0.158  0.00  0.00    +0.058 C 
ATOM     10  C   UNL     1      -0.550  -0.727   0.273  0.00  0.00    +0.029 C 
ATOM     11  C   UNL     1      -0.154  -2.185   0.120  0.00  0.00    +0.190 C 
ATOM     12  N   UNL     1       1.304  -2.114  -0.077  0.00  0.00    -0.177 NA
ATOM     13  N   UNL     1       1.629  -0.924  -0.048  0.00  0.00    -0.159 NA
ENDBRANCH   1  11
BRANCH   5  14
ATOM     14  N   UNL     1      -0.834  -5.221  -0.218  0.00  0.00    -0.189 NA
ATOM     15  C   UNL     1      -1.555  -4.910   0.821  0.00  0.00    +0.133 C 
BRANCH  15  16
ATOM     16  C   UNL     1      -1.777  -5.869   1.842  0.00  0.00    -0.030 C 
ATOM     17  C   UNL     1      -2.524  -5.547   2.918  0.00  0.00    +0.012 C 
ATOM     18  C   UNL     1      -1.180  -7.247   1.724  0.00  0.00    +0.045 C 
BRANCH  17  19
ATOM     19  C   UNL     1      -2.628  -6.484   4.048  0.00  0.00    -0.025 A 
ATOM     20  C   UNL     1      -1.552  -7.315   4.373  0.00  0.00    +0.008 A 
ATOM     21  C   UNL     1      -1.657  -8.191   5.434  0.00  0.00    +0.001 A 
ATOM     22  C   UNL     1      -2.824  -8.247   6.176  0.00  0.00    +0.000 A 
ATOM     23  C   UNL     1      -3.893  -7.427   5.861  0.00  0.00    +0.001 A 
ATOM     24  C   UNL     1      -3.802  -6.543   4.806  0.00  0.00    +0.008 A 
ENDBRANCH  17  19
ENDBRANCH  15  16
ENDBRANCH   5  14
BRANCH   4  25
ATOM     25  S   UNL     1      -0.332  -6.023  -3.215  0.00  0.00    -0.138 S 
ATOM     26  H   UNL     1       0.311  -6.038  -4.396  0.00  0.00    +0.105 HD
ENDBRANCH   4  25
TORSDOF 5
