REMARK  Name = ZINC14547732
REMARK  7 active torsions:
REMARK  status: ('A' for Active; 'I' for Inactive)
REMARK    1  A    between atoms: C_1  and  O_2
REMARK    2  A    between atoms: O_2  and  C_3
REMARK    3  A    between atoms: C_6  and  N_9
REMARK    4  A    between atoms: N_9  and  S_10
REMARK    5  A    between atoms: S_10  and  C_13
REMARK    6  A    between atoms: C_26  and  C_29
REMARK    7  A    between atoms: C_38  and  O_39
REMARK                            x       y       z     vdW  Elec       q    Type
REMARK                         _______ _______ _______ _____ _____    ______ ____
ROOT
ATOM      1  C   UNL     1      -2.193   0.352  -5.962  0.00  0.00    +0.109 A 
ATOM      2  C   UNL     1      -1.934   1.436  -5.143  0.00  0.00    +0.030 A 
ATOM      3  C   UNL     1      -0.723   2.092  -5.223  0.00  0.00    +0.025 A 
ATOM      4  C   UNL     1       0.245   1.670  -6.127  0.00  0.00    +0.031 A 
ATOM      5  C   UNL     1      -0.029   0.581  -6.962  0.00  0.00    -0.018 A 
ATOM      6  C   UNL     1      -1.239  -0.072  -6.869  0.00  0.00    +0.034 A 
ATOM      7  C   UNL     1       1.011   0.191  -7.939  0.00  0.00    +0.049 C 
ATOM      8  C   UNL     1       1.120  -1.198  -8.455  0.00  0.00    -0.023 C 
ATOM      9  C   UNL     1       2.396  -1.454  -8.717  0.00  0.00    -0.030 C 
ATOM     10  C   UNL     1       3.257  -0.242  -8.356  0.00  0.00    +0.033 C 
ATOM     11  C   UNL     1       2.401   0.435  -7.278  0.00  0.00    +0.029 C 
ATOM     12  C   UNL     1       2.524   1.942  -7.141  0.00  0.00    +0.109 C 
ATOM     13  N   UNL     1       1.473   2.341  -6.179  0.00  0.00    -0.336 N 
ATOM     14  H   UNL     1       1.637   3.082  -5.574  0.00  0.00    +0.147 HD
ENDROOT
BRANCH  12  15
ATOM     15  C   UNL     1       3.885   2.306  -6.605  0.00  0.00    +0.022 A 
ATOM     16  C   UNL     1       4.831   2.921  -7.441  0.00  0.00    -0.009 A 
ATOM     17  C   UNL     1       4.538   3.210  -8.785  0.00  0.00    +0.009 A 
ATOM     18  C   UNL     1       5.480   3.806  -9.567  0.00  0.00    +0.001 A 
ATOM     19  C   UNL     1       6.733   4.136  -9.054  0.00  0.00    +0.001 A 
ATOM     20  C   UNL     1       7.052   3.871  -7.758  0.00  0.00    +0.008 A 
ATOM     21  C   UNL     1       6.106   3.256  -6.920  0.00  0.00    -0.017 A 
ATOM     22  C   UNL     1       6.401   2.968  -5.576  0.00  0.00    +0.012 A 
ATOM     23  C   UNL     1       5.461   2.377  -4.791  0.00  0.00    +0.046 A 
ATOM     24  C   UNL     1       4.205   2.040  -5.304  0.00  0.00    +0.122 A 
BRANCH  24  25
ATOM     25  O   UNL     1       3.288   1.446  -4.496  0.00  0.00    -0.506 OA
ATOM     26  H   UNL     1       3.328   0.480  -4.500  0.00  0.00    +0.292 HD
ENDBRANCH  24  25
ENDBRANCH  12  15
BRANCH   1  27
ATOM     27  S   UNL     1      -3.737  -0.488  -5.850  0.00  0.00    +0.072 S 
ATOM     28  O   UNL     1      -3.494  -1.838  -6.222  0.00  0.00    -0.150 OA
ATOM     29  O   UNL     1      -4.302  -0.135  -4.595  0.00  0.00    -0.150 OA
BRANCH  27  30
ATOM     30  N   UNL     1      -4.729   0.151  -7.012  0.00  0.00    -0.216 N 
ATOM     31  H   UNL     1      -5.058  -0.410  -7.731  0.00  0.00    +0.174 HD
BRANCH  30  35
ATOM     32  C   UNL     1      -5.807   4.175  -6.847  0.00  0.00    +0.120 A 
ATOM     33  C   UNL     1      -4.864   3.747  -7.770  0.00  0.00    +0.047 A 
ATOM     34  C   UNL     1      -4.506   2.414  -7.825  0.00  0.00    +0.028 A 
ATOM     35  C   UNL     1      -5.091   1.502  -6.957  0.00  0.00    +0.048 A 
ATOM     36  C   UNL     1      -6.039   1.930  -6.037  0.00  0.00    +0.028 A 
ATOM     37  C   UNL     1      -6.392   3.264  -5.980  0.00  0.00    +0.047 A 
BRANCH  32  39
ATOM     38  C   UNL     1      -7.137   5.857  -5.820  0.00  0.00    +0.277 C 
ATOM     39  O   UNL     1      -6.160   5.487  -6.794  0.00  0.00    -0.495 OA
ENDBRANCH  32  39
ENDBRANCH  30  35
ENDBRANCH  27  30
ENDBRANCH   1  27
TORSDOF 6
