REMARK  Name = ZINC34791507
REMARK  11 active torsions:
REMARK  status: ('A' for Active; 'I' for Inactive)
REMARK    1  A    between atoms: C_1  and  C_2
REMARK    2  A    between atoms: C_2  and  C_3
REMARK    3  A    between atoms: C_2  and  C_4
REMARK    4  A    between atoms: C_2  and  N_5
REMARK    5  A    between atoms: C_6  and  C_8
REMARK    6  A    between atoms: C_8  and  C_10
REMARK    7  A    between atoms: C_8  and  N_16
REMARK    8  A    between atoms: C_22  and  C_31
REMARK    9  A    between atoms: N_27  and  C_28
REMARK   10  A    between atoms: C_28  and  C_29
REMARK   11  A    between atoms: C_36  and  C_37
REMARK                            x       y       z     vdW  Elec       q    Type
REMARK                         _______ _______ _______ _____ _____    ______ ____
ROOT
ATOM      1  N   UNL     1       3.863   0.097  -2.938  0.00  0.00    -0.277 N 
ATOM      2  C   UNL     1       5.040  -0.782  -3.015  0.00  0.00    +0.160 C 
ATOM      3  C   UNL     1       6.227   0.144  -2.871  0.00  0.00    +0.043 C 
ATOM      4  C   UNL     1       5.724   1.387  -2.733  0.00  0.00    +0.058 C 
ATOM      5  C   UNL     1       4.315   1.354  -2.778  0.00  0.00    +0.247 C 
ATOM      6  O   UNL     1       3.600   2.335  -2.682  0.00  0.00    -0.270 OA
ATOM      7  C   UNL     1       6.705   2.530  -2.568  0.00  0.00    +0.142 C 
ATOM      8  N   UNL     1       8.137   2.185  -2.572  0.00  0.00    -0.288 N 
ATOM      9  C   UNL     1       8.485   0.892  -2.721  0.00  0.00    +0.307 C 
ATOM     10  O   UNL     1       9.665   0.598  -2.726  0.00  0.00    -0.252 OA
ATOM     11  N   UNL     1       7.574  -0.079  -2.864  0.00  0.00    -0.253 N 
ATOM     12  H   UNL     1       8.813   2.873  -2.471  0.00  0.00    +0.151 HD
ENDROOT
BRANCH   7  13
ATOM     13  C   UNL     1       6.398   3.221  -1.264  0.00  0.00    -0.011 A 
ATOM     14  C   UNL     1       6.691   2.597  -0.066  0.00  0.00    +0.006 A 
ATOM     15  C   UNL     1       6.410   3.231   1.130  0.00  0.00    +0.000 A 
ATOM     16  C   UNL     1       5.837   4.489   1.128  0.00  0.00    +0.001 A 
ATOM     17  C   UNL     1       5.545   5.113  -0.071  0.00  0.00    +0.013 A 
ATOM     18  C   UNL     1       5.830   4.481  -1.267  0.00  0.00    +0.060 A 
BRANCH  18  19
ATOM     19  C   UNL     1       5.517   5.164  -2.573  0.00  0.00    +0.418 C 
ATOM     20  F   UNL     1       4.875   6.381  -2.321  0.00  0.00    -0.166 F 
ATOM     21  F   UNL     1       6.705   5.399  -3.273  0.00  0.00    -0.166 F 
ATOM     22  F   UNL     1       4.679   4.345  -3.338  0.00  0.00    -0.166 F 
ENDBRANCH  18  19
ENDBRANCH   7  13
BRANCH   1  23
ATOM     23  C   UNL     1       2.461  -0.319  -3.025  0.00  0.00    +0.193 C 
BRANCH  23  24
ATOM     24  C   UNL     1       1.779  -0.065  -1.706  0.00  0.00    -0.018 A 
ATOM     25  C   UNL     1       2.402  -0.424  -0.525  0.00  0.00    +0.006 A 
ATOM     26  C   UNL     1       1.776  -0.192   0.685  0.00  0.00    +0.000 A 
ATOM     27  C   UNL     1       0.528   0.401   0.715  0.00  0.00    +0.000 A 
ATOM     28  C   UNL     1      -0.095   0.761  -0.465  0.00  0.00    +0.000 A 
ATOM     29  C   UNL     1       0.533   0.532  -1.675  0.00  0.00    +0.006 A 
ENDBRANCH  23  24
BRANCH  23  31
ATOM     30  N   UNL     1       1.195  -2.394  -3.483  0.00  0.00    -0.309 N 
ATOM     31  C   UNL     1       2.392  -1.788  -3.352  0.00  0.00    +0.239 C 
ATOM     32  O   UNL     1       3.413  -2.425  -3.498  0.00  0.00    -0.273 OA
ATOM     33  H   UNL     1       0.378  -1.884  -3.366  0.00  0.00    +0.149 HD
BRANCH  30  35
ATOM     34  C   UNL     1       1.829  -4.623  -2.702  0.00  0.00    +0.031 C 
ATOM     35  C   UNL     1       1.128  -3.822  -3.801  0.00  0.00    +0.026 C 
ATOM     36  C   UNL     1       1.820  -4.080  -5.141  0.00  0.00    +0.031 C 
ATOM     37  C   UNL     1      -0.337  -4.256  -3.892  0.00  0.00    +0.031 C 
ENDBRANCH  30  35
ENDBRANCH  23  31
ENDBRANCH   1  23
BRANCH  11  38
ATOM     38  C   UNL     1       8.049  -1.457  -3.019  0.00  0.00    +0.141 C 
BRANCH  38  39
ATOM     39  C   UNL     1       8.248  -1.757  -4.482  0.00  0.00    -0.015 C 
ATOM     40  C   UNL     1       9.407  -2.195  -4.909  0.00  0.00    +0.005 C 
ENDBRANCH  38  39
ENDBRANCH  11  38
TORSDOF 8
