REMARK  Name = ZINC39898191
REMARK  10 active torsions:
REMARK  status: ('A' for Active; 'I' for Inactive)
REMARK    1  A    between atoms: C_1  and  O_2
REMARK    2  A    between atoms: O_2  and  C_3
REMARK    3  A    between atoms: C_3  and  C_4
REMARK    4  A    between atoms: C_4  and  N_5
REMARK    5  A    between atoms: C_6  and  C_24
REMARK    6  A    between atoms: C_9  and  C_16
REMARK    7  A    between atoms: C_21  and  O_22
REMARK    8  A    between atoms: C_28  and  O_30
REMARK    9  A    between atoms: O_30  and  C_31
REMARK   10  A    between atoms: C_31  and  C_32
REMARK                            x       y       z     vdW  Elec       q    Type
REMARK                         _______ _______ _______ _____ _____    ______ ____
ROOT
ATOM      1  N   UNL     1      -0.472  -2.386   1.278  0.00  0.00    -0.283 N 
ATOM      2  C   UNL     1       0.960  -2.571   1.548  0.00  0.00    +0.141 C 
ATOM      3  C   UNL     1       1.052  -3.152   2.932  0.00  0.00    +0.035 A 
ATOM      4  C   UNL     1       1.875  -3.622   3.961  0.00  0.00    +0.102 A 
ATOM      5  N   UNL     1       1.091  -3.996   4.953  0.00  0.00    -0.173 NA
ATOM      6  N   UNL     1      -0.145  -3.808   4.652  0.00  0.00    -0.272 N 
ATOM      7  H   UNL     1      -0.896  -4.011   5.231  0.00  0.00    +0.189 HD
ATOM      8  C   UNL     1      -0.243  -3.280   3.396  0.00  0.00    +0.126 A 
ATOM      9  C   UNL     1      -1.161  -2.796   2.359  0.00  0.00    +0.266 C 
ATOM     10  O   UNL     1      -2.372  -2.770   2.461  0.00  0.00    -0.268 OA
ENDROOT
BRANCH   4  11
ATOM     11  C   UNL     1       3.357  -3.689   3.940  0.00  0.00    +0.045 A 
ATOM     12  C   UNL     1       4.100  -2.595   3.504  0.00  0.00    +0.033 A 
ATOM     13  C   UNL     1       5.480  -2.661   3.487  0.00  0.00    +0.042 A 
ATOM     14  C   UNL     1       6.127  -3.813   3.901  0.00  0.00    +0.023 A 
ATOM     15  C   UNL     1       5.398  -4.904   4.335  0.00  0.00    +0.047 A 
ATOM     16  C   UNL     1       4.013  -4.848   4.363  0.00  0.00    +0.126 A 
ATOM     17 CL   UNL     1       6.405  -1.297   2.944  0.00  0.00    -0.084 Cl
BRANCH  16  18
ATOM     18  O   UNL     1       3.296  -5.918   4.794  0.00  0.00    -0.506 OA
ATOM     19  H   UNL     1       3.063  -6.544   4.095  0.00  0.00    +0.292 HD
ENDBRANCH  16  18
ENDBRANCH   4  11
BRANCH   2  20
ATOM     20  C   UNL     1       1.558  -3.522   0.543  0.00  0.00    -0.019 A 
ATOM     21  C   UNL     1       0.902  -4.698   0.230  0.00  0.00    +0.006 A 
ATOM     22  C   UNL     1       1.448  -5.572  -0.691  0.00  0.00    +0.004 A 
ATOM     23  C   UNL     1       2.651  -5.273  -1.300  0.00  0.00    +0.045 A 
ATOM     24  C   UNL     1       3.312  -4.094  -0.988  0.00  0.00    +0.121 A 
ATOM     25  C   UNL     1       2.758  -3.215  -0.068  0.00  0.00    +0.051 A 
BRANCH  24  26
ATOM     26  O   UNL     1       4.496  -3.798  -1.585  0.00  0.00    -0.487 OA
BRANCH  26  27
ATOM     27  C   UNL     1       5.003  -4.746  -2.527  0.00  0.00    +0.264 C 
BRANCH  27  28
ATOM     28  C   UNL     1       6.313  -4.251  -3.082  0.00  0.00    -0.010 A 
ATOM     29  C   UNL     1       6.329  -3.458  -4.214  0.00  0.00    +0.007 A 
ATOM     30  C   UNL     1       7.531  -3.004  -4.724  0.00  0.00    +0.000 A 
ATOM     31  C   UNL     1       8.717  -3.343  -4.101  0.00  0.00    +0.000 A 
ATOM     32  C   UNL     1       8.702  -4.135  -2.968  0.00  0.00    +0.000 A 
ATOM     33  C   UNL     1       7.499  -4.585  -2.456  0.00  0.00    +0.007 A 
ENDBRANCH  27  28
ENDBRANCH  26  27
ENDBRANCH  24  26
ENDBRANCH   2  20
BRANCH   1  34
ATOM     34  C   UNL     1      -1.051  -1.844   0.047  0.00  0.00    +0.137 C 
BRANCH  34  35
ATOM     35  C   UNL     1      -1.179  -0.324   0.169  0.00  0.00    +0.178 C 
BRANCH  35  37
ATOM     36  C   UNL     1       0.116   1.681   0.382  0.00  0.00    +0.194 C 
ATOM     37  O   UNL     1       0.123   0.257   0.263  0.00  0.00    -0.381 OA
ENDBRANCH  35  37
ENDBRANCH  34  35
ENDBRANCH   1  34
TORSDOF 9
