REMARK  Name = ZINC66187822
REMARK  8 active torsions:
REMARK  status: ('A' for Active; 'I' for Inactive)
REMARK    1  A    between atoms: C_1  and  C_2
REMARK    2  A    between atoms: C_5  and  N_8
REMARK    3  A    between atoms: C_11  and  N_14
REMARK    4  A    between atoms: N_14  and  C_15
REMARK    5  A    between atoms: N_18  and  C_19
REMARK    6  A    between atoms: C_19  and  C_20
REMARK    7  A    between atoms: C_20  and  C_21
REMARK    8  A    between atoms: N_23  and  C_24
REMARK                            x       y       z     vdW  Elec       q    Type
REMARK                         _______ _______ _______ _____ _____    ______ ____
ROOT
ATOM      1  N   UNL     1      -4.166   0.124   7.387  0.00  0.00    -0.286 N 
ATOM      2  C   UNL     1      -4.262   1.581   7.513  0.00  0.00    +0.134 C 
ATOM      3  C   UNL     1      -4.688  -0.671   8.341  0.00  0.00    +0.302 C 
ATOM      4  O   UNL     1      -4.608  -1.880   8.236  0.00  0.00    -0.253 OA
ATOM      5  N   UNL     1      -5.299  -0.127   9.412  0.00  0.00    -0.299 N 
ATOM      6  H   UNL     1      -5.363   0.838   9.496  0.00  0.00    +0.150 HD
ENDROOT
BRANCH   1  10
ATOM      7  N   UNL     1      -2.097  -0.073   3.720  0.00  0.00    +0.382 N 
ATOM      8  C   UNL     1      -1.381  -0.553   4.908  0.00  0.00    -0.077 C 
ATOM      9  C   UNL     1      -2.046   0.005   6.168  0.00  0.00    +0.004 C 
ATOM     10  C   UNL     1      -3.502  -0.468   6.223  0.00  0.00    +0.074 C 
ATOM     11  C   UNL     1      -4.219  -0.026   4.944  0.00  0.00    +0.004 C 
ATOM     12  C   UNL     1      -3.474  -0.582   3.729  0.00  0.00    -0.077 C 
ATOM     13  H   UNL     1      -2.112   0.936   3.723  0.00  0.00    -0.081 HD
BRANCH   7  18
ATOM     14  C   UNL     1      -0.019   1.526   0.010  0.00  0.00    +0.007 C 
ATOM     15  C   UNL     1       0.002  -0.004   0.002  0.00  0.00    -0.014 C 
ATOM     16  C   UNL     1      -1.433  -0.534   0.013  0.00  0.00    +0.002 C 
ATOM     17  C   UNL     1      -2.149  -0.040   1.272  0.00  0.00    -0.015 C 
ATOM     18  C   UNL     1      -1.409  -0.547   2.511  0.00  0.00    -0.069 C 
ATOM     19  C   UNL     1       0.026  -0.018   2.500  0.00  0.00    -0.015 C 
ATOM     20  C   UNL     1       0.742  -0.511   1.242  0.00  0.00    +0.002 C 
ENDBRANCH   7  18
ENDBRANCH   1  10
BRANCH   5  21
ATOM     21  C   UNL     1      -5.866  -0.991  10.450  0.00  0.00    +0.115 C 
BRANCH  21  22
ATOM     22  C   UNL     1      -6.496  -0.128  11.544  0.00  0.00    +0.114 C 
BRANCH  22  23
ATOM     23  C   UNL     1      -7.080  -1.017  12.612  0.00  0.00    +0.215 C 
ATOM     24  O   UNL     1      -7.000  -2.223  12.507  0.00  0.00    -0.276 OA
ATOM     25  N   UNL     1      -7.691  -0.473  13.683  0.00  0.00    -0.312 N 
ATOM     26  H   UNL     1      -7.755   0.491  13.767  0.00  0.00    +0.149 HD
BRANCH  25  27
ATOM     27  C   UNL     1      -8.259  -1.337  14.720  0.00  0.00    +0.073 C 
ATOM     28  C   UNL     1      -9.710  -1.716  14.358  0.00  0.00    +0.022 C 
ATOM     29  C   UNL     1     -10.451  -1.724  15.718  0.00  0.00    +0.002 C 
ATOM     30  C   UNL     1      -9.811  -0.527  16.463  0.00  0.00    +0.002 C 
ATOM     31  C   UNL     1      -8.323  -0.581  16.059  0.00  0.00    +0.022 C 
ENDBRANCH  25  27
ENDBRANCH  22  23
ENDBRANCH  21  22
ENDBRANCH   5  21
TORSDOF 6
