REMARK  Name = ZINC16029606
REMARK  6 active torsions:
REMARK  status: ('A' for Active; 'I' for Inactive)
REMARK    1  A    between atoms: C_1  and  C_2
REMARK    2  A    between atoms: C_2  and  C_33
REMARK    3  A    between atoms: C_19  and  C_32
REMARK    4  A    between atoms: C_21  and  O_30
REMARK    5  A    between atoms: C_24  and  C_29
REMARK    6  A    between atoms: C_25  and  C_27
REMARK                            x       y       z     vdW  Elec       q    Type
REMARK                         _______ _______ _______ _____ _____    ______ ____
ROOT
ATOM      1  C   UNL     1      -7.207  -2.951   3.409  0.00  0.00    +0.074 C 
ATOM      2  C   UNL     1      -6.719  -2.238   2.136  0.00  0.00    +0.166 C 
ATOM      3  O   UNL     1      -6.334  -0.894   2.455  0.00  0.00    -0.342 OA
ATOM      4  C   UNL     1      -5.102  -0.598   1.786  0.00  0.00    +0.165 C 
ATOM      5  C   UNL     1      -4.014  -0.333   2.867  0.00  0.00    +0.039 C 
ATOM      6  C   UNL     1      -3.334  -1.703   3.007  0.00  0.00    +0.007 C 
ATOM      7  C   UNL     1      -2.042  -1.777   3.747  0.00  0.00    +0.034 C 
ATOM      8  C   UNL     1      -1.227  -0.492   3.843  0.00  0.00    +0.011 C 
ATOM      9  C   UNL     1      -0.223  -0.679   4.983  0.00  0.00    +0.032 C 
ATOM     10  C   UNL     1       0.259  -2.095   5.117  0.00  0.00    -0.053 C 
ATOM     11  C   UNL     1       1.045  -2.369   6.185  0.00  0.00    +0.051 C 
ATOM     12  C   UNL     1       1.529  -3.771   6.289  0.00  0.00    +0.179 C 
ATOM     13  O   UNL     1       2.660  -4.050   6.646  0.00  0.00    -0.288 OA
ATOM     14  C   UNL     1       0.525  -4.807   5.927  0.00  0.00    +0.047 C 
ATOM     15  C   UNL     1      -0.235  -4.527   4.845  0.00  0.00    -0.009 C 
ATOM     16  C   UNL     1      -0.056  -3.207   4.168  0.00  0.00    +0.044 C 
ATOM     17  C   UNL     1      -1.125  -2.857   3.166  0.00  0.00    +0.153 C 
ATOM     18  C   UNL     1      -1.958  -4.009   2.639  0.00  0.00    +0.154 C 
ATOM     19  C   UNL     1      -2.739  -3.561   1.389  0.00  0.00    +0.045 C 
ATOM     20  C   UNL     1      -3.239  -2.149   1.537  0.00  0.00    +0.016 C 
ATOM     21  C   UNL     1      -4.696  -1.921   1.076  0.00  0.00    +0.204 C 
ATOM     22  O   UNL     1      -5.561  -2.917   1.621  0.00  0.00    -0.328 OA
ATOM     23  C   UNL     1      -2.387  -1.184   0.701  0.00  0.00    +0.015 C 
ATOM     24  F   UNL     1      -0.418  -2.303   2.091  0.00  0.00    -0.238 F 
ATOM     25  C   UNL     1       1.205  -3.359   3.311  0.00  0.00    +0.023 C 
ATOM     26  C   UNL     1      -7.852  -2.242   1.101  0.00  0.00    +0.074 C 
ENDROOT
BRANCH  21  27
ATOM     27  C   UNL     1      -4.766  -1.816  -0.422  0.00  0.00    +0.390 C 
ATOM     28  O   UNL     1      -4.781  -0.730  -0.951  0.00  0.00    -0.243 OA
ATOM     29  O   UNL     1      -4.812  -2.928  -1.172  0.00  0.00    -0.243 OA
ENDBRANCH  21  27
BRANCH  18  30
ATOM     30  O   UNL     1      -2.891  -4.443   3.636  0.00  0.00    -0.389 OA
ATOM     31  H   UNL     1      -3.452  -5.178   3.356  0.00  0.00    +0.210 HD
ENDBRANCH  18  30
TORSDOF 2
