REMARK  Name = ZINC30564085
REMARK  7 active torsions:
REMARK  status: ('A' for Active; 'I' for Inactive)
REMARK    1  A    between atoms: C_6  and  C_7
REMARK    2  A    between atoms: C_9  and  C_12
REMARK    3  A    between atoms: C_12  and  C_13
REMARK    4  A    between atoms: C_13  and  C_14
REMARK    5  A    between atoms: C_14  and  C_15
REMARK    6  A    between atoms: C_20  and  C_23
REMARK    7  A    between atoms: C_23  and  N_24
REMARK                            x       y       z     vdW  Elec       q    Type
REMARK                         _______ _______ _______ _____ _____    ______ ____
ROOT
ATOM      1  C   UNL     1      -2.107   5.666   0.053  0.00  0.00    +0.219 C 
ATOM      2  O   UNL     1      -0.985   6.126   0.045  0.00  0.00    -0.275 OA
ATOM      3  N   UNL     1      -2.288   4.330   0.047  0.00  0.00    -0.265 N 
ATOM      4  C   UNL     1      -1.188   3.480   0.032  0.00  0.00    +0.164 A 
ATOM      5  N   UNL     1      -1.160   2.162   0.019  0.00  0.00    -0.231 NA
ATOM      6  C   UNL     1      -0.018   1.503   0.010  0.00  0.00    +0.034 A 
ATOM      7  C   UNL     1       1.137   2.212   0.003  0.00  0.00    +0.070 A 
ATOM      8  S   UNL     1       0.501   3.882   0.018  0.00  0.00    -0.060 S 
ATOM      9  H   UNL     1      -3.306   3.913   0.054  0.00  0.00    +0.157 HD
ENDROOT
BRANCH   1  10
ATOM     10  C   UNL     1      -3.299   6.588   0.070  0.00  0.00    +0.096 C 
BRANCH  10  11
ATOM     11  C   UNL     1      -2.821   8.041   0.074  0.00  0.00    +0.019 C 
BRANCH  11  12
ATOM     12  C   UNL     1      -4.031   8.976   0.090  0.00  0.00    +0.099 C 
BRANCH  12  15
ATOM     13  C   UNL     1      -2.926  12.350  -0.473  0.00  0.00    +0.202 A 
ATOM     14  N   UNL     1      -3.326  11.153  -0.958  0.00  0.00    -0.191 NA
ATOM     15  C   UNL     1      -3.559  10.408   0.094  0.00  0.00    +0.228 A 
ATOM     16  O   UNL     1      -3.307  11.158   1.171  0.00  0.00    -0.338 OA
ATOM     17  N   UNL     1      -2.941  12.263   0.832  0.00  0.00    -0.056 NA
BRANCH  13  23
ATOM     18  C   UNL     1      -2.569  13.486  -2.664  0.00  0.00    +0.013 A 
ATOM     19  C   UNL     1      -2.216  14.597  -3.403  0.00  0.00    +0.021 A 
ATOM     20  C   UNL     1      -1.826  15.761  -2.763  0.00  0.00    +0.041 A 
ATOM     21  C   UNL     1      -1.793  15.818  -1.380  0.00  0.00    +0.021 A 
ATOM     22  C   UNL     1      -2.149  14.714  -0.633  0.00  0.00    +0.013 A 
ATOM     23  C   UNL     1      -2.543  13.540  -1.272  0.00  0.00    +0.023 A 
ATOM     24 CL   UNL     1      -1.377  17.153  -3.698  0.00  0.00    -0.084 Cl
ENDBRANCH  13  23
ENDBRANCH  12  15
ENDBRANCH  11  12
ENDBRANCH  10  11
ENDBRANCH   1  10
BRANCH   6  25
ATOM     25  C   UNL     1       0.002  -0.004   0.002  0.00  0.00    -0.022 C 
BRANCH  25  26
ATOM     26  N   UNL     1      -0.099  -0.503   1.380  0.00  0.00    +0.383 N 
ATOM     27  C   UNL     1       1.090  -0.136   2.161  0.00  0.00    -0.078 C 
ATOM     28  C   UNL     1       0.887  -0.543   3.622  0.00  0.00    -0.019 C 
ATOM     29  C   UNL     1       0.649  -2.053   3.698  0.00  0.00    -0.004 C 
ATOM     30  C   UNL     1      -0.565  -2.415   2.838  0.00  0.00    -0.019 C 
ATOM     31  C   UNL     1      -0.320  -1.954   1.400  0.00  0.00    -0.078 C 
ATOM     32  H   UNL     1      -0.970  -0.024   1.851  0.00  0.00    -0.081 HD
ENDBRANCH  25  26
ENDBRANCH   6  25
TORSDOF 7
