REMARK  Name = ZINC02134189
REMARK  7 active torsions:
REMARK  status: ('A' for Active; 'I' for Inactive)
REMARK    1  A    between atoms: C_1  and  C_2
REMARK    2  A    between atoms: C_2  and  C_4
REMARK    3  A    between atoms: C_2  and  N_58
REMARK    4  A    between atoms: N_6  and  C_7
REMARK    5  A    between atoms: C_16  and  C_17
REMARK    6  A    between atoms: C_17  and  O_19
REMARK    7  A    between atoms: O_19  and  C_20
REMARK                            x       y       z     vdW  Elec       q    Type
REMARK                         _______ _______ _______ _____ _____    ______ ____
ROOT
ATOM      1  C   UNL     1      -1.241   5.625   0.559  0.00  0.00    +0.203 C 
ATOM      2  O   UNL     1      -1.648   4.604   0.045  0.00  0.00    -0.277 OA
ATOM      3  N   UNL     1      -1.259   5.758   1.900  0.00  0.00    -0.284 N 
ATOM      4  H   UNL     1      -0.996   6.599   2.307  0.00  0.00    +0.155 HD
ENDROOT
BRANCH   3   5
ATOM      5  C   UNL     1      -1.654   4.691   2.700  0.00  0.00    +0.073 A 
ATOM      6  C   UNL     1      -1.495   3.266   2.399  0.00  0.00    +0.022 A 
ATOM      7  C   UNL     1      -0.948   2.565   1.320  0.00  0.00    +0.012 A 
ATOM      8  C   UNL     1      -0.946   1.200   1.329  0.00  0.00    +0.001 A 
ATOM      9  C   UNL     1      -1.481   0.501   2.403  0.00  0.00    +0.002 A 
ATOM     10  C   UNL     1      -2.024   1.169   3.476  0.00  0.00    +0.026 A 
ATOM     11  C   UNL     1      -2.039   2.563   3.490  0.00  0.00    +0.049 A 
ATOM     12  N   UNL     1      -2.497   3.483   4.403  0.00  0.00    -0.348 N 
ATOM     13  H   UNL     1      -2.917   3.267   5.250  0.00  0.00    +0.166 HD
ATOM     14  C   UNL     1      -2.273   4.768   3.930  0.00  0.00    +0.147 A 
BRANCH  14  15
ATOM     15  C   UNL     1      -2.618   5.967   4.605  0.00  0.00    +0.357 C 
ATOM     16  O   UNL     1      -2.284   7.042   4.145  0.00  0.00    -0.243 OA
BRANCH  15  17
ATOM     17  O   UNL     1      -3.318   5.914   5.758  0.00  0.00    -0.463 OA
ATOM     18  C   UNL     1      -3.631   7.160   6.384  0.00  0.00    +0.280 C 
ENDBRANCH  15  17
ENDBRANCH  14  15
ENDBRANCH   3   5
BRANCH   1  20
ATOM     19  C   UNL     1      -1.746   7.873  -0.358  0.00  0.00    -0.004 C 
ATOM     20  C   UNL     1      -0.715   6.744  -0.303  0.00  0.00    +0.016 C 
BRANCH  20  34
ATOM     21  C   UNL     1      -1.726   5.995  -2.369  0.00  0.00    -0.073 C 
ATOM     22  C   UNL     1      -1.471   5.418  -3.753  0.00  0.00    -0.007 C 
ATOM     23  C   UNL     1      -0.538   6.327  -4.559  0.00  0.00    +0.011 C 
ATOM     24  C   UNL     1       0.754   6.494  -3.752  0.00  0.00    +0.020 C 
ATOM     25  C   UNL     1       0.397   7.164  -2.414  0.00  0.00    -0.068 C 
ATOM     26  C   UNL     1       1.325   5.129  -3.438  0.00  0.00    +0.023 A 
ATOM     27  C   UNL     1       2.671   5.033  -3.281  0.00  0.00    +0.022 A 
ATOM     28  C   UNL     1       3.260   3.814  -2.927  0.00  0.00    +0.007 A 
ATOM     29  C   UNL     1       2.458   2.731  -2.716  0.00  0.00    +0.070 A 
ATOM     30  C   UNL     1       1.072   2.866  -2.883  0.00  0.00    +0.251 A 
ATOM     31  O   UNL     1       0.339   1.921  -2.637  0.00  0.00    -0.268 OA
ATOM     32  N   UNL     1       0.538   4.035  -3.314  0.00  0.00    -0.312 N 
ATOM     33  C   UNL     1      -0.878   4.021  -3.683  0.00  0.00    +0.126 C 
ATOM     34  N   UNL     1      -0.451   6.215  -1.657  0.00  0.00    +0.388 N 
ATOM     35  H   UNL     1       0.043   5.319  -1.575  0.00  0.00    -0.081 HD
ENDBRANCH  20  34
ENDBRANCH   1  20
TORSDOF 5
