REMARK  Name = ZINC11784843
REMARK  8 active torsions:
REMARK  status: ('A' for Active; 'I' for Inactive)
REMARK    1  A    between atoms: C_1  and  C_2
REMARK    2  A    between atoms: C_2  and  C_3
REMARK    3  A    between atoms: C_2  and  N_4
REMARK    4  A    between atoms: C_5  and  C_7
REMARK    5  A    between atoms: C_10  and  S_27
REMARK    6  A    between atoms: C_13  and  C_14
REMARK    7  A    between atoms: C_13  and  N_65
REMARK    8  A    between atoms: S_27  and  C_28
REMARK                            x       y       z     vdW  Elec       q    Type
REMARK                         _______ _______ _______ _____ _____    ______ ____
ROOT
ATOM      1  C   UNL     1       7.562  -1.564   1.347  0.00  0.00    +0.021 C 
ATOM      2  C   UNL     1       8.181  -0.815   2.553  0.00  0.00    +0.006 C 
ATOM      3  C   UNL     1       7.462   0.557   2.474  0.00  0.00    +0.037 C 
ATOM      4  C   UNL     1       6.047   0.180   1.988  0.00  0.00    -0.063 C 
ATOM      5  N   UNL     1       6.151  -1.138   1.335  0.00  0.00    +0.391 N 
ATOM      6  H   UNL     1       5.586  -1.820   1.855  0.00  0.00    -0.080 HD
ENDROOT
BRANCH   1   8
ATOM      7  N   UNL     1       8.853  -3.658   1.611  0.00  0.00    -0.314 N 
ATOM      8  C   UNL     1       7.649  -3.054   1.554  0.00  0.00    +0.200 C 
ATOM      9  O   UNL     1       6.636  -3.711   1.668  0.00  0.00    -0.278 OA
ATOM     10  H   UNL     1       9.663  -3.133   1.519  0.00  0.00    +0.149 HD
BRANCH   7  12
ATOM     11  C   UNL     1      10.258  -5.625   1.238  0.00  0.00    +0.027 C 
ATOM     12  C   UNL     1       8.937  -5.106   1.812  0.00  0.00    +0.067 C 
ATOM     13  C   UNL     1       8.873  -5.418   3.308  0.00  0.00    +0.027 C 
ENDBRANCH   7  12
ENDBRANCH   1   8
BRANCH   5  14
ATOM     14  C   UNL     1       5.649  -1.056  -0.061  0.00  0.00    -0.042 C 
BRANCH  14  15
ATOM     15  C   UNL     1       4.156  -0.853  -0.044  0.00  0.00    -0.064 A 
ATOM     16  C   UNL     1       3.310  -1.947  -0.042  0.00  0.00    +0.002 A 
ATOM     17  C   UNL     1       1.942  -1.769  -0.026  0.00  0.00    +0.009 A 
ATOM     18  C   UNL     1       1.408  -0.479  -0.014  0.00  0.00    -0.014 A 
ATOM     19  C   UNL     1       2.267   0.616  -0.016  0.00  0.00    -0.035 A 
ATOM     20  C   UNL     1       3.633   0.428  -0.031  0.00  0.00    +0.006 A 
ATOM     21  C   UNL     1       1.416   1.862  -0.002  0.00  0.00    +0.071 C 
ATOM     22  C   UNL     1      -0.017   1.388   0.010  0.00  0.00    -0.035 A 
ATOM     23  C   UNL     1       0.002  -0.004   0.002  0.00  0.00    -0.014 A 
ATOM     24  C   UNL     1      -1.205  -0.705   0.009  0.00  0.00    +0.009 A 
ATOM     25  C   UNL     1      -2.401  -0.017   0.024  0.00  0.00    +0.001 A 
ATOM     26  C   UNL     1      -2.409   1.366   0.032  0.00  0.00    +0.000 A 
ATOM     27  C   UNL     1      -1.217   2.067   0.020  0.00  0.00    +0.004 A 
ENDBRANCH  14  15
ENDBRANCH   5  14
BRANCH   3  28
ATOM     28  S   UNL     1       7.392   1.339   4.105  0.00  0.00    -0.086 S 
BRANCH  28  29
ATOM     29  C   UNL     1       6.681   2.891   3.670  0.00  0.00    +0.167 A 
ATOM     30  N   UNL     1       6.400   3.899   4.548  0.00  0.00    -0.333 N 
ATOM     31  H   UNL     1       6.558   3.888   5.535  0.00  0.00    +0.168 HD
ATOM     32  C   UNL     1       5.854   4.941   3.815  0.00  0.00    +0.067 A 
ATOM     33  C   UNL     1       5.383   6.203   4.143  0.00  0.00    +0.028 A 
ATOM     34  C   UNL     1       4.887   7.029   3.156  0.00  0.00    +0.002 A 
ATOM     35  C   UNL     1       4.856   6.606   1.835  0.00  0.00    +0.002 A 
ATOM     36  C   UNL     1       5.320   5.356   1.492  0.00  0.00    +0.030 A 
ATOM     37  C   UNL     1       5.826   4.507   2.480  0.00  0.00    +0.090 A 
ATOM     38  N   UNL     1       6.348   3.253   2.455  0.00  0.00    -0.222 NA
ENDBRANCH  28  29
ENDBRANCH   3  28
TORSDOF 6
