REMARK  Name = ZINC16013003
REMARK  11 active torsions:
REMARK  status: ('A' for Active; 'I' for Inactive)
REMARK    1  A    between atoms: C_1  and  O_2
REMARK    2  A    between atoms: O_2  and  C_3
REMARK    3  A    between atoms: C_5  and  C_10
REMARK    4  A    between atoms: C_8  and  O_9
REMARK    5  A    between atoms: C_18  and  O_38
REMARK    6  A    between atoms: C_21  and  C_22
REMARK    7  A    between atoms: C_21  and  N_73
REMARK    8  A    between atoms: N_24  and  C_25
REMARK    9  A    between atoms: C_26  and  C_34
REMARK   10  A    between atoms: C_34  and  O_36
REMARK   11  A    between atoms: O_36  and  C_37
REMARK                            x       y       z     vdW  Elec       q    Type
REMARK                         _______ _______ _______ _____ _____    ______ ____
ROOT
ATOM      1  C   UNL     1      -2.842   1.668   0.114  0.00  0.00    -0.031 C 
ATOM      2  C   UNL     1      -2.105   1.183  -1.135  0.00  0.00    +0.011 C 
ATOM      3  C   UNL     1      -2.749   1.780  -2.387  0.00  0.00    +0.005 C 
ATOM      4  C   UNL     1      -2.004   1.277  -3.626  0.00  0.00    +0.000 C 
ATOM      5  C   UNL     1      -0.536   1.700  -3.551  0.00  0.00    +0.003 C 
ATOM      6  C   UNL     1       0.105   1.113  -2.291  0.00  0.00    +0.035 C 
ATOM      7  C   UNL     1      -0.641   1.626  -1.059  0.00  0.00    +0.066 C 
ATOM      8  C   UNL     1      -0.011   1.052   0.211  0.00  0.00    +0.016 C 
ATOM      9  C   UNL     1      -0.805   1.532   1.428  0.00  0.00    -0.075 C 
ATOM     10  N   UNL     1      -2.204   1.066   1.306  0.00  0.00    +0.390 N 
ATOM     11  H   UNL     1      -2.206   0.044   1.204  0.00  0.00    -0.080 HD
ENDROOT
BRANCH   1  14
ATOM     12  C   UNL     1      -3.246   5.314  -0.790  0.00  0.00    +0.161 A 
ATOM     13  C   UNL     1      -3.300   3.931  -0.851  0.00  0.00    +0.051 A 
ATOM     14  C   UNL     1      -2.782   3.172   0.182  0.00  0.00    -0.057 A 
ATOM     15  C   UNL     1      -2.212   3.791   1.280  0.00  0.00    +0.006 A 
ATOM     16  C   UNL     1      -2.150   5.170   1.344  0.00  0.00    +0.049 A 
ATOM     17  C   UNL     1      -2.668   5.936   0.312  0.00  0.00    +0.158 A 
BRANCH  12  19
ATOM     18  C   UNL     1      -4.334   5.355  -2.904  0.00  0.00    +0.277 C 
ATOM     19  O   UNL     1      -3.756   6.061  -1.805  0.00  0.00    -0.491 OA
ENDBRANCH  12  19
BRANCH  17  20
ATOM     20  O   UNL     1      -2.612   7.294   0.377  0.00  0.00    -0.503 OA
ATOM     21  H   UNL     1      -3.381   7.700   0.799  0.00  0.00    +0.292 HD
ENDBRANCH  17  20
ENDBRANCH   1  14
BRANCH   7  22
ATOM     22  O   UNL     1      -0.575   3.053  -1.021  0.00  0.00    -0.388 OA
ATOM     23  H   UNL     1       0.325   3.404  -0.966  0.00  0.00    +0.210 HD
ENDBRANCH   7  22
BRANCH  10  24
ATOM     24  C   UNL     1      -2.963   1.428   2.521  0.00  0.00    +0.020 C 
BRANCH  24  25
ATOM     25  C   UNL     1      -4.293   0.720   2.489  0.00  0.00    +0.201 C 
ATOM     26  O   UNL     1      -4.540  -0.067   1.600  0.00  0.00    -0.278 OA
ATOM     27  N   UNL     1      -5.208   0.961   3.449  0.00  0.00    -0.281 N 
ATOM     28  H   UNL     1      -5.010   1.591   4.160  0.00  0.00    +0.155 HD
BRANCH  27  29
ATOM     29  C   UNL     1      -6.431   0.310   3.420  0.00  0.00    +0.086 A 
ATOM     30  C   UNL     1      -7.489   0.420   4.313  0.00  0.00    +0.091 A 
ATOM     31  C   UNL     1      -8.675  -0.377   4.051  0.00  0.00    -0.021 A 
ATOM     32  C   UNL     1      -8.610  -1.160   2.952  0.00  0.00    -0.004 A 
ATOM     33  S   UNL     1      -7.009  -0.845   2.265  0.00  0.00    -0.077 S 
ATOM     34  C   UNL     1      -9.668  -2.087   2.440  0.00  0.00    +0.043 C 
ATOM     35  C   UNL     1     -10.703  -2.304   3.554  0.00  0.00    +0.005 C 
ATOM     36  C   UNL     1     -11.091  -0.942   4.138  0.00  0.00    +0.005 C 
ATOM     37  C   UNL     1      -9.918  -0.363   4.931  0.00  0.00    +0.037 C 
BRANCH  30  38
ATOM     38  C   UNL     1      -7.413   1.310   5.474  0.00  0.00    +0.342 C 
ATOM     39  O   UNL     1      -7.786   2.464   5.381  0.00  0.00    -0.245 OA
BRANCH  38  40
ATOM     40  O   UNL     1      -6.930   0.850   6.646  0.00  0.00    -0.464 OA
ATOM     41  C   UNL     1      -6.885   1.787   7.754  0.00  0.00    +0.280 C 
ENDBRANCH  38  40
ENDBRANCH  30  38
ENDBRANCH  27  29
ENDBRANCH  24  25
ENDBRANCH  10  24
TORSDOF 9
