REMARK  Name = ZINC46739846
REMARK  6 active torsions:
REMARK  status: ('A' for Active; 'I' for Inactive)
REMARK    1  A    between atoms: C_1  and  C_2
REMARK    2  A    between atoms: C_9  and  C_11
REMARK    3  A    between atoms: N_13  and  N_14
REMARK    4  A    between atoms: C_15  and  C_17
REMARK    5  A    between atoms: C_17  and  C_18
REMARK    6  A    between atoms: C_18  and  N_19
REMARK                            x       y       z     vdW  Elec       q    Type
REMARK                         _______ _______ _______ _____ _____    ______ ____
ROOT
ATOM      1  N   UNL     1       1.978  -7.562   3.418  0.00  0.00    -0.234 N 
ATOM      2  C   UNL     1       2.065  -8.835   2.985  0.00  0.00    +0.231 C 
ATOM      3  O   UNL     1       1.903  -9.089   1.810  0.00  0.00    -0.274 OA
ATOM      4  H   UNL     1       2.108  -7.359   4.357  0.00  0.00    +0.173 HD
ENDROOT
BRANCH   1   7
ATOM      5  C   UNL     1       1.612  -5.258   2.944  0.00  0.00    +0.267 C 
ATOM      6  O   UNL     1       1.775  -5.003   4.123  0.00  0.00    -0.268 OA
ATOM      7  N   UNL     1       1.699  -6.531   2.511  0.00  0.00    -0.230 N 
ATOM      8  H   UNL     1       1.569  -6.734   1.571  0.00  0.00    +0.173 HD
BRANCH   5  16
ATOM      9  C   UNL     1      -0.019   1.526   0.010  0.00  0.00    +0.008 C 
ATOM     10  C   UNL     1       0.002  -0.004   0.002  0.00  0.00    -0.009 C 
ATOM     11  C   UNL     1       0.716  -0.496  -1.260  0.00  0.00    +0.009 C 
ATOM     12  C   UNL     1       0.494  -2.009  -1.394  0.00  0.00    +0.043 C 
ATOM     13  C   UNL     1       0.790  -2.651  -0.071  0.00  0.00    -0.006 A 
ATOM     14  C   UNL     1       0.909  -2.022   1.133  0.00  0.00    -0.036 A 
ATOM     15  C   UNL     1       1.190  -2.823   2.230  0.00  0.00    +0.024 A 
ATOM     16  C   UNL     1       1.320  -4.179   1.995  0.00  0.00    +0.076 A 
ATOM     17  S   UNL     1       1.042  -4.273   0.236  0.00  0.00    -0.088 S 
ATOM     18  C   UNL     1       0.739  -0.509   1.243  0.00  0.00    +0.039 C 
ENDBRANCH   5  16
ENDBRANCH   1   7
BRANCH   2  19
ATOM     19  C   UNL     1       2.365  -9.944   3.960  0.00  0.00    +0.117 C 
BRANCH  19  20
ATOM     20  C   UNL     1       2.409 -11.280   3.216  0.00  0.00    +0.126 C 
BRANCH  20  21
ATOM     21  N   UNL     1       2.700 -12.358   4.164  0.00  0.00    -0.234 N 
ATOM     22  C   UNL     1       3.938 -12.779   4.482  0.00  0.00    +0.254 C 
ATOM     23  O   UNL     1       4.975 -12.331   4.035  0.00  0.00    -0.270 OA
ATOM     24  C   UNL     1       3.825 -13.875   5.466  0.00  0.00    +0.049 A 
ATOM     25  C   UNL     1       4.740 -14.673   6.135  0.00  0.00    +0.015 A 
ATOM     26  C   UNL     1       4.291 -15.641   7.019  0.00  0.00    +0.016 A 
ATOM     27  C   UNL     1       2.936 -15.816   7.238  0.00  0.00    +0.019 A 
ATOM     28  C   UNL     1       2.009 -15.024   6.575  0.00  0.00    +0.029 A 
ATOM     29  C   UNL     1       2.445 -14.053   5.689  0.00  0.00    +0.050 A 
ATOM     30  C   UNL     1       1.766 -13.054   4.837  0.00  0.00    +0.254 C 
ATOM     31  O   UNL     1       0.565 -12.890   4.755  0.00  0.00    -0.270 OA
ATOM     32 BR   UNL     1       2.344 -17.142   8.448  0.00  0.00    -0.050 Br
ENDBRANCH  20  21
ENDBRANCH  19  20
ENDBRANCH   2  19
TORSDOF 5
