REMARK  Name = ZINC36366818
REMARK  8 active torsions:
REMARK  status: ('A' for Active; 'I' for Inactive)
REMARK    1  A    between atoms: C_1  and  C_2
REMARK    2  A    between atoms: C_2  and  C_3
REMARK    3  A    between atoms: C_2  and  C_4
REMARK    4  A    between atoms: C_4  and  N_5
REMARK    5  A    between atoms: C_22  and  C_32
REMARK    6  A    between atoms: C_23  and  C_24
REMARK    7  A    between atoms: C_27  and  O_30
REMARK    8  A    between atoms: O_30  and  C_31
REMARK                            x       y       z     vdW  Elec       q    Type
REMARK                         _______ _______ _______ _____ _____    ______ ____
ROOT
ATOM      1  N   UNL     1      -2.105  -0.148  -1.230  0.00  0.00    -0.270 N 
ATOM      2  C   UNL     1      -2.812   1.032  -1.395  0.00  0.00    +0.041 A 
ATOM      3  C   UNL     1      -3.036   2.063  -0.483  0.00  0.00    +0.026 A 
ATOM      4  C   UNL     1      -3.788   3.143  -0.919  0.00  0.00    +0.040 A 
ATOM      5  C   UNL     1      -4.301   3.207  -2.200  0.00  0.00    +0.124 A 
ATOM      6  C   UNL     1      -4.083   2.184  -3.120  0.00  0.00    +0.045 A 
ATOM      7  C   UNL     1      -3.335   1.108  -2.692  0.00  0.00    -0.003 A 
ATOM      8  C   UNL     1      -2.907  -0.143  -3.390  0.00  0.00    +0.115 C 
ATOM      9  C   UNL     1      -2.105  -0.898  -2.352  0.00  0.00    +0.236 C 
ATOM     10  O   UNL     1      -1.565  -1.974  -2.500  0.00  0.00    -0.274 OA
ATOM     11  C   UNL     1      -2.022   0.176  -4.595  0.00  0.00    +0.122 C 
ATOM     12  C   UNL     1      -2.855   0.550  -5.787  0.00  0.00    +0.219 C 
ATOM     13  O   UNL     1      -2.428   1.392  -6.549  0.00  0.00    -0.275 OA
ATOM     14  N   UNL     1      -4.051  -0.003  -6.051  0.00  0.00    -0.284 N 
ATOM     15  C   UNL     1      -4.623  -0.897  -5.101  0.00  0.00    +0.054 A 
ATOM     16  C   UNL     1      -4.080  -0.953  -3.844  0.00  0.00    +0.032 A 
ATOM     17  S   UNL     1      -4.984  -2.068  -3.001  0.00  0.00    -0.083 S 
ATOM     18  C   UNL     1      -6.129  -2.535  -4.286  0.00  0.00    +0.110 A 
ATOM     19  C   UNL     1      -5.708  -1.734  -5.355  0.00  0.00    +0.025 A 
ATOM     20  F   UNL     1      -5.028   4.285  -2.569  0.00  0.00    -0.205 F 
ATOM     21  H   UNL     1      -4.518   0.204  -6.875  0.00  0.00    +0.155 HD
ENDROOT
BRANCH  19  22
ATOM     22  C   UNL     1      -6.376  -1.773  -6.675  0.00  0.00    -0.015 A 
ATOM     23  C   UNL     1      -7.048  -0.647  -7.153  0.00  0.00    +0.012 A 
ATOM     24  C   UNL     1      -7.669  -0.687  -8.383  0.00  0.00    +0.046 A 
ATOM     25  C   UNL     1      -7.627  -1.847  -9.146  0.00  0.00    +0.120 A 
ATOM     26  C   UNL     1      -6.960  -2.970  -8.674  0.00  0.00    +0.046 A 
ATOM     27  C   UNL     1      -6.332  -2.935  -7.447  0.00  0.00    +0.012 A 
BRANCH  25  28
ATOM     28  O   UNL     1      -8.241  -1.883 -10.358  0.00  0.00    -0.495 OA
ATOM     29  C   UNL     1      -8.159  -3.107 -11.090  0.00  0.00    +0.277 C 
ENDBRANCH  25  28
ENDBRANCH  19  22
BRANCH  18  30
ATOM     30  C   UNL     1      -7.186  -3.471  -4.238  0.00  0.00    +0.394 C 
ATOM     31  O   UNL     1      -7.412  -4.088  -3.204  0.00  0.00    -0.240 OA
ATOM     32  O   UNL     1      -7.878  -3.665  -5.231  0.00  0.00    -0.240 OA
ENDBRANCH  18  30
BRANCH   1  33
ATOM     33  C   UNL     1      -1.433  -0.534   0.013  0.00  0.00    +0.116 C 
BRANCH  33  35
ATOM     34  C   UNL     1      -0.019   1.526   0.010  0.00  0.00    +0.009 C 
ATOM     35  C   UNL     1       0.002  -0.004   0.002  0.00  0.00    +0.001 C 
ATOM     36  C   UNL     1       0.742  -0.511   1.242  0.00  0.00    +0.009 C 
ENDBRANCH  33  35
ENDBRANCH   1  33
TORSDOF 5
