REMARK  Name = ZINC39659548
REMARK  8 active torsions:
REMARK  status: ('A' for Active; 'I' for Inactive)
REMARK    1  A    between atoms: C_1  and  C_2
REMARK    2  A    between atoms: C_2  and  C_38
REMARK    3  A    between atoms: C_5  and  C_8
REMARK    4  A    between atoms: C_8  and  N_9
REMARK    5  A    between atoms: C_10  and  C_12
REMARK    6  A    between atoms: C_23  and  C_25
REMARK    7  A    between atoms: C_30  and  S_31
REMARK    8  A    between atoms: S_31  and  C_32
REMARK                            x       y       z     vdW  Elec       q    Type
REMARK                         _______ _______ _______ _____ _____    ______ ____
ROOT
ATOM      1  C   UNL     1       3.394  -1.507   5.773  0.00  0.00    +0.100 C 
ATOM      2  C   UNL     1       4.433  -0.390   5.527  0.00  0.00    +0.121 C 
ATOM      3  N   UNL     1       5.408  -0.534   6.634  0.00  0.00    -0.296 N 
ATOM      4  C   UNL     1       5.561  -2.000   6.801  0.00  0.00    +0.115 C 
ATOM      5  C   UNL     1       4.139  -2.562   6.609  0.00  0.00    -0.004 C 
ATOM      6  C   UNL     1       4.193  -3.888   5.857  0.00  0.00    -0.010 C 
ATOM      7  C   UNL     1       4.886  -4.937   6.732  0.00  0.00    -0.082 C 
ATOM      8  N   UNL     1       4.146  -5.094   7.990  0.00  0.00    +0.379 N 
ATOM      9  C   UNL     1       4.179  -3.838   8.750  0.00  0.00    -0.082 C 
ATOM     10  C   UNL     1       3.455  -2.743   7.960  0.00  0.00    -0.010 C 
ATOM     11  C   UNL     1       6.017   0.445   7.332  0.00  0.00    +0.249 C 
ATOM     12  O   UNL     1       6.870   0.166   8.152  0.00  0.00    -0.270 OA
ATOM     13  H   UNL     1       3.189  -5.338   7.788  0.00  0.00    -0.086 HD
ATOM     14  H   UNL     1       4.569  -5.828   8.538  0.00  0.00    -0.086 HD
ENDROOT
BRANCH  11  15
ATOM     15  C   UNL     1       5.649   1.853   7.100  0.00  0.00    +0.069 A 
ATOM     16  C   UNL     1       5.309   2.299   5.817  0.00  0.00    +0.017 A 
ATOM     17  C   UNL     1       4.970   3.630   5.652  0.00  0.00    +0.020 A 
ATOM     18  C   UNL     1       4.978   4.476   6.748  0.00  0.00    +0.112 A 
ATOM     19  N   UNL     1       5.301   4.038   7.948  0.00  0.00    -0.248 NA
ATOM     20  C   UNL     1       5.628   2.772   8.163  0.00  0.00    +0.114 A 
BRANCH  20  21
ATOM     21  S   UNL     1       6.045   2.239   9.790  0.00  0.00    -0.069 S 
BRANCH  21  22
ATOM     22  C   UNL     1       6.041   3.724  10.739  0.00  0.00    +0.014 A 
ATOM     23  C   UNL     1       4.902   4.098  11.442  0.00  0.00    +0.015 A 
ATOM     24  C   UNL     1       4.903   5.262  12.185  0.00  0.00    +0.001 A 
ATOM     25  C   UNL     1       6.035   6.055  12.230  0.00  0.00    +0.000 A 
ATOM     26  C   UNL     1       7.170   5.686  11.531  0.00  0.00    +0.001 A 
ATOM     27  C   UNL     1       7.178   4.520  10.791  0.00  0.00    +0.015 A 
ENDBRANCH  21  22
ENDBRANCH  20  21
ENDBRANCH  11  15
BRANCH   1  29
ATOM     28  N   UNL     1       1.705  -2.627   4.355  0.00  0.00    -0.312 N 
ATOM     29  C   UNL     1       2.940  -2.099   4.464  0.00  0.00    +0.218 C 
ATOM     30  O   UNL     1       3.687  -2.101   3.508  0.00  0.00    -0.275 OA
ATOM     31  H   UNL     1       1.108  -2.625   5.120  0.00  0.00    +0.149 HD
BRANCH  28  32
ATOM     32  C   UNL     1       1.264  -3.203   3.082  0.00  0.00    +0.138 C 
BRANCH  32  37
ATOM     33  C   UNL     1      -2.566  -5.220   4.581  0.00  0.00    +0.074 C 
ATOM     34  C   UNL     1      -1.372  -5.610   3.708  0.00  0.00    +0.165 C 
ATOM     35  O   UNL     1      -1.656  -5.301   2.337  0.00  0.00    -0.347 OA
ATOM     36  C   UNL     1      -0.668  -4.346   1.900  0.00  0.00    +0.196 C 
ATOM     37  C   UNL     1      -0.166  -3.728   3.228  0.00  0.00    +0.164 C 
ATOM     38  O   UNL     1      -0.211  -4.869   4.119  0.00  0.00    -0.342 OA
ATOM     39  C   UNL     1      -1.101  -7.109   3.848  0.00  0.00    +0.074 C 
ENDBRANCH  32  37
ENDBRANCH  28  32
ENDBRANCH   1  29
TORSDOF 6
