REMARK  Name = ZINC07004387
REMARK  12 active torsions:
REMARK  status: ('A' for Active; 'I' for Inactive)
REMARK    1  A    between atoms: C_1  and  C_2
REMARK    2  A    between atoms: C_2  and  O_3
REMARK    3  A    between atoms: O_3  and  C_4
REMARK    4  A    between atoms: C_4  and  C_6
REMARK    5  A    between atoms: C_7  and  C_29
REMARK    6  A    between atoms: C_13  and  C_17
REMARK    7  A    between atoms: C_17  and  C_19
REMARK    8  A    between atoms: C_17  and  N_53
REMARK    9  A    between atoms: C_20  and  N_53
REMARK   10  A    between atoms: C_21  and  C_22
REMARK   11  A    between atoms: C_21  and  N_53
REMARK   12  A    between atoms: C_25  and  C_28
REMARK                            x       y       z     vdW  Elec       q    Type
REMARK                         _______ _______ _______ _____ _____    ______ ____
ROOT
ATOM      1  C   UNL     1       1.897   5.377   0.013  0.00  0.00    +0.102 A 
ATOM      2  C   UNL     1       2.161   4.038   0.004  0.00  0.00    -0.015 A 
ATOM      3  C   UNL     1       1.108   3.122   0.008  0.00  0.00    +0.076 A 
ATOM      4  C   UNL     1       1.155   1.641  -0.000  0.00  0.00    +0.260 A 
ATOM      5  O   UNL     1       2.220   1.050  -0.014  0.00  0.00    -0.267 OA
ATOM      6  N   UNL     1      -0.011   0.966   0.007  0.00  0.00    -0.312 N 
ATOM      7  H   UNL     1       0.003  -0.034   0.006  0.00  0.00    +0.170 HD
ATOM      8  C   UNL     1      -1.202   1.613   0.017  0.00  0.00    +0.097 A 
ATOM      9  N   UNL     1      -1.279   2.917   0.031  0.00  0.00    -0.228 NA
ATOM     10  C   UNL     1      -0.192   3.678   0.024  0.00  0.00    +0.116 A 
ATOM     11  S   UNL     1       0.113   5.426   0.030  0.00  0.00    -0.062 S 
ATOM     12  C   UNL     1       3.587   3.550  -0.012  0.00  0.00    +0.046 C 
ENDROOT
BRANCH   1  13
ATOM     13  C   UNL     1       2.842   6.495   0.010  0.00  0.00    +0.346 C 
ATOM     14  O   UNL     1       4.039   6.280  -0.002  0.00  0.00    -0.244 OA
BRANCH  13  15
ATOM     15  O   UNL     1       2.385   7.765   0.021  0.00  0.00    -0.461 OA
BRANCH  15  17
ATOM     16  C   UNL     1       2.677  10.182   0.030  0.00  0.00    +0.048 C 
ATOM     17  C   UNL     1       3.379   8.823   0.017  0.00  0.00    +0.229 C 
ENDBRANCH  15  17
ENDBRANCH  13  15
ENDBRANCH   1  13
BRANCH   8  18
ATOM     18  C   UNL     1      -2.474   0.805   0.018  0.00  0.00    -0.004 C 
ATOM     19  C   UNL     1      -2.455  -0.173   1.195  0.00  0.00    -0.005 C 
BRANCH  18  21
ATOM     20  C   UNL     1      -3.567   2.457   1.411  0.00  0.00    -0.095 C 
ATOM     21  N   UNL     1      -3.626   1.726   0.128  0.00  0.00    +0.387 N 
ATOM     22  H   UNL     1      -3.586   2.403  -0.643  0.00  0.00    -0.081 HD
BRANCH  21  23
ATOM     23  C   UNL     1      -4.890   0.966   0.036  0.00  0.00    -0.042 C 
BRANCH  23  24
ATOM     24  C   UNL     1      -6.035   1.940  -0.071  0.00  0.00    -0.064 A 
ATOM     25  C   UNL     1      -6.673   2.385   1.071  0.00  0.00    +0.002 A 
ATOM     26  C   UNL     1      -7.721   3.282   0.973  0.00  0.00    +0.003 A 
ATOM     27  C   UNL     1      -8.137   3.725  -0.269  0.00  0.00    -0.050 A 
ATOM     28  C   UNL     1      -7.502   3.276  -1.412  0.00  0.00    +0.003 A 
ATOM     29  C   UNL     1      -6.452   2.383  -1.313  0.00  0.00    +0.002 A 
ATOM     30  C   UNL     1      -9.282   4.699  -0.376  0.00  0.00    +0.044 C 
ENDBRANCH  23  24
ENDBRANCH  21  23
ENDBRANCH  18  21
ENDBRANCH   8  18
TORSDOF 7
