REMARK  Name = ZINC37262702
REMARK  16 active torsions:
REMARK  status: ('A' for Active; 'I' for Inactive)
REMARK    1  A    between atoms: C_3  and  N_40
REMARK    2  A    between atoms: C_6  and  C_7
REMARK    3  A    between atoms: C_7  and  O_9
REMARK    4  A    between atoms: O_9  and  C_10
REMARK    5  A    between atoms: C_10  and  C_11
REMARK    6  A    between atoms: C_13  and  O_39
REMARK    7  A    between atoms: C_15  and  O_38
REMARK    8  A    between atoms: C_17  and  O_37
REMARK    9  A    between atoms: C_19  and  O_22
REMARK   10  A    between atoms: O_22  and  C_23
REMARK   11  A    between atoms: C_23  and  C_35
REMARK   12  A    between atoms: C_24  and  O_34
REMARK   13  A    between atoms: C_26  and  O_33
REMARK   14  A    between atoms: C_28  and  C_31
REMARK   15  A    between atoms: C_31  and  O_32
REMARK   16  A    between atoms: C_35  and  O_36
REMARK                            x       y       z     vdW  Elec       q    Type
REMARK                         _______ _______ _______ _____ _____    ______ ____
ROOT
ATOM      1  C   UNL     1      -2.344  -4.088   0.291  0.00  0.00    +0.190 C 
ATOM      2  C   UNL     1      -3.711  -4.776   0.319  0.00  0.00    +0.178 C 
ATOM      3  C   UNL     1      -3.511  -6.293   0.253  0.00  0.00    +0.179 C 
ATOM      4  C   UNL     1      -2.616  -6.730   1.418  0.00  0.00    +0.201 C 
ATOM      5  C   UNL     1      -1.292  -5.966   1.348  0.00  0.00    +0.285 C 
ATOM      6  O   UNL     1      -1.551  -4.561   1.382  0.00  0.00    -0.339 OA
ENDROOT
BRANCH   2   7
ATOM      7  O   UNL     1      -4.485  -4.347  -0.803  0.00  0.00    -0.386 OA
ATOM      8  H   UNL     1      -5.365  -4.744  -0.849  0.00  0.00    +0.210 HD
ENDBRANCH   2   7
BRANCH   3   9
ATOM      9  O   UNL     1      -2.889  -6.641  -0.986  0.00  0.00    -0.386 OA
ATOM     10  H   UNL     1      -2.732  -7.589  -1.095  0.00  0.00    +0.210 HD
ENDBRANCH   3   9
BRANCH   4  11
ATOM     11  O   UNL     1      -3.270  -6.443   2.656  0.00  0.00    -0.384 OA
ATOM     12  H   UNL     1      -2.759  -6.694   3.437  0.00  0.00    +0.210 HD
ENDBRANCH   4  11
BRANCH   5  13
ATOM     13  O   UNL     1      -0.474  -6.327   2.462  0.00  0.00    -0.313 OA
BRANCH  13  14
ATOM     14  C   UNL     1       0.926  -6.141   2.241  0.00  0.00    +0.225 C 
ATOM     15  C   UNL     1       1.725  -6.715   3.427  0.00  0.00    +0.207 C 
ATOM     16  C   UNL     1       2.571  -7.849   2.800  0.00  0.00    +0.179 C 
ATOM     17  C   UNL     1       1.789  -8.157   1.498  0.00  0.00    +0.178 C 
ATOM     18  O   UNL     1       1.334  -6.858   1.064  0.00  0.00    -0.336 OA
BRANCH  15  19
ATOM     19  O   UNL     1       2.570  -5.711   3.993  0.00  0.00    -0.384 OA
ATOM     20  H   UNL     1       3.096  -6.018   4.744  0.00  0.00    +0.210 HD
ENDBRANCH  15  19
BRANCH  16  21
ATOM     21  O   UNL     1       3.894  -7.396   2.506  0.00  0.00    -0.386 OA
ATOM     22  H   UNL     1       4.463  -8.071   2.112  0.00  0.00    +0.210 HD
ENDBRANCH  16  21
BRANCH  14  23
ATOM     23  C   UNL     1       1.232  -4.651   2.075  0.00  0.00    +0.223 C 
BRANCH  23  24
ATOM     24  O   UNL     1       0.628  -4.171   0.872  0.00  0.00    -0.390 OA
ATOM     25  H   UNL     1       0.845  -3.252   0.663  0.00  0.00    +0.210 HD
ENDBRANCH  23  24
ENDBRANCH  14  23
BRANCH  17  26
ATOM     26  C   UNL     1       2.711  -8.787   0.452  0.00  0.00    +0.190 C 
BRANCH  26  27
ATOM     27  O   UNL     1       1.944  -9.166  -0.692  0.00  0.00    -0.392 OA
ATOM     28  H   UNL     1       2.465  -9.573  -1.398  0.00  0.00    +0.210 HD
ENDBRANCH  26  27
ENDBRANCH  17  26
ENDBRANCH  13  14
ENDBRANCH   5  13
BRANCH   1  29
ATOM     29  C   UNL     1      -2.533  -2.574   0.417  0.00  0.00    +0.266 C 
BRANCH  29  30
ATOM     30  O   UNL     1      -1.269  -1.923   0.272  0.00  0.00    -0.458 OA
BRANCH  30  31
ATOM     31  C   UNL     1      -1.260  -0.579   0.358  0.00  0.00    +0.339 C 
ATOM     32  O   UNL     1      -2.297   0.025   0.550  0.00  0.00    -0.245 OA
BRANCH  31  38
ATOM     33  C   UNL     1       0.018   1.556   0.307  0.00  0.00    +0.017 A 
ATOM     34  C   UNL     1       1.199   2.241   0.177  0.00  0.00    +0.023 A 
ATOM     35  C   UNL     1       2.387   1.548  -0.043  0.00  0.00    +0.025 A 
ATOM     36  C   UNL     1       2.380   0.158  -0.132  0.00  0.00    +0.023 A 
ATOM     37  C   UNL     1       1.202  -0.532  -0.003  0.00  0.00    +0.017 A 
ATOM     38  C   UNL     1       0.007   0.161   0.218  0.00  0.00    +0.059 A 
BRANCH  35  39
ATOM     39  N   UNL     1       3.582   2.245  -0.174  0.00  0.00    -0.358 N 
ATOM     40  H   UNL     1       3.589   3.213  -0.113  0.00  0.00    +0.142 HD
ATOM     41  H   UNL     1       4.410   1.763  -0.327  0.00  0.00    +0.142 HD
ENDBRANCH  35  39
ENDBRANCH  31  38
ENDBRANCH  30  31
ENDBRANCH  29  30
ENDBRANCH   1  29
TORSDOF 16
