REMARK  Name = ZINC08828813
REMARK  5 active torsions:
REMARK  status: ('A' for Active; 'I' for Inactive)
REMARK    1  A    between atoms: C_6  and  C_7
REMARK    2  A    between atoms: C_10  and  C_12
REMARK    3  A    between atoms: N_13  and  N_14
REMARK    4  A    between atoms: N_14  and  C_15
REMARK    5  A    between atoms: C_15  and  N_17
REMARK                            x       y       z     vdW  Elec       q    Type
REMARK                         _______ _______ _______ _____ _____    ______ ____
ROOT
ATOM      1  C   UNL     1      -1.264  -0.762   0.011  0.00  0.00    +0.136 A 
ATOM      2  C   UNL     1      -1.377  -2.121   0.010  0.00  0.00    +0.050 A 
ATOM      3  C   UNL     1      -2.746  -2.420   0.021  0.00  0.00    +0.051 A 
ATOM      4  C   UNL     1      -3.416  -1.217   0.027  0.00  0.00    +0.148 A 
ATOM      5  O   UNL     1      -2.500  -0.227   0.026  0.00  0.00    -0.454 OA
ENDROOT
BRANCH   1  11
ATOM      6  C   UNL     1      -0.017   1.393   0.010  0.00  0.00    +0.013 A 
ATOM      7  C   UNL     1       1.170   2.096   0.002  0.00  0.00    +0.022 A 
ATOM      8  C   UNL     1       2.378   1.421  -0.013  0.00  0.00    +0.059 A 
ATOM      9  C   UNL     1       2.405   0.035  -0.021  0.00  0.00    +0.060 A 
ATOM     10  C   UNL     1       1.224  -0.680  -0.013  0.00  0.00    +0.033 A 
ATOM     11  C   UNL     1       0.002  -0.004   0.002  0.00  0.00    +0.019 A 
ATOM     12 CL   UNL     1       3.925  -0.803  -0.041  0.00  0.00    -0.082 Cl
ATOM     13 CL   UNL     1       3.867   2.314  -0.024  0.00  0.00    -0.082 Cl
ENDBRANCH   1  11
BRANCH   4  14
ATOM     14  C   UNL     1      -4.870  -1.042   0.039  0.00  0.00    +0.176 C 
ATOM     15  N   UNL     1      -5.382   0.154   0.045  0.00  0.00    -0.185 NA
BRANCH  15  16
ATOM     16  N   UNL     1      -6.773   0.321   0.056  0.00  0.00    -0.218 N 
ATOM     17  H   UNL     1      -7.355  -0.455   0.060  0.00  0.00    +0.176 HD
BRANCH  16  18
ATOM     18  C   UNL     1      -7.303   1.561   0.062  0.00  0.00    +0.147 C 
ATOM     19  S   UNL     1      -9.003   1.765   0.076  0.00  0.00    -0.017 S 
BRANCH  18  20
ATOM     20  N   UNL     1      -6.495   2.639   0.057  0.00  0.00    -0.339 N 
ATOM     21  H   UNL     1      -5.532   2.524   0.049  0.00  0.00    +0.144 HD
ATOM     22  H   UNL     1      -6.876   3.531   0.061  0.00  0.00    +0.144 HD
ENDBRANCH  18  20
ENDBRANCH  16  18
ENDBRANCH  15  16
ENDBRANCH   4  14
TORSDOF 5
