REMARK  Name = ZINC08964648
REMARK  10 active torsions:
REMARK  status: ('A' for Active; 'I' for Inactive)
REMARK    1  A    between atoms: C_1  and  C_2
REMARK    2  A    between atoms: C_2  and  C_3
REMARK    3  A    between atoms: C_2  and  C_4
REMARK    4  A    between atoms: C_7  and  N_10
REMARK    5  A    between atoms: C_13  and  C_14
REMARK    6  A    between atoms: N_15  and  C_16
REMARK    7  A    between atoms: C_16  and  C_17
REMARK    8  A    between atoms: C_24  and  O_25
REMARK    9  A    between atoms: O_25  and  C_26
REMARK   10  A    between atoms: C_32  and  N_67
REMARK                            x       y       z     vdW  Elec       q    Type
REMARK                         _______ _______ _______ _____ _____    ______ ____
ROOT
ATOM      1  C   UNL     1      -1.127   6.007   0.083  0.00  0.00    +0.099 C 
ATOM      2  N   UNL     1      -1.474   4.793   0.556  0.00  0.00    -0.296 NA
ENDROOT
BRANCH   1   6
ATOM      3  N   UNL     1      -2.630   5.933  -3.288  0.00  0.00    -0.221 N 
ATOM      4  C   UNL     1      -2.306   5.500  -2.053  0.00  0.00    +0.243 C 
ATOM      5  O   UNL     1      -2.681   4.413  -1.653  0.00  0.00    -0.274 OA
ATOM      6  C   UNL     1      -1.492   6.381  -1.197  0.00  0.00    +0.202 C 
ATOM      7  C   UNL     1      -1.078   7.675  -1.768  0.00  0.00    +0.236 C 
ATOM      8  O   UNL     1      -0.401   8.454  -1.124  0.00  0.00    -0.274 OA
ATOM      9  N   UNL     1      -1.471   7.973  -3.023  0.00  0.00    -0.266 N 
ATOM     10  C   UNL     1      -2.218   7.124  -3.744  0.00  0.00    +0.150 C 
ATOM     11  S   UNL     1      -2.670   7.587  -5.329  0.00  0.00    -0.018 S 
ATOM     12  H   UNL     1      -1.207   8.821  -3.414  0.00  0.00    +0.157 HD
BRANCH   3  16
ATOM     13  C   UNL     1      -4.946   3.500  -5.756  0.00  0.00    -0.045 A 
ATOM     14  C   UNL     1      -3.576   3.321  -5.701  0.00  0.00    +0.006 A 
ATOM     15  C   UNL     1      -2.805   4.126  -4.884  0.00  0.00    +0.024 A 
ATOM     16  C   UNL     1      -3.408   5.115  -4.118  0.00  0.00    +0.043 A 
ATOM     17  C   UNL     1      -4.785   5.288  -4.171  0.00  0.00    +0.024 A 
ATOM     18  C   UNL     1      -5.549   4.484  -4.995  0.00  0.00    +0.006 A 
BRANCH  13  20
ATOM     19  C   UNL     1      -6.804   1.859  -5.801  0.00  0.00    +0.012 C 
ATOM     20  C   UNL     1      -5.783   2.620  -6.648  0.00  0.00    +0.013 C 
ATOM     21  C   UNL     1      -6.517   3.486  -7.675  0.00  0.00    +0.012 C 
ENDBRANCH  13  20
ENDBRANCH   3  16
ENDBRANCH   1   6
BRANCH   2  22
ATOM     22  C   UNL     1      -1.088   4.397   1.912  0.00  0.00    +0.130 C 
BRANCH  22  23
ATOM     23  C   UNL     1      -1.498   2.944   2.156  0.00  0.00    -0.012 C 
ATOM     24  C   UNL     1      -2.998   2.829   2.071  0.00  0.00    -0.011 A 
ATOM     25  C   UNL     1      -3.611   1.779   1.421  0.00  0.00    -0.040 A 
ATOM     26  C   UNL     1      -4.995   1.706   1.376  0.00  0.00    +0.053 A 
ATOM     27  C   UNL     1      -5.771   2.683   1.977  0.00  0.00    +0.170 A 
ATOM     28  C   UNL     1      -5.156   3.746   2.630  0.00  0.00    +0.208 A 
ATOM     29  C   UNL     1      -3.771   3.816   2.675  0.00  0.00    +0.167 A 
ATOM     30  O   UNL     1      -6.124   4.568   3.134  0.00  0.00    -0.449 OA
ATOM     31  C   UNL     1      -7.331   3.784   3.136  0.00  0.00    +0.467 C 
ATOM     32  O   UNL     1      -7.124   2.836   2.071  0.00  0.00    -0.452 OA
ATOM     33  C   UNL     1      -2.814   0.691   0.749  0.00  0.00    +0.017 C 
ATOM     34  C   UNL     1      -1.372   0.711   1.257  0.00  0.00    -0.074 C 
ATOM     35  C   UNL     1       0.603   2.115   1.290  0.00  0.00    -0.095 C 
ATOM     36  N   UNL     1      -0.868   2.094   1.132  0.00  0.00    +0.384 N 
ATOM     37  H   UNL     1      -1.108   2.456   0.201  0.00  0.00    -0.081 HD
BRANCH  29  38
ATOM     38  O   UNL     1      -3.166   4.854   3.311  0.00  0.00    -0.491 OA
ATOM     39  C   UNL     1      -2.994   4.737   4.725  0.00  0.00    +0.277 C 
ENDBRANCH  29  38
ENDBRANCH  22  23
ENDBRANCH   2  22
TORSDOF 6
