REMARK  Name = ZINC43217832
REMARK  8 active torsions:
REMARK  status: ('A' for Active; 'I' for Inactive)
REMARK    1  A    between atoms: C_1  and  C_2
REMARK    2  A    between atoms: C_2  and  C_4
REMARK    3  A    between atoms: C_2  and  N_14
REMARK    4  A    between atoms: C_15  and  C_17
REMARK    5  A    between atoms: C_20  and  C_22
REMARK    6  A    between atoms: C_22  and  C_24
REMARK    7  A    between atoms: C_22  and  N_35
REMARK    8  A    between atoms: C_24  and  C_25
REMARK                            x       y       z     vdW  Elec       q    Type
REMARK                         _______ _______ _______ _____ _____    ______ ____
ROOT
ATOM      1  C   UNL     1       2.857  -1.262   2.166  0.00  0.00    +0.163 A 
ATOM      2  C   UNL     1       4.211  -1.353   2.267  0.00  0.00    +0.230 A 
ATOM      3  O   UNL     1       4.476  -1.985   3.421  0.00  0.00    -0.449 OA
ATOM      4  C   UNL     1       3.311  -2.276   4.017  0.00  0.00    +0.182 A 
ATOM      5  N   UNL     1       2.333  -1.844   3.279  0.00  0.00    -0.210 NA
ENDROOT
BRANCH   1   7
ATOM      6  N   UNL     1       0.754  -0.619   1.099  0.00  0.00    -0.303 N 
ATOM      7  C   UNL     1       2.101  -0.643   1.062  0.00  0.00    +0.266 C 
ATOM      8  O   UNL     1       2.692  -0.154   0.119  0.00  0.00    -0.268 OA
ATOM      9  H   UNL     1       0.282  -1.009   1.851  0.00  0.00    +0.150 HD
BRANCH   6  11
ATOM     10  C   UNL     1      -0.150   1.495   0.266  0.00  0.00    +0.033 C 
ATOM     11  C   UNL     1       0.002  -0.004   0.002  0.00  0.00    +0.101 C 
BRANCH  11  12
ATOM     12  C   UNL     1      -1.362  -0.638  -0.090  0.00  0.00    -0.020 A 
ATOM     13  C   UNL     1      -1.935  -1.192   1.014  0.00  0.00    +0.006 A 
ATOM     14  C   UNL     1      -3.195  -1.783   0.948  0.00  0.00    +0.001 A 
ATOM     15  C   UNL     1      -3.889  -1.824  -0.222  0.00  0.00    +0.008 A 
ATOM     16  C   UNL     1      -3.330  -1.263  -1.382  0.00  0.00    -0.018 A 
ATOM     17  C   UNL     1      -2.051  -0.657  -1.314  0.00  0.00    -0.013 A 
ATOM     18  C   UNL     1      -1.495  -0.090  -2.474  0.00  0.00    +0.009 A 
ATOM     19  C   UNL     1      -2.192  -0.127  -3.642  0.00  0.00    +0.001 A 
ATOM     20  C   UNL     1      -3.452  -0.717  -3.708  0.00  0.00    +0.001 A 
ATOM     21  C   UNL     1      -4.017  -1.288  -2.608  0.00  0.00    +0.008 A 
ENDBRANCH  11  12
ENDBRANCH   6  11
ENDBRANCH   1   7
BRANCH   4  22
ATOM     22  C   UNL     1       3.160  -2.987   5.337  0.00  0.00    +0.017 C 
BRANCH  22  23
ATOM     23  N   UNL     1       4.061  -4.147   5.375  0.00  0.00    +0.386 N 
ATOM     24  H   UNL     1       5.015  -3.835   5.268  0.00  0.00    -0.089 HD
ATOM     25  H   UNL     1       3.960  -4.623   6.258  0.00  0.00    -0.089 HD
ATOM     26  H   UNL     1       3.828  -4.779   4.623  0.00  0.00    -0.089 HD
ENDBRANCH  22  23
BRANCH  22  27
ATOM     27  C   UNL     1       3.513  -2.029   6.476  0.00  0.00    +0.030 C 
BRANCH  27  28
ATOM     28  C   UNL     1       3.244  -2.700   7.798  0.00  0.00    -0.023 A 
ATOM     29  C   UNL     1       2.124  -2.600   8.531  0.00  0.00    +0.087 A 
ATOM     30  N   UNL     1       2.244  -3.349   9.670  0.00  0.00    -0.360 N 
ATOM     31  H   UNL     1       1.563  -3.433  10.356  0.00  0.00    +0.165 HD
ATOM     32  C   UNL     1       3.475  -3.964   9.699  0.00  0.00    +0.047 A 
ATOM     33  C   UNL     1       4.154  -3.590   8.525  0.00  0.00    +0.003 A 
ATOM     34  C   UNL     1       5.440  -4.074   8.279  0.00  0.00    +0.010 A 
ATOM     35  C   UNL     1       6.033  -4.913   9.180  0.00  0.00    +0.001 A 
ATOM     36  C   UNL     1       5.366  -5.288  10.338  0.00  0.00    +0.002 A 
ATOM     37  C   UNL     1       4.100  -4.815  10.605  0.00  0.00    +0.026 A 
ENDBRANCH  27  28
ENDBRANCH  22  27
ENDBRANCH   4  22
TORSDOF 7
