REMARK  Name = ZINC64871228
REMARK  10 active torsions:
REMARK  status: ('A' for Active; 'I' for Inactive)
REMARK    1  A    between atoms: C_1  and  C_2
REMARK    2  A    between atoms: C_2  and  O_3
REMARK    3  A    between atoms: O_3  and  C_4
REMARK    4  A    between atoms: C_7  and  C_12
REMARK    5  A    between atoms: C_9  and  O_10
REMARK    6  A    between atoms: O_10  and  C_11
REMARK    7  A    between atoms: C_15  and  C_19
REMARK    8  A    between atoms: N_29  and  C_32
REMARK    9  A    between atoms: C_32  and  C_33
REMARK   10  A    between atoms: C_33  and  C_34
REMARK                            x       y       z     vdW  Elec       q    Type
REMARK                         _______ _______ _______ _____ _____    ______ ____
ROOT
ATOM      1  C   UNL     1      -1.238  -8.783   1.757  0.00  0.00    -0.000 A 
ATOM      2  C   UNL     1      -0.593  -9.441   0.721  0.00  0.00    +0.008 A 
ATOM      3  C   UNL     1      -1.072 -10.647   0.254  0.00  0.00    +0.016 A 
ATOM      4  C   UNL     1      -2.212 -11.201   0.830  0.00  0.00    +0.063 A 
ATOM      5  C   UNL     1      -2.865 -10.534   1.881  0.00  0.00    +0.056 A 
ATOM      6  C   UNL     1      -2.365  -9.325   2.341  0.00  0.00    +0.034 A 
ATOM      7  N   UNL     1      -3.999 -11.110   2.436  0.00  0.00    -0.307 N 
ATOM      8  H   UNL     1      -4.460 -10.661   3.161  0.00  0.00    +0.170 HD
ATOM      9  C   UNL     1      -4.464 -12.285   1.978  0.00  0.00    +0.330 A 
ATOM     10  O   UNL     1      -5.460 -12.757   2.492  0.00  0.00    -0.246 OA
ATOM     11  N   UNL     1      -3.876 -12.961   0.979  0.00  0.00    -0.260 N 
ATOM     12  C   UNL     1      -2.767 -12.487   0.369  0.00  0.00    +0.264 A 
ATOM     13  O   UNL     1      -2.240 -13.105  -0.535  0.00  0.00    -0.267 OA
ENDROOT
BRANCH   1  16
ATOM     14  C   UNL     1       1.142  -6.064   1.761  0.00  0.00    +0.180 C 
ATOM     15  N   UNL     1      -0.028  -6.736   1.156  0.00  0.00    -0.265 NA
ATOM     16  C   UNL     1      -0.699  -7.467   2.255  0.00  0.00    +0.242 C 
ATOM     17  O   UNL     1       0.338  -7.684   3.239  0.00  0.00    -0.274 OA
ATOM     18  N   UNL     1       1.122  -6.429   3.197  0.00  0.00    -0.177 NA
ATOM     19  H   UNL     1      -0.652  -6.064   0.735  0.00  0.00    +0.127 HD
ATOM     20  H   UNL     1       0.680  -5.708   3.747  0.00  0.00    +0.156 HD
BRANCH  14  24
ATOM     21  C   UNL     1       0.802  -1.825   1.306  0.00  0.00    +0.162 A 
ATOM     22  C   UNL     1       0.261  -2.673   0.353  0.00  0.00    +0.050 A 
ATOM     23  C   UNL     1       0.372  -4.043   0.502  0.00  0.00    +0.010 A 
ATOM     24  C   UNL     1       1.024  -4.570   1.602  0.00  0.00    -0.010 A 
ATOM     25  C   UNL     1       1.566  -3.730   2.557  0.00  0.00    +0.056 A 
ATOM     26  C   UNL     1       1.462  -2.356   2.410  0.00  0.00    +0.162 A 
BRANCH  26  27
ATOM     27  O   UNL     1       2.000  -1.528   3.345  0.00  0.00    -0.491 OA
ATOM     28  C   UNL     1       2.664  -2.143   4.451  0.00  0.00    +0.277 C 
ENDBRANCH  26  27
BRANCH  21  29
ATOM     29  O   UNL     1       0.693  -0.477   1.160  0.00  0.00    -0.489 OA
BRANCH  29  31
ATOM     30  C   UNL     1      -0.019   1.526   0.010  0.00  0.00    +0.048 C 
ATOM     31  C   UNL     1       0.002  -0.004   0.002  0.00  0.00    +0.226 C 
ENDBRANCH  29  31
ENDBRANCH  21  29
ENDBRANCH  14  24
ENDBRANCH   1  16
BRANCH  11  32
ATOM     32  C   UNL     1      -4.447 -14.236   0.540  0.00  0.00    +0.134 C 
BRANCH  32  33
ATOM     33  C   UNL     1      -5.470 -13.982  -0.569  0.00  0.00    +0.057 C 
BRANCH  33  34
ATOM     34  C   UNL     1      -6.058 -15.294  -1.021  0.00  0.00    -0.046 A 
ATOM     35  C   UNL     1      -5.460 -16.003  -2.046  0.00  0.00    +0.004 A 
ATOM     36  C   UNL     1      -5.999 -17.207  -2.460  0.00  0.00    +0.000 A 
ATOM     37  C   UNL     1      -7.136 -17.701  -1.849  0.00  0.00    +0.000 A 
ATOM     38  C   UNL     1      -7.734 -16.992  -0.824  0.00  0.00    +0.000 A 
ATOM     39  C   UNL     1      -7.192 -15.791  -0.406  0.00  0.00    +0.004 A 
ENDBRANCH  33  34
ENDBRANCH  32  33
ENDBRANCH  11  32
TORSDOF 8
