REMARK  Name = ZINC03227115
REMARK  10 active torsions:
REMARK  status: ('A' for Active; 'I' for Inactive)
REMARK    1  A    between atoms: C_4  and  C_7
REMARK    2  A    between atoms: C_7  and  C_9
REMARK    3  A    between atoms: C_7  and  S_21
REMARK    4  A    between atoms: C_9  and  N_10
REMARK    5  A    between atoms: N_10  and  S_11
REMARK    6  A    between atoms: S_11  and  C_14
REMARK    7  A    between atoms: S_21  and  C_22
REMARK    8  A    between atoms: N_26  and  N_27
REMARK    9  A    between atoms: C_28  and  C_29
REMARK   10  A    between atoms: C_33  and  N_35
REMARK                            x       y       z     vdW  Elec       q    Type
REMARK                         _______ _______ _______ _____ _____    ______ ____
ROOT
ATOM      1  C   UNL     1      -4.831   9.261   0.095  0.00  0.00    +0.100 C 
ENDROOT
BRANCH   1   5
ATOM      2  C   UNL     1      -3.930  11.284   3.748  0.00  0.00    +0.000 A 
ATOM      3  C   UNL     1      -3.577  11.852   2.537  0.00  0.00    +0.000 A 
ATOM      4  C   UNL     1      -3.869  11.197   1.355  0.00  0.00    +0.005 A 
ATOM      5  C   UNL     1      -4.513   9.974   1.384  0.00  0.00    -0.033 A 
ATOM      6  C   UNL     1      -4.871   9.409   2.594  0.00  0.00    +0.005 A 
ATOM      7  C   UNL     1      -4.575  10.062   3.776  0.00  0.00    +0.000 A 
ENDBRANCH   1   5
BRANCH   1   8
ATOM      8  C   UNL     1      -6.344   9.061  -0.017  0.00  0.00    +0.125 C 
BRANCH   8   9
ATOM      9  N   UNL     1      -6.653   8.367  -1.270  0.00  0.00    -0.189 NA
ATOM     10  H   UNL     1      -5.983   8.305  -1.968  0.00  0.00    +0.148 HD
BRANCH   9  11
ATOM     11  S   UNL     1      -8.147   7.688  -1.493  0.00  0.00    +0.058 S 
ATOM     12  O   UNL     1      -8.146   7.122  -2.797  0.00  0.00    -0.153 OA
ATOM     13  O   UNL     1      -8.423   6.920  -0.330  0.00  0.00    -0.153 OA
BRANCH  11  14
ATOM     14  C   UNL     1      -9.319   9.004  -1.517  0.00  0.00    +0.105 A 
ATOM     15  C   UNL     1      -9.916   9.419  -0.341  0.00  0.00    +0.030 A 
ATOM     16  C   UNL     1     -10.831  10.455  -0.358  0.00  0.00    +0.022 A 
ATOM     17  C   UNL     1     -11.158  11.069  -1.554  0.00  0.00    +0.041 A 
ATOM     18  C   UNL     1     -10.564  10.649  -2.732  0.00  0.00    +0.022 A 
ATOM     19  C   UNL     1      -9.645   9.617  -2.712  0.00  0.00    +0.030 A 
ATOM     20 CL   UNL     1     -12.311  12.366  -1.578  0.00  0.00    -0.084 Cl
ENDBRANCH  11  14
ENDBRANCH   9  11
ENDBRANCH   8   9
ENDBRANCH   1   8
BRANCH   1  21
ATOM     21  S   UNL     1      -4.007   7.649   0.079  0.00  0.00    -0.075 S 
BRANCH  21  22
ATOM     22  C   UNL     1      -2.323   8.167   0.066  0.00  0.00    +0.212 A 
ATOM     23  N   UNL     1      -1.886   9.405   0.068  0.00  0.00    -0.121 NA
ATOM     24  N   UNL     1      -0.601   9.417   0.056  0.00  0.00    -0.135 NA
ATOM     25  C   UNL     1      -0.141   8.197   0.050  0.00  0.00    +0.249 A 
ATOM     26  N   UNL     1      -1.221   7.354   0.051  0.00  0.00    -0.194 N 
BRANCH  26  27
ATOM     27  N   UNL     1      -1.202   5.953   0.044  0.00  0.00    -0.171 NA
ATOM     28  C   UNL     1      -0.070   5.320   0.030  0.00  0.00    +0.141 C 
BRANCH  28  29
ATOM     29  C   UNL     1      -0.050   3.845   0.023  0.00  0.00    -0.003 A 
ATOM     30  C   UNL     1      -1.248   3.127   0.031  0.00  0.00    +0.009 A 
ATOM     31  C   UNL     1      -1.222   1.748   0.017  0.00  0.00    +0.003 A 
ATOM     32  C   UNL     1      -0.013   1.076   0.008  0.00  0.00    +0.033 A 
ATOM     33  C   UNL     1       1.178   1.780   0.000  0.00  0.00    +0.127 A 
ATOM     34  C   UNL     1       1.167   3.160   0.007  0.00  0.00    +0.042 A 
BRANCH  33  35
ATOM     35  N   UNL     1       2.467   1.053  -0.016  0.00  0.00    +0.056 N 
ATOM     36  O   UNL     1       2.478  -0.165  -0.022  0.00  0.00    -0.126 OA
ATOM     37  O   UNL     1       3.516   1.672  -0.022  0.00  0.00    -0.126 OA
ENDBRANCH  33  35
ENDBRANCH  28  29
ENDBRANCH  26  27
ENDBRANCH  21  22
ENDBRANCH   1  21
TORSDOF 10
