REMARK  Name = ZINC39657740
REMARK  11 active torsions:
REMARK  status: ('A' for Active; 'I' for Inactive)
REMARK    1  A    between atoms: C_1  and  S_2
REMARK    2  A    between atoms: S_2  and  C_3
REMARK    3  A    between atoms: C_3  and  C_4
REMARK    4  A    between atoms: C_4  and  C_5
REMARK    5  A    between atoms: C_9  and  C_18
REMARK    6  A    between atoms: N_20  and  C_21
REMARK    7  A    between atoms: C_21  and  C_22
REMARK    8  A    between atoms: C_27  and  S_28
REMARK    9  A    between atoms: S_28  and  C_29
REMARK   10  A    between atoms: C_34  and  C_35
REMARK   11  A    between atoms: C_35  and  O_36
REMARK                            x       y       z     vdW  Elec       q    Type
REMARK                         _______ _______ _______ _____ _____    ______ ____
ROOT
ATOM      1  C   UNL     1      -4.516  -7.769   0.803  0.00  0.00    +0.218 C 
ATOM      2  O   UNL     1      -4.845  -8.394  -0.183  0.00  0.00    -0.275 OA
ATOM      3  N   UNL     1      -3.249  -7.844   1.257  0.00  0.00    -0.311 N 
ATOM      4  H   UNL     1      -2.987  -7.345   2.046  0.00  0.00    +0.149 HD
ENDROOT
BRANCH   1   9
ATOM      5  C   UNL     1      -8.709  -5.226   1.146  0.00  0.00    +0.216 C 
ATOM      6  O   UNL     1      -9.759  -5.376   1.733  0.00  0.00    -0.276 OA
ATOM      7  N   UNL     1      -7.786  -6.208   1.153  0.00  0.00    -0.300 N 
ATOM      8  C   UNL     1      -6.453  -6.207   0.505  0.00  0.00    +0.121 C 
ATOM      9  C   UNL     1      -5.524  -6.910   1.521  0.00  0.00    +0.100 C 
ATOM     10  C   UNL     1      -6.463  -7.780   2.374  0.00  0.00    -0.004 C 
ATOM     11  C   UNL     1      -7.872  -7.531   1.817  0.00  0.00    +0.115 C 
ATOM     12  C   UNL     1      -6.397  -7.351   3.837  0.00  0.00    -0.010 C 
ATOM     13  C   UNL     1      -7.295  -8.267   4.673  0.00  0.00    -0.082 C 
ATOM     14  N   UNL     1      -6.847  -9.657   4.530  0.00  0.00    +0.379 N 
ATOM     15  C   UNL     1      -7.001 -10.092   3.136  0.00  0.00    -0.082 C 
ATOM     16  C   UNL     1      -6.091  -9.252   2.234  0.00  0.00    -0.010 C 
ATOM     17  H   UNL     1      -5.876  -9.726   4.797  0.00  0.00    -0.086 HD
ATOM     18  H   UNL     1      -7.401 -10.251   5.129  0.00  0.00    -0.086 HD
BRANCH   5  19
ATOM     19  C   UNL     1      -8.435  -3.941   0.408  0.00  0.00    +0.106 C 
BRANCH  19  20
ATOM     20  C   UNL     1      -9.634  -3.002   0.557  0.00  0.00    +0.078 C 
BRANCH  20  22
ATOM     21  C   UNL     1     -10.802  -0.466  -0.060  0.00  0.00    +0.084 C 
ATOM     22  S   UNL     1      -9.305  -1.455  -0.331  0.00  0.00    -0.164 S 
ENDBRANCH  20  22
ENDBRANCH  19  20
ENDBRANCH   5  19
ENDBRANCH   1   9
BRANCH   3  23
ATOM     23  C   UNL     1      -2.269  -8.680   0.559  0.00  0.00    +0.140 C 
BRANCH  23  24
ATOM     24  C   UNL     1      -0.940  -8.590   1.264  0.00  0.00    -0.017 A 
ATOM     25  C   UNL     1       0.048  -7.759   0.772  0.00  0.00    +0.006 A 
ATOM     26  C   UNL     1       1.268  -7.676   1.418  0.00  0.00    +0.000 A 
ATOM     27  C   UNL     1       1.504  -8.424   2.557  0.00  0.00    +0.001 A 
ATOM     28  C   UNL     1       0.521  -9.256   3.054  0.00  0.00    +0.015 A 
ATOM     29  C   UNL     1      -0.709  -9.338   2.411  0.00  0.00    +0.017 A 
BRANCH  29  30
ATOM     30  S   UNL     1      -1.968 -10.394   3.046  0.00  0.00    -0.089 S 
BRANCH  30  31
ATOM     31  C   UNL     1      -1.302 -10.987   4.565  0.00  0.00    +0.018 A 
ATOM     32  C   UNL     1      -1.156 -10.124   5.646  0.00  0.00    +0.015 A 
ATOM     33  C   UNL     1      -0.634 -10.593   6.835  0.00  0.00    +0.001 A 
ATOM     34  C   UNL     1      -0.256 -11.918   6.952  0.00  0.00    +0.000 A 
ATOM     35  C   UNL     1      -0.399 -12.779   5.879  0.00  0.00    +0.007 A 
ATOM     36  C   UNL     1      -0.927 -12.319   4.688  0.00  0.00    -0.008 A 
BRANCH  36  37
ATOM     37  C   UNL     1      -1.089 -13.259   3.522  0.00  0.00    +0.192 C 
BRANCH  37  38
ATOM     38  O   UNL     1      -0.636 -14.563   3.894  0.00  0.00    -0.390 OA
ATOM     39  H   UNL     1      -0.712 -15.221   3.190  0.00  0.00    +0.210 HD
ENDBRANCH  37  38
ENDBRANCH  36  37
ENDBRANCH  30  31
ENDBRANCH  29  30
ENDBRANCH  23  24
ENDBRANCH   3  23
TORSDOF 10
