REMARK  Name = ZINC58481209
REMARK  6 active torsions:
REMARK  status: ('A' for Active; 'I' for Inactive)
REMARK    1  A    between atoms: C_1  and  C_2
REMARK    2  A    between atoms: C_5  and  N_8
REMARK    3  A    between atoms: C_9  and  C_11
REMARK    4  A    between atoms: C_11  and  C_26
REMARK    5  A    between atoms: C_12  and  C_13
REMARK    6  A    between atoms: C_18  and  C_19
REMARK                            x       y       z     vdW  Elec       q    Type
REMARK                         _______ _______ _______ _____ _____    ______ ____
ROOT
ATOM      1  C   UNL     1      -0.074  -6.370   1.154  0.00  0.00    +0.114 C 
ATOM      2  C   UNL     1       0.320  -7.016   2.309  0.00  0.00    +0.035 C 
ENDROOT
BRANCH   2   3
ATOM      3  C   UNL     1       0.317  -6.301   3.583  0.00  0.00    +0.021 A 
ATOM      4  C   UNL     1       0.770  -5.011   3.814  0.00  0.00    +0.113 A 
ATOM      5  N   UNL     1       0.587  -4.739   5.114  0.00  0.00    -0.284 N 
ATOM      6  H   UNL     1       0.818  -3.902   5.548  0.00  0.00    +0.188 HD
ATOM      7  N   UNL     1       0.014  -5.843   5.752  0.00  0.00    -0.173 NA
ATOM      8  C   UNL     1      -0.172  -6.802   4.875  0.00  0.00    +0.100 A 
BRANCH   8   9
ATOM      9  C   UNL     1      -0.760  -8.136   5.138  0.00  0.00    +0.003 A 
ATOM     10  C   UNL     1      -1.543  -8.759   4.166  0.00  0.00    +0.013 A 
ATOM     11  C   UNL     1      -2.088 -10.002   4.415  0.00  0.00    +0.039 A 
ATOM     12  C   UNL     1      -1.858 -10.631   5.629  0.00  0.00    +0.123 A 
ATOM     13  C   UNL     1      -1.081 -10.016   6.597  0.00  0.00    +0.039 A 
ATOM     14  C   UNL     1      -0.527  -8.776   6.354  0.00  0.00    +0.013 A 
ATOM     15  F   UNL     1      -2.395 -11.848   5.869  0.00  0.00    -0.205 F 
ENDBRANCH   8   9
ENDBRANCH   2   3
BRANCH   1  17
ATOM     16  N   UNL     1      -0.928  -4.342   0.100  0.00  0.00    -0.281 N 
ATOM     17  C   UNL     1      -0.677  -5.033   1.229  0.00  0.00    +0.259 C 
ATOM     18  O   UNL     1      -0.951  -4.549   2.312  0.00  0.00    -0.269 OA
ATOM     19  H   UNL     1      -0.769  -4.752  -0.765  0.00  0.00    +0.155 HD
BRANCH  16  24
ATOM     20  C   UNL     1      -2.917   0.962   0.400  0.00  0.00    +0.044 C 
ATOM     21  C   UNL     1      -2.388  -0.447   0.320  0.00  0.00    -0.050 A 
ATOM     22  C   UNL     1      -1.506  -0.797  -0.686  0.00  0.00    +0.005 A 
ATOM     23  C   UNL     1      -1.020  -2.088  -0.762  0.00  0.00    +0.023 A 
ATOM     24  C   UNL     1      -1.418  -3.034   0.174  0.00  0.00    +0.034 A 
ATOM     25  C   UNL     1      -2.304  -2.679   1.183  0.00  0.00    +0.023 A 
ATOM     26  C   UNL     1      -2.782  -1.385   1.256  0.00  0.00    +0.005 A 
ENDBRANCH  16  24
ENDBRANCH   1  17
BRANCH   1  27
ATOM     27  C   UNL     1       0.106  -7.004  -0.118  0.00  0.00    +0.104 C 
ATOM     28  N   UNL     1       0.249  -7.507  -1.126  0.00  0.00    -0.191 NA
ENDBRANCH   1  27
TORSDOF 5
