REMARK  Name = ZINC55542360
REMARK  8 active torsions:
REMARK  status: ('A' for Active; 'I' for Inactive)
REMARK    1  A    between atoms: C_1  and  C_2
REMARK    2  A    between atoms: C_2  and  C_4
REMARK    3  A    between atoms: C_2  and  N_13
REMARK    4  A    between atoms: C_14  and  C_16
REMARK    5  A    between atoms: C_16  and  C_18
REMARK    6  A    between atoms: C_16  and  N_21
REMARK    7  A    between atoms: C_18  and  C_19
REMARK    8  A    between atoms: C_18  and  C_20
REMARK                            x       y       z     vdW  Elec       q    Type
REMARK                         _______ _______ _______ _____ _____    ______ ____
ROOT
ATOM      1  N   UNL     1       0.688  -0.476  -1.203  0.00  0.00    -0.307 N 
ATOM      2  C   UNL     1       2.031  -0.587  -1.215  0.00  0.00    +0.234 C 
ATOM      3  O   UNL     1       2.672  -0.295  -0.228  0.00  0.00    -0.274 OA
ATOM      4  H   UNL     1       0.175  -0.710  -1.993  0.00  0.00    +0.149 HD
ENDROOT
BRANCH   1   6
ATOM      5  C   UNL     1      -0.019   1.526   0.010  0.00  0.00    +0.033 C 
ATOM      6  C   UNL     1       0.002  -0.004   0.002  0.00  0.00    +0.100 C 
BRANCH   6   7
ATOM      7  C   UNL     1      -1.412  -0.526   0.013  0.00  0.00    -0.024 A 
ATOM      8  C   UNL     1      -2.140  -0.568  -1.162  0.00  0.00    +0.009 A 
ATOM      9  C   UNL     1      -3.437  -1.046  -1.157  0.00  0.00    +0.050 A 
ATOM     10  C   UNL     1      -4.011  -1.484   0.026  0.00  0.00    +0.166 A 
ATOM     11  C   UNL     1      -3.277  -1.441   1.209  0.00  0.00    +0.167 A 
ATOM     12  C   UNL     1      -1.976  -0.966   1.196  0.00  0.00    +0.055 A 
ATOM     13  O   UNL     1      -4.055  -1.921   2.222  0.00  0.00    -0.453 OA
ATOM     14  C   UNL     1      -5.405  -1.876   1.725  0.00  0.00    +0.466 C 
ATOM     15  O   UNL     1      -5.248  -1.991   0.298  0.00  0.00    -0.453 OA
ENDBRANCH   6   7
ENDBRANCH   1   6
BRANCH   2  16
ATOM     16  C   UNL     1       2.736  -1.073  -2.455  0.00  0.00    +0.163 C 
BRANCH  16  17
ATOM     17  N   UNL     1       4.181  -1.104  -2.214  0.00  0.00    -0.288 N 
ATOM     18  C   UNL     1       4.965  -1.937  -2.927  0.00  0.00    +0.298 C 
ATOM     19  O   UNL     1       4.473  -2.663  -3.769  0.00  0.00    -0.253 OA
ATOM     20  N   UNL     1       6.294  -1.966  -2.706  0.00  0.00    -0.313 N 
ATOM     21  H   UNL     1       4.573  -0.525  -1.542  0.00  0.00    +0.151 HD
ATOM     22  H   UNL     1       6.687  -1.387  -2.033  0.00  0.00    +0.146 HD
ATOM     23  H   UNL     1       6.859  -2.565  -3.219  0.00  0.00    +0.146 HD
ENDBRANCH  16  17
BRANCH  16  24
ATOM     24  C   UNL     1       2.433  -0.127  -3.618  0.00  0.00    +0.012 C 
ATOM     25  C   UNL     1       3.033   1.250  -3.325  0.00  0.00    +0.009 C 
ATOM     26  C   UNL     1       3.046  -0.686  -4.904  0.00  0.00    +0.009 C 
ENDBRANCH  16  24
ENDBRANCH   2  16
TORSDOF 5
