REMARK  Name = ZINC19891064
REMARK  3 active torsions:
REMARK  status: ('A' for Active; 'I' for Inactive)
REMARK    1  A    between atoms: C_13  and  C_18
REMARK    2  A    between atoms: C_18  and  N_19
REMARK    3  A    between atoms: N_22  and  C_25
REMARK                            x       y       z     vdW  Elec       q    Type
REMARK                         _______ _______ _______ _____ _____    ______ ____
ROOT
ATOM      1  C   UNL     1       3.829  -4.728   0.719  0.00  0.00    +0.000 A 
ATOM      2  C   UNL     1       4.913  -4.076   0.159  0.00  0.00    +0.002 A 
ATOM      3  C   UNL     1       4.848  -2.720  -0.090  0.00  0.00    +0.024 A 
ATOM      4  C   UNL     1       3.693  -2.010   0.221  0.00  0.00    +0.040 A 
ATOM      5  C   UNL     1       2.606  -2.664   0.780  0.00  0.00    -0.026 A 
ATOM      6  C   UNL     1       2.681  -4.025   1.028  0.00  0.00    +0.005 A 
ATOM      7  C   UNL     1       1.337  -1.930   1.121  0.00  0.00    +0.038 C 
ATOM      8  C   UNL     1       1.605  -0.431   1.258  0.00  0.00    +0.024 C 
ATOM      9  C   UNL     1       2.352   0.055   0.009  0.00  0.00    +0.114 C 
ATOM     10  N   UNL     1       3.649  -0.634  -0.035  0.00  0.00    -0.269 N 
ATOM     11  C   UNL     1       4.806   0.064  -0.323  0.00  0.00    +0.227 A 
ATOM     12  N   UNL     1       4.739   1.344  -0.684  0.00  0.00    -0.200 NA
ATOM     13  C   UNL     1       5.845   2.013  -0.960  0.00  0.00    +0.127 A 
ATOM     14  N   UNL     1       7.021   1.415  -0.878  0.00  0.00    -0.315 N 
ATOM     15  C   UNL     1       7.095   0.136  -0.518  0.00  0.00    +0.195 A 
ATOM     16  N   UNL     1       5.986  -0.539  -0.234  0.00  0.00    -0.183 NA
ATOM     17  N   UNL     1       8.323  -0.488  -0.435  0.00  0.00    -0.329 N 
ATOM     18  H   UNL     1       9.133   0.005  -0.638  0.00  0.00    +0.145 HD
ATOM     19  H   UNL     1       8.377  -1.421  -0.172  0.00  0.00    +0.145 HD
ATOM     20  H   UNL     1       7.830   1.909  -1.081  0.00  0.00    +0.170 HD
ENDROOT
BRANCH  13  21
ATOM     21  C   UNL     1       5.765   3.461  -1.369  0.00  0.00    +0.158 C 
BRANCH  21  22
ATOM     22  N   UNL     1       5.518   3.549  -2.814  0.00  0.00    -0.292 NA
ATOM     23  C   UNL     1       6.660   3.026  -3.576  0.00  0.00    +0.104 C 
ATOM     24  C   UNL     1       6.293   2.966  -5.063  0.00  0.00    +0.120 C 
ATOM     25  N   UNL     1       5.823   4.295  -5.481  0.00  0.00    -0.327 N 
ATOM     26  C   UNL     1       4.773   4.945  -4.683  0.00  0.00    +0.120 C 
ATOM     27  C   UNL     1       5.199   4.927  -3.211  0.00  0.00    +0.104 C 
BRANCH  25  28
ATOM     28  C   UNL     1       6.360   4.924  -6.609  0.00  0.00    +0.030 A 
ATOM     29  C   UNL     1       7.260   4.246  -7.421  0.00  0.00    +0.026 A 
ATOM     30  C   UNL     1       7.789   4.870  -8.534  0.00  0.00    +0.040 A 
ATOM     31  C   UNL     1       7.423   6.169  -8.841  0.00  0.00    +0.124 A 
ATOM     32  C   UNL     1       6.526   6.847  -8.032  0.00  0.00    +0.040 A 
ATOM     33  C   UNL     1       5.991   6.226  -6.921  0.00  0.00    +0.026 A 
ATOM     34  F   UNL     1       7.942   6.777  -9.930  0.00  0.00    -0.205 F 
ENDBRANCH  25  28
ENDBRANCH  21  22
ENDBRANCH  13  21
TORSDOF 3
