REMARK  Name = ZINC59057886
REMARK  10 active torsions:
REMARK  status: ('A' for Active; 'I' for Inactive)
REMARK    1  A    between atoms: C_1  and  C_2
REMARK    2  A    between atoms: C_5  and  C_37
REMARK    3  A    between atoms: N_8  and  C_10
REMARK    4  A    between atoms: C_10  and  C_11
REMARK    5  A    between atoms: C_14  and  C_17
REMARK    6  A    between atoms: C_17  and  N_18
REMARK    7  A    between atoms: C_19  and  C_21
REMARK    8  A    between atoms: C_21  and  N_22
REMARK    9  A    between atoms: C_25  and  C_29
REMARK   10  A    between atoms: C_25  and  C_30
REMARK                            x       y       z     vdW  Elec       q    Type
REMARK                         _______ _______ _______ _____ _____    ______ ____
ROOT
ATOM      1  N   UNL     1      -0.844   2.866   6.580  0.00  0.00    -0.310 N 
ATOM      2  C   UNL     1      -1.586   3.542   7.480  0.00  0.00    +0.231 C 
ATOM      3  O   UNL     1      -1.330   3.458   8.662  0.00  0.00    -0.274 OA
ATOM      4  H   UNL     1      -1.049   2.933   5.634  0.00  0.00    +0.149 HD
ENDROOT
BRANCH   1   5
ATOM      5  C   UNL     1       0.272   2.030   7.030  0.00  0.00    +0.139 C 
BRANCH   5   9
ATOM      6  C   UNL     1       2.146   0.211   3.650  0.00  0.00    -0.064 A 
ATOM      7  C   UNL     1       2.582   1.442   4.103  0.00  0.00    +0.002 A 
ATOM      8  C   UNL     1       1.975   2.031   5.197  0.00  0.00    +0.005 A 
ATOM      9  C   UNL     1       0.932   1.388   5.838  0.00  0.00    -0.030 A 
ATOM     10  C   UNL     1       0.496   0.158   5.384  0.00  0.00    +0.005 A 
ATOM     11  C   UNL     1       1.100  -0.429   4.288  0.00  0.00    +0.002 A 
BRANCH   6  12
ATOM     12  C   UNL     1       2.808  -0.431   2.458  0.00  0.00    -0.043 C 
BRANCH  12  18
ATOM     13  C   UNL     1      -0.019   1.526   0.010  0.00  0.00    +0.005 C 
ATOM     14  C   UNL     1       0.002  -0.004   0.002  0.00  0.00    -0.031 C 
ATOM     15  C   UNL     1       0.721  -0.499  -1.257  0.00  0.00    +0.003 C 
ATOM     16  C   UNL     1       2.177  -0.027  -1.220  0.00  0.00    -0.031 C 
ATOM     17  C   UNL     1       2.839  -0.534   0.063  0.00  0.00    -0.075 C 
ATOM     18  N   UNL     1       2.123  -0.005   1.230  0.00  0.00    +0.383 N 
ATOM     19  C   UNL     1       0.744  -0.512   1.240  0.00  0.00    -0.075 C 
ATOM     20  C   UNL     1       2.924  -0.581  -2.434  0.00  0.00    +0.005 C 
ATOM     21  H   UNL     1       2.109   1.003   1.187  0.00  0.00    -0.081 HD
ENDBRANCH  12  18
ENDBRANCH   6  12
ENDBRANCH   5   9
ENDBRANCH   1   5
BRANCH   2  22
ATOM     22  C   UNL     1      -2.733   4.401   7.016  0.00  0.00    +0.213 C 
BRANCH  22  23
ATOM     23  N   UNL     1      -3.376   5.025   8.176  0.00  0.00    -0.215 N 
ATOM     24  C   UNL     1      -4.393   4.472   8.866  0.00  0.00    +0.251 C 
ATOM     25  O   UNL     1      -4.929   3.406   8.652  0.00  0.00    -0.272 OA
ATOM     26  C   UNL     1      -4.727   5.461   9.966  0.00  0.00    +0.135 C 
ATOM     27  N   UNL     1      -3.769   6.558   9.747  0.00  0.00    -0.281 N 
ATOM     28  C   UNL     1      -3.021   6.210   8.685  0.00  0.00    +0.310 C 
ATOM     29  O   UNL     1      -2.125   6.898   8.235  0.00  0.00    -0.252 OA
ATOM     30  C   UNL     1      -6.165   5.963   9.819  0.00  0.00    +0.047 C 
ATOM     31  H   UNL     1      -3.692   7.372  10.269  0.00  0.00    +0.152 HD
BRANCH  26  32
ATOM     32  C   UNL     1      -4.518   4.837  11.321  0.00  0.00    -0.015 A 
ATOM     33  C   UNL     1      -4.686   3.474  11.488  0.00  0.00    +0.009 A 
ATOM     34  C   UNL     1      -4.494   2.901  12.730  0.00  0.00    +0.039 A 
ATOM     35  C   UNL     1      -4.133   3.691  13.809  0.00  0.00    +0.123 A 
ATOM     36  C   UNL     1      -3.966   5.055  13.641  0.00  0.00    +0.039 A 
ATOM     37  C   UNL     1      -4.153   5.626  12.396  0.00  0.00    +0.009 A 
ATOM     38  F   UNL     1      -3.946   3.131  15.024  0.00  0.00    -0.205 F 
ENDBRANCH  26  32
ENDBRANCH  22  23
ENDBRANCH   2  22
TORSDOF 7
