REMARK  Name = ZINC36366346
REMARK  4 active torsions:
REMARK  status: ('A' for Active; 'I' for Inactive)
REMARK    1  A    between atoms: C_1  and  N_2
REMARK    2  A    between atoms: C_3  and  C_28
REMARK    3  A    between atoms: C_5  and  C_15
REMARK    4  A    between atoms: N_17  and  C_18
REMARK                            x       y       z     vdW  Elec       q    Type
REMARK                         _______ _______ _______ _____ _____    ______ ____
ROOT
ATOM      1  C   UNL     1      -1.127   1.675   0.315  0.00  0.00    +0.133 C 
ATOM      2  N   UNL     1      -0.683   0.284   0.197  0.00  0.00    -0.292 N 
ATOM      3  C   UNL     1      -1.670  -0.792   0.237  0.00  0.00    +0.122 C 
ATOM      4  C   UNL     1      -1.335  -1.881  -0.779  0.00  0.00    +0.131 C 
ATOM      5  C   UNL     1       0.102  -2.306  -0.628  0.00  0.00    -0.021 A 
ATOM      6  C   UNL     1       0.479  -3.610  -0.869  0.00  0.00    +0.005 A 
ATOM      7  C   UNL     1       1.806  -3.981  -0.739  0.00  0.00    +0.000 A 
ATOM      8  C   UNL     1       2.761  -3.050  -0.370  0.00  0.00    +0.001 A 
ATOM      9  C   UNL     1       2.395  -1.742  -0.121  0.00  0.00    +0.013 A 
ATOM     10  C   UNL     1       1.059  -1.366  -0.243  0.00  0.00    +0.041 A 
ATOM     11  C   UNL     1       0.629   0.018   0.047  0.00  0.00    +0.247 C 
ATOM     12  O   UNL     1       1.452   0.906   0.154  0.00  0.00    -0.270 OA
ENDROOT
BRANCH   3  13
ATOM     13  C   UNL     1      -3.032  -0.227  -0.076  0.00  0.00    -0.026 A 
ATOM     14  C   UNL     1      -3.778  -0.755  -1.113  0.00  0.00    +0.005 A 
ATOM     15  C   UNL     1      -5.027  -0.236  -1.400  0.00  0.00    +0.000 A 
ATOM     16  C   UNL     1      -5.529   0.811  -0.650  0.00  0.00    +0.000 A 
ATOM     17  C   UNL     1      -4.783   1.339   0.387  0.00  0.00    +0.000 A 
ATOM     18  C   UNL     1      -3.536   0.817   0.677  0.00  0.00    +0.005 A 
ENDBRANCH   3  13
BRANCH   4  19
ATOM     19  C   UNL     1      -1.551  -1.347  -2.172  0.00  0.00    +0.227 C 
ATOM     20  O   UNL     1      -1.555  -0.151  -2.370  0.00  0.00    -0.275 OA
ATOM     21  N   UNL     1      -1.740  -2.200  -3.199  0.00  0.00    -0.285 N 
ATOM     22  H   UNL     1      -1.673  -3.157  -3.053  0.00  0.00    +0.155 HD
BRANCH  21  23
ATOM     23  C   UNL     1      -2.035  -1.705  -4.475  0.00  0.00    +0.035 A 
ATOM     24  C   UNL     1      -1.447  -0.518  -4.909  0.00  0.00    +0.024 A 
ATOM     25  C   UNL     1      -1.723  -0.022  -6.150  0.00  0.00    +0.012 A 
ATOM     26  C   UNL     1      -2.601  -0.708  -6.993  0.00  0.00    -0.000 A 
ATOM     27  C   UNL     1      -3.106  -0.467  -8.348  0.00  0.00    +0.027 A 
ATOM     28  C   UNL     1      -3.936  -1.480  -8.643  0.00  0.00    +0.083 A 
ATOM     29  N   UNL     1      -4.004  -2.350  -7.588  0.00  0.00    -0.361 N 
ATOM     30  H   UNL     1      -4.539  -3.159  -7.567  0.00  0.00    +0.165 HD
ATOM     31  C   UNL     1      -3.199  -1.907  -6.563  0.00  0.00    +0.048 A 
ATOM     32  C   UNL     1      -2.902  -2.401  -5.298  0.00  0.00    +0.049 A 
ENDBRANCH  21  23
ENDBRANCH   4  19
TORSDOF 3
