REMARK  Name = ZINC39533964
REMARK  10 active torsions:
REMARK  status: ('A' for Active; 'I' for Inactive)
REMARK    1  A    between atoms: C_1  and  S_2
REMARK    2  A    between atoms: S_2  and  N_3
REMARK    3  A    between atoms: N_3  and  C_4
REMARK    4  A    between atoms: C_4  and  C_5
REMARK    5  A    between atoms: C_5  and  C_7
REMARK    6  A    between atoms: C_5  and  N_20
REMARK    7  A    between atoms: C_10  and  C_13
REMARK    8  A    between atoms: C_18  and  O_19
REMARK    9  A    between atoms: C_24  and  C_27
REMARK   10  A    between atoms: C_32  and  O_33
REMARK                            x       y       z     vdW  Elec       q    Type
REMARK                         _______ _______ _______ _____ _____    ______ ____
ROOT
ATOM      1  C   UNL     1       2.134  -2.216   2.580  0.00  0.00    +0.101 C 
ENDROOT
BRANCH   1   2
ATOM      2  N   UNL     1       2.011  -1.670   3.939  0.00  0.00    -0.297 NA
ATOM      3  C   UNL     1       2.624  -0.337   4.028  0.00  0.00    +0.066 C 
ATOM      4  C   UNL     1       2.422   0.220   5.439  0.00  0.00    -0.066 C 
ATOM      5  N   UNL     1       3.039  -0.687   6.416  0.00  0.00    +0.385 N 
ATOM      6  C   UNL     1       2.400  -2.007   6.332  0.00  0.00    -0.023 C 
ATOM      7  C   UNL     1       2.601  -2.582   4.928  0.00  0.00    +0.074 C 
ATOM      8  H   UNL     1       4.024  -0.777   6.217  0.00  0.00    -0.085 HD
ATOM      9  H   UNL     1       2.917  -0.313   7.345  0.00  0.00    -0.085 HD
BRANCH   6  10
ATOM     10  C   UNL     1       3.021  -2.931   7.347  0.00  0.00    -0.019 A 
ATOM     11  C   UNL     1       4.264  -2.641   7.877  0.00  0.00    +0.005 A 
ATOM     12  C   UNL     1       4.835  -3.489   8.808  0.00  0.00    +0.000 A 
ATOM     13  C   UNL     1       4.163  -4.628   9.212  0.00  0.00    +0.004 A 
ATOM     14  C   UNL     1       2.921  -4.922   8.686  0.00  0.00    +0.045 A 
ATOM     15  C   UNL     1       2.343  -4.070   7.755  0.00  0.00    +0.118 A 
BRANCH  15  16
ATOM     16  O   UNL     1       1.118  -4.354   7.240  0.00  0.00    -0.507 OA
ATOM     17  H   UNL     1       1.144  -4.896   6.440  0.00  0.00    +0.292 HD
ENDBRANCH  15  16
ENDBRANCH   6  10
ENDBRANCH   1   2
BRANCH   1  18
ATOM     18  C   UNL     1       1.942  -3.710   2.620  0.00  0.00    -0.029 A 
ATOM     19  C   UNL     1       0.836  -4.246   3.255  0.00  0.00    +0.006 A 
ATOM     20  C   UNL     1       0.655  -5.613   3.295  0.00  0.00    +0.009 A 
ATOM     21  C   UNL     1       1.589  -6.455   2.694  0.00  0.00    -0.014 A 
ATOM     22  C   UNL     1       2.701  -5.909   2.055  0.00  0.00    +0.009 A 
ATOM     23  C   UNL     1       2.869  -4.540   2.017  0.00  0.00    +0.006 A 
BRANCH  21  24
ATOM     24  C   UNL     1       1.401  -7.926   2.734  0.00  0.00    +0.024 A 
ATOM     25  C   UNL     1       1.123  -8.563   3.941  0.00  0.00    +0.012 A 
ATOM     26  C   UNL     1       0.949  -9.931   3.973  0.00  0.00    +0.001 A 
ATOM     27  C   UNL     1       1.049 -10.674   2.810  0.00  0.00    +0.004 A 
ATOM     28  C   UNL     1       1.324 -10.052   1.607  0.00  0.00    +0.046 A 
ATOM     29  C   UNL     1       1.496  -8.678   1.559  0.00  0.00    +0.125 A 
BRANCH  29  30
ATOM     30  O   UNL     1       1.760  -8.065   0.377  0.00  0.00    -0.506 OA
ATOM     31  H   UNL     1       2.703  -7.994   0.172  0.00  0.00    +0.292 HD
ENDBRANCH  29  30
ENDBRANCH  21  24
ENDBRANCH   1  18
BRANCH   1  32
ATOM     32  C   UNL     1       1.067  -1.588   1.681  0.00  0.00    +0.117 C 
BRANCH  32  33
ATOM     33  N   UNL     1       1.174  -0.124   1.742  0.00  0.00    -0.262 NA
ATOM     34  H   UNL     1       0.754   0.234   2.587  0.00  0.00    +0.135 HD
BRANCH  33  36
ATOM     35  C   UNL     1       0.690   2.401   0.584  0.00  0.00    +0.102 C 
ATOM     36  S   UNL     1       0.456   0.623   0.313  0.00  0.00    -0.084 S 
ENDBRANCH  33  36
ENDBRANCH  32  33
ENDBRANCH   1  32
TORSDOF 9
