REMARK  Name = ZINC23424622
REMARK  7 active torsions:
REMARK  status: ('A' for Active; 'I' for Inactive)
REMARK    1  A    between atoms: C_1  and  N_2
REMARK    2  A    between atoms: N_2  and  C_3
REMARK    3  A    between atoms: C_5  and  C_28
REMARK    4  A    between atoms: C_12  and  N_14
REMARK    5  A    between atoms: N_16  and  C_20
REMARK    6  A    between atoms: C_20  and  C_21
REMARK    7  A    between atoms: C_21  and  C_22
REMARK                            x       y       z     vdW  Elec       q    Type
REMARK                         _______ _______ _______ _____ _____    ______ ____
ROOT
ATOM      1  C   UNL     1      -1.099   0.930   1.063  0.00  0.00    +0.130 C 
ATOM      2  N   UNL     1      -0.020   1.355   0.161  0.00  0.00    -0.320 N 
ATOM      3  C   UNL     1       0.954   0.273  -0.038  0.00  0.00    +0.130 C 
ATOM      4  C   UNL     1      -0.527   1.793  -1.046  0.00  0.00    +0.141 A 
ATOM      5  C   UNL     1      -0.377   3.142  -1.409  0.00  0.00    +0.100 A 
ATOM      6  C   UNL     1      -0.924   3.563  -2.697  0.00  0.00    +0.016 A 
ATOM      7  C   UNL     1      -0.840   4.865  -3.177  0.00  0.00    +0.011 A 
ATOM      8  C   UNL     1      -1.391   5.183  -4.406  0.00  0.00    +0.134 A 
ATOM      9  N   UNL     1      -2.002   4.238  -5.131  0.00  0.00    -0.216 NA
ATOM     10  C   UNL     1      -2.114   2.985  -4.731  0.00  0.00    +0.129 A 
ATOM     11  C   UNL     1      -1.580   2.586  -3.493  0.00  0.00    +0.063 A 
ATOM     12  C   UNL     1      -1.668   1.266  -3.012  0.00  0.00    +0.129 A 
ATOM     13  N   UNL     1      -1.152   0.935  -1.841  0.00  0.00    -0.216 NA
ATOM     14  N   UNL     1      -2.759   2.062  -5.533  0.00  0.00    -0.343 N 
ATOM     15  N   UNL     1      -1.193   6.531  -4.684  0.00  0.00    -0.255 N 
ATOM     16  C   UNL     1      -0.530   7.167  -3.704  0.00  0.00    +0.225 C 
ATOM     17  O   UNL     1      -0.223   8.340  -3.683  0.00  0.00    -0.275 OA
ATOM     18  C   UNL     1      -0.239   6.139  -2.631  0.00  0.00    +0.135 C 
ATOM     19  H   UNL     1      -2.853   1.017  -5.202  0.00  0.00    +0.144 HD
ATOM     20  H   UNL     1      -3.178   2.372  -6.502  0.00  0.00    +0.144 HD
ENDROOT
BRANCH  12  21
ATOM     21  N   UNL     1      -2.301   0.306  -3.772  0.00  0.00    -0.343 N 
ATOM     22  H   UNL     1      -2.374  -0.728  -3.404  0.00  0.00    +0.144 HD
ATOM     23  H   UNL     1      -2.733   0.574  -4.748  0.00  0.00    +0.144 HD
ENDBRANCH  12  21
BRANCH   5  24
ATOM     24  C   UNL     1       0.293   4.070  -0.548  0.00  0.00    +0.103 C 
ATOM     25  N   UNL     1       0.824   4.807   0.134  0.00  0.00    -0.191 NA
ENDBRANCH   5  24
BRANCH  15  26
ATOM     26  C   UNL     1      -1.656   7.186  -5.910  0.00  0.00    +0.119 C 
BRANCH  26  27
ATOM     27  C   UNL     1      -3.070   7.729  -5.696  0.00  0.00    +0.050 C 
BRANCH  27  28
ATOM     28  C   UNL     1      -3.546   8.402  -6.957  0.00  0.00    -0.072 C 
ATOM     29  C   UNL     1      -4.260   7.707  -7.784  0.00  0.00    -0.028 C 
ATOM     30  C   UNL     1      -4.796   8.236  -9.082  0.00  0.00    +0.027 C 
ATOM     31  C   UNL     1      -4.755   9.766  -9.085  0.00  0.00    +0.004 C 
ATOM     32  C   UNL     1      -3.356  10.214  -8.647  0.00  0.00    +0.005 C 
ATOM     33  C   UNL     1      -3.169   9.839  -7.174  0.00  0.00    +0.030 C 
ENDBRANCH  27  28
ENDBRANCH  26  27
ENDBRANCH  15  26
TORSDOF 5
