REMARK  Name = ZINC63308214
REMARK  6 active torsions:
REMARK  status: ('A' for Active; 'I' for Inactive)
REMARK    1  A    between atoms: C_1  and  C_2
REMARK    2  A    between atoms: C_2  and  O_3
REMARK    3  A    between atoms: O_3  and  C_4
REMARK    4  A    between atoms: C_27  and  C_31
REMARK    5  A    between atoms: C_27  and  C_32
REMARK    6  A    between atoms: C_29  and  C_30
REMARK                            x       y       z     vdW  Elec       q    Type
REMARK                         _______ _______ _______ _____ _____    ______ ____
ROOT
ATOM      1  C   UNL     1      -1.498  -1.849   0.006  0.00  0.00    +0.121 A 
ATOM      2  C   UNL     1      -0.367  -2.656  -0.003  0.00  0.00    +0.055 A 
ATOM      3  C   UNL     1      -0.492  -4.035  -0.008  0.00  0.00    +0.003 A 
ATOM      4  C   UNL     1      -1.801  -4.554  -0.003  0.00  0.00    +0.050 A 
ATOM      5  C   UNL     1      -2.926  -3.746   0.005  0.00  0.00    +0.009 A 
ATOM      6  C   UNL     1      -2.796  -2.373   0.016  0.00  0.00    +0.053 A 
ATOM      7  C   UNL     1      -4.080  -4.693   0.002  0.00  0.00    +0.148 C 
ATOM      8  C   UNL     1      -4.939  -4.514  -1.246  0.00  0.00    +0.140 C 
ATOM      9  C   UNL     1      -5.664  -3.182  -1.078  0.00  0.00    -0.035 C 
ATOM     10  C   UNL     1      -5.405  -2.474  -2.167  0.00  0.00    -0.001 A 
ATOM     11  C   UNL     1      -5.888  -1.160  -2.622  0.00  0.00    +0.010 A 
ATOM     12  C   UNL     1      -5.393  -0.717  -3.808  0.00  0.00    +0.001 A 
ATOM     13  C   UNL     1      -4.478  -1.440  -4.579  0.00  0.00    +0.002 A 
ATOM     14  C   UNL     1      -3.986  -2.659  -4.241  0.00  0.00    +0.026 A 
ATOM     15  C   UNL     1      -4.437  -3.233  -3.017  0.00  0.00    +0.043 A 
ATOM     16  N   UNL     1      -4.147  -4.396  -2.470  0.00  0.00    -0.375 N 
ATOM     17  C   UNL     1      -6.407  -2.844   0.192  0.00  0.00    +0.048 C 
ATOM     18  C   UNL     1      -5.450  -3.173   1.352  0.00  0.00    +0.086 C 
ATOM     19  N   UNL     1      -4.912  -4.528   1.197  0.00  0.00    -0.297 NA
ATOM     20  C   UNL     1      -3.448  -6.074  -0.001  0.00  0.00    +0.248 C 
ATOM     21  O   UNL     1      -4.040  -7.133   0.001  0.00  0.00    -0.273 OA
ATOM     22  N   UNL     1      -2.112  -5.909  -0.007  0.00  0.00    -0.259 N 
ATOM     23  C   UNL     1      -1.061  -6.934  -0.016  0.00  0.00    +0.055 C 
ATOM     24  C   UNL     1       0.306  -6.320  -0.022  0.00  0.00    +0.002 C 
ATOM     25  C   UNL     1       0.590  -5.028  -0.019  0.00  0.00    -0.043 C 
ATOM     26  C   UNL     1       2.027  -4.574  -0.028  0.00  0.00    +0.044 C 
ATOM     27  C   UNL     1      -1.209  -7.812   1.228  0.00  0.00    +0.036 C 
ATOM     28  C   UNL     1      -1.223  -7.805  -1.263  0.00  0.00    +0.036 C 
ATOM     29  H   UNL     1      -5.651  -5.215   1.221  0.00  0.00    +0.123 HD
ATOM     30  H   UNL     1      -3.521  -5.056  -2.806  0.00  0.00    +0.160 HD
ENDROOT
BRANCH   1  31
ATOM     31  O   UNL     1      -1.339  -0.499   0.012  0.00  0.00    -0.492 OA
BRANCH  31  33
ATOM     32  C   UNL     1      -0.019   1.526   0.010  0.00  0.00    +0.048 C 
ATOM     33  C   UNL     1       0.002  -0.004   0.002  0.00  0.00    +0.225 C 
ENDBRANCH  31  33
ENDBRANCH   1  31
TORSDOF 2
