REMARK  Name = ZINC65001896
REMARK  11 active torsions:
REMARK  status: ('A' for Active; 'I' for Inactive)
REMARK    1  A    between atoms: C_1  and  C_2
REMARK    2  A    between atoms: C_2  and  C_3
REMARK    3  A    between atoms: C_3  and  O_4
REMARK    4  A    between atoms: O_4  and  C_5
REMARK    5  A    between atoms: C_8  and  C_13
REMARK    6  A    between atoms: C_10  and  O_11
REMARK    7  A    between atoms: O_11  and  C_12
REMARK    8  A    between atoms: C_25  and  C_29
REMARK    9  A    between atoms: C_29  and  C_30
REMARK   10  A    between atoms: C_29  and  C_31
REMARK   11  A    between atoms: C_29  and  C_32
REMARK                            x       y       z     vdW  Elec       q    Type
REMARK                         _______ _______ _______ _____ _____    ______ ____
ROOT
ATOM      1  C   UNL     1       3.230  -4.410  -5.632  0.00  0.00    +0.142 A 
ATOM      2  N   UNL     1       3.789  -3.640  -6.615  0.00  0.00    -0.306 N 
ATOM      3  H   UNL     1       3.748  -2.674  -6.544  0.00  0.00    +0.170 HD
ATOM      4  C   UNL     1       4.397  -4.199  -7.678  0.00  0.00    +0.260 A 
ATOM      5  O   UNL     1       4.892  -3.501  -8.545  0.00  0.00    -0.267 OA
ATOM      6  C   UNL     1       4.454  -5.628  -7.774  0.00  0.00    +0.075 A 
ATOM      7  C   UNL     1       5.059  -6.441  -8.829  0.00  0.00    -0.023 A 
ATOM      8  C   UNL     1       4.981  -7.782  -8.690  0.00  0.00    -0.004 A 
ATOM      9  S   UNL     1       4.109  -8.036  -7.168  0.00  0.00    -0.073 S 
ATOM     10  C   UNL     1       3.853  -6.338  -6.721  0.00  0.00    +0.116 A 
ATOM     11  N   UNL     1       3.273  -5.725  -5.696  0.00  0.00    -0.222 NA
ATOM     12  C   UNL     1       5.518  -8.824  -9.623  0.00  0.00    +0.046 C 
ATOM     13  C   UNL     1       6.503  -8.148 -10.588  0.00  0.00    -0.000 C 
ATOM     14  C   UNL     1       5.854  -6.877 -11.142  0.00  0.00    +0.009 C 
ATOM     15  C   UNL     1       5.752  -5.822 -10.040  0.00  0.00    +0.037 C 
ENDROOT
BRANCH   1  19
ATOM     16  C   UNL     1       1.341  -2.529  -2.322  0.00  0.00    +0.162 A 
ATOM     17  C   UNL     1       1.908  -1.758  -3.328  0.00  0.00    +0.050 A 
ATOM     18  C   UNL     1       2.521  -2.365  -4.403  0.00  0.00    +0.015 A 
ATOM     19  C   UNL     1       2.574  -3.759  -4.482  0.00  0.00    +0.021 A 
ATOM     20  C   UNL     1       2.003  -4.535  -3.469  0.00  0.00    +0.061 A 
ATOM     21  C   UNL     1       1.395  -3.920  -2.392  0.00  0.00    +0.162 A 
BRANCH  21  22
ATOM     22  O   UNL     1       0.844  -4.672  -1.401  0.00  0.00    -0.491 OA
ATOM     23  C   UNL     1       0.936  -6.092  -1.538  0.00  0.00    +0.277 C 
ENDBRANCH  21  22
BRANCH  16  24
ATOM     24  O   UNL     1       0.738  -1.926  -1.265  0.00  0.00    -0.488 OA
BRANCH  24  25
ATOM     25  C   UNL     1       0.718  -0.497  -1.257  0.00  0.00    +0.229 C 
BRANCH  25  27
ATOM     26  C   UNL     1      -0.019   1.526   0.010  0.00  0.00    +0.007 C 
ATOM     27  C   UNL     1       0.002  -0.004   0.002  0.00  0.00    +0.038 C 
ENDBRANCH  25  27
ENDBRANCH  24  25
ENDBRANCH  16  24
ENDBRANCH   1  19
BRANCH  13  28
ATOM     28  C   UNL     1       6.834  -9.103 -11.736  0.00  0.00    -0.035 C 
ATOM     29  C   UNL     1       5.550  -9.459 -12.489  0.00  0.00    +0.011 C 
ATOM     30  C   UNL     1       7.816  -8.427 -12.695  0.00  0.00    +0.011 C 
ATOM     31  C   UNL     1       7.465 -10.378 -11.174  0.00  0.00    +0.011 C 
ENDBRANCH  13  28
TORSDOF 6
