REMARK  Name = ZINC00913030
REMARK  9 active torsions:
REMARK  status: ('A' for Active; 'I' for Inactive)
REMARK    1  A    between atoms: C_1  and  N_2
REMARK    2  A    between atoms: N_2  and  C_3
REMARK    3  A    between atoms: N_2  and  S_4
REMARK    4  A    between atoms: S_4  and  C_7
REMARK    5  A    between atoms: C_10  and  C_13
REMARK    6  A    between atoms: C_13  and  C_15
REMARK    7  A    between atoms: C_17  and  C_29
REMARK    8  A    between atoms: C_23  and  C_24
REMARK    9  A    between atoms: C_23  and  O_28
REMARK                            x       y       z     vdW  Elec       q    Type
REMARK                         _______ _______ _______ _____ _____    ______ ____
ROOT
ATOM      1  C   UNL     1      -2.948  -3.307  -6.743  0.00  0.00    +0.144 C 
ATOM      2  C   UNL     1      -2.220  -2.675  -7.934  0.00  0.00    +0.120 C 
ATOM      3  N   UNL     1      -3.137  -1.775  -8.636  0.00  0.00    -0.292 N 
ATOM      4  C   UNL     1      -4.461  -1.991  -8.637  0.00  0.00    +0.302 C 
ATOM      5  O   UNL     1      -5.178  -1.219  -9.245  0.00  0.00    -0.253 OA
ATOM      6  N   UNL     1      -5.026  -3.025  -7.995  0.00  0.00    -0.264 N 
ATOM      7  C   UNL     1      -4.217  -3.999  -7.254  0.00  0.00    +0.243 C 
ATOM      8  H   UNL     1      -2.781  -1.007  -9.109  0.00  0.00    +0.151 HD
ATOM      9  H   UNL     1      -5.990  -3.131  -8.021  0.00  0.00    +0.153 HD
ENDROOT
BRANCH   2  10
ATOM     10  C   UNL     1      -1.758  -3.758  -8.874  0.00  0.00    -0.026 A 
ATOM     11  C   UNL     1      -2.463  -4.013 -10.035  0.00  0.00    +0.005 A 
ATOM     12  C   UNL     1      -2.039  -5.007 -10.898  0.00  0.00    +0.000 A 
ATOM     13  C   UNL     1      -0.909  -5.745 -10.599  0.00  0.00    +0.000 A 
ATOM     14  C   UNL     1      -0.203  -5.489  -9.439  0.00  0.00    +0.000 A 
ATOM     15  C   UNL     1      -0.624  -4.492  -8.579  0.00  0.00    +0.005 A 
ENDBRANCH   2  10
BRANCH   7  16
ATOM     16  C   UNL     1      -5.017  -4.540  -6.067  0.00  0.00    +0.436 C 
ATOM     17  F   UNL     1      -5.446  -3.474  -5.269  0.00  0.00    -0.166 F 
ATOM     18  F   UNL     1      -6.128  -5.247  -6.537  0.00  0.00    -0.166 F 
ATOM     19  F   UNL     1      -4.207  -5.393  -5.309  0.00  0.00    -0.166 F 
ENDBRANCH   7  16
BRANCH   1  20
ATOM     20  C   UNL     1      -3.321  -2.235  -5.751  0.00  0.00    +0.173 C 
ATOM     21  O   UNL     1      -3.828  -1.203  -6.136  0.00  0.00    -0.292 OA
BRANCH  20  25
ATOM     22  C   UNL     1      -2.597  -2.830  -1.614  0.00  0.00    +0.105 A 
ATOM     23  C   UNL     1      -3.162  -1.644  -2.051  0.00  0.00    +0.029 A 
ATOM     24  C   UNL     1      -3.401  -1.443  -3.394  0.00  0.00    +0.013 A 
ATOM     25  C   UNL     1      -3.069  -2.441  -4.316  0.00  0.00    +0.018 A 
ATOM     26  C   UNL     1      -2.498  -3.636  -3.867  0.00  0.00    +0.013 A 
ATOM     27  C   UNL     1      -2.261  -3.820  -2.521  0.00  0.00    +0.029 A 
BRANCH  22  28
ATOM     28  S   UNL     1      -2.296  -3.077   0.104  0.00  0.00    +0.060 S 
ATOM     29  O   UNL     1      -2.258  -4.482   0.312  0.00  0.00    -0.153 OA
ATOM     30  O   UNL     1      -3.198  -2.228   0.800  0.00  0.00    -0.153 OA
BRANCH  28  32
ATOM     31  C   UNL     1      -0.578  -1.112   0.811  0.00  0.00    +0.131 C 
ATOM     32  N   UNL     1      -0.773  -2.510   0.421  0.00  0.00    -0.183 NA
ATOM     33  C   UNL     1       0.380  -3.408   0.313  0.00  0.00    +0.131 C 
ENDBRANCH  28  32
ENDBRANCH  22  28
ENDBRANCH  20  25
ENDBRANCH   1  20
BRANCH   7  34
ATOM     34  O   UNL     1      -3.857  -5.077  -8.119  0.00  0.00    -0.364 OA
ATOM     35  H   UNL     1      -4.612  -5.561  -8.480  0.00  0.00    +0.212 HD
ENDBRANCH   7  34
TORSDOF 7
