REMARK  Name = ZINC39448902
REMARK  5 active torsions:
REMARK  status: ('A' for Active; 'I' for Inactive)
REMARK    1  A    between atoms: C_4  and  C_7
REMARK    2  A    between atoms: C_10  and  C_13
REMARK    3  A    between atoms: C_18  and  S_20
REMARK    4  A    between atoms: S_20  and  C_21
REMARK    5  A    between atoms: C_21  and  C_22
REMARK                            x       y       z     vdW  Elec       q    Type
REMARK                         _______ _______ _______ _____ _____    ______ ____
ROOT
ATOM      1  C   UNL     1       7.434  -2.768  -0.085  0.00  0.00    +0.200 C 
ATOM      2  N   UNL     1       8.440  -1.962  -0.787  0.00  0.00    -0.336 N 
ATOM      3  C   UNL     1       8.642  -2.128  -2.067  0.00  0.00    +0.190 C 
ATOM      4  N   UNL     1       7.983  -3.057  -2.778  0.00  0.00    -0.195 NA
ATOM      5  C   UNL     1       7.292  -4.009  -2.176  0.00  0.00    +0.159 C 
ATOM      6  N   UNL     1       7.282  -4.045  -0.800  0.00  0.00    -0.300 N 
ATOM      7  N   UNL     1       9.562  -1.323  -2.709  0.00  0.00    -0.329 N 
ATOM      8  H   UNL     1      10.046  -0.646  -2.210  0.00  0.00    +0.145 HD
ATOM      9  H   UNL     1       9.724  -1.433  -3.659  0.00  0.00    +0.145 HD
ATOM     10  H   UNL     1       7.180  -4.881  -0.319  0.00  0.00    +0.150 HD
ATOM     11  H   UNL     1       8.957  -1.303  -0.298  0.00  0.00    +0.164 HD
ENDROOT
BRANCH   1  15
ATOM     12  C   UNL     1       3.699  -0.689  -0.037  0.00  0.00    -0.018 A 
ATOM     13  C   UNL     1       4.896   0.024  -0.040  0.00  0.00    +0.009 A 
ATOM     14  C   UNL     1       6.099  -0.652  -0.055  0.00  0.00    +0.008 A 
ATOM     15  C   UNL     1       6.118  -2.035  -0.068  0.00  0.00    -0.007 A 
ATOM     16  C   UNL     1       4.932  -2.748  -0.066  0.00  0.00    +0.008 A 
ATOM     17  C   UNL     1       3.724  -2.082  -0.045  0.00  0.00    +0.009 A 
BRANCH  12  21
ATOM     18  C   UNL     1      -0.017   1.379   0.010  0.00  0.00    +0.000 A 
ATOM     19  C   UNL     1       1.169   2.092   0.002  0.00  0.00    +0.001 A 
ATOM     20  C   UNL     1       2.377   1.426  -0.013  0.00  0.00    +0.008 A 
ATOM     21  C   UNL     1       2.402   0.033  -0.021  0.00  0.00    -0.018 A 
ATOM     22  C   UNL     1       1.205  -0.680  -0.013  0.00  0.00    +0.008 A 
ATOM     23  C   UNL     1       0.002  -0.004   0.002  0.00  0.00    +0.001 A 
ENDBRANCH  12  21
ENDBRANCH   1  15
BRANCH   5  24
ATOM     24  S   UNL     1       6.401  -5.205  -3.113  0.00  0.00    -0.081 S 
BRANCH  24  25
ATOM     25  C   UNL     1       6.721  -4.740  -4.837  0.00  0.00    +0.173 C 
BRANCH  25  26
ATOM     26  C   UNL     1       6.006  -5.696  -5.757  0.00  0.00    +0.234 C 
ATOM     27  O   UNL     1       5.346  -6.603  -5.295  0.00  0.00    -0.274 OA
ATOM     28  N   UNL     1       6.101  -5.544  -7.092  0.00  0.00    -0.239 N 
ATOM     29  C   UNL     1       6.863  -4.508  -7.651  0.00  0.00    +0.044 A 
ATOM     30  C   UNL     1       8.205  -4.424  -7.298  0.00  0.00    +0.024 A 
ATOM     31  C   UNL     1       9.013  -3.447  -7.843  0.00  0.00    +0.002 A 
ATOM     32  C   UNL     1       8.472  -2.554  -8.749  0.00  0.00    +0.000 A 
ATOM     33  C   UNL     1       7.140  -2.629  -9.087  0.00  0.00    +0.005 A 
ATOM     34  C   UNL     1       6.300  -3.597  -8.531  0.00  0.00    -0.025 A 
ATOM     35  C   UNL     1       4.850  -3.486  -8.941  0.00  0.00    +0.042 C 
ATOM     36  C   UNL     1       3.953  -4.504  -8.259  0.00  0.00    +0.042 C 
ATOM     37  C   UNL     1       4.347  -5.914  -8.620  0.00  0.00    -0.025 A 
ATOM     38  C   UNL     1       5.446  -6.421  -7.968  0.00  0.00    +0.044 A 
ATOM     39  C   UNL     1       5.869  -7.720  -8.188  0.00  0.00    +0.024 A 
ATOM     40  C   UNL     1       5.177  -8.498  -9.102  0.00  0.00    +0.002 A 
ATOM     41  C   UNL     1       4.087  -7.982  -9.778  0.00  0.00    +0.000 A 
ATOM     42  C   UNL     1       3.657  -6.670  -9.538  0.00  0.00    +0.005 A 
ENDBRANCH  25  26
ENDBRANCH  24  25
ENDBRANCH   5  24
TORSDOF 5
