REMARK  Name = ZINC13495834
REMARK  13 active torsions:
REMARK  status: ('A' for Active; 'I' for Inactive)
REMARK    1  A    between atoms: C_1  and  C_2
REMARK    2  A    between atoms: C_2  and  C_3
REMARK    3  A    between atoms: C_3  and  C_5
REMARK    4  A    between atoms: C_3  and  N_72
REMARK    5  A    between atoms: N_9  and  C_10
REMARK    6  A    between atoms: C_10  and  C_11
REMARK    7  A    between atoms: C_11  and  C_12
REMARK    8  A    between atoms: C_18  and  C_19
REMARK    9  A    between atoms: C_18  and  N_72
REMARK   10  A    between atoms: C_19  and  C_20
REMARK   11  A    between atoms: C_26  and  C_27
REMARK   12  A    between atoms: C_26  and  N_72
REMARK   13  A    between atoms: C_31  and  C_39
REMARK                            x       y       z     vdW  Elec       q    Type
REMARK                         _______ _______ _______ _____ _____    ______ ____
ROOT
ATOM      1  N   UNL     1       3.943  -0.207  -1.158  0.00  0.00    +0.389 N 
ATOM      2  H   UNL     1       3.687   0.015  -2.127  0.00  0.00    -0.080 HD
ENDROOT
BRANCH   1   3
ATOM      3  C   UNL     1       3.374   0.822  -0.264  0.00  0.00    +0.003 C 
BRANCH   3   4
ATOM      4  C   UNL     1       3.892   0.647   1.141  0.00  0.00    +0.138 A 
ATOM      5  N   UNL     1       5.148   0.582   1.509  0.00  0.00    -0.115 NA
ATOM      6  N   UNL     1       5.180   0.430   2.788  0.00  0.00    -0.023 NA
ATOM      7  N   UNL     1       3.977   0.396   3.245  0.00  0.00    -0.044 NA
ATOM      8  N   UNL     1       3.154   0.526   2.260  0.00  0.00    -0.231 N 
BRANCH   8   9
ATOM      9  C   UNL     1       1.691   0.541   2.344  0.00  0.00    +0.152 C 
BRANCH   9  10
ATOM     10  C   UNL     1       1.206   1.978   2.543  0.00  0.00    +0.058 C 
BRANCH  10  11
ATOM     11  C   UNL     1      -0.299   1.992   2.630  0.00  0.00    -0.046 A 
ATOM     12  C   UNL     1      -1.055   2.146   1.483  0.00  0.00    +0.004 A 
ATOM     13  C   UNL     1      -2.436   2.154   1.562  0.00  0.00    +0.000 A 
ATOM     14  C   UNL     1      -3.059   2.019   2.788  0.00  0.00    +0.000 A 
ATOM     15  C   UNL     1      -2.302   1.871   3.935  0.00  0.00    +0.000 A 
ATOM     16  C   UNL     1      -0.922   1.857   3.856  0.00  0.00    +0.004 A 
ENDBRANCH  10  11
ENDBRANCH   9  10
ENDBRANCH   8   9
ENDBRANCH   3   4
BRANCH   3  18
ATOM     17  C   UNL     1       3.135   2.435  -2.157  0.00  0.00    +0.002 C 
ATOM     18  C   UNL     1       3.772   2.205  -0.785  0.00  0.00    -0.011 C 
ENDBRANCH   3  18
ENDBRANCH   1   3
BRANCH   1  19
ATOM     19  C   UNL     1       3.400  -1.536  -0.810  0.00  0.00    -0.073 C 
BRANCH  19  20
ATOM     20  C   UNL     1       1.922  -1.583  -1.204  0.00  0.00    +0.016 C 
BRANCH  20  21
ATOM     21  C   UNL     1       1.341  -2.919  -0.820  0.00  0.00    -0.049 A 
ATOM     22  C   UNL     1       1.454  -3.995  -1.681  0.00  0.00    +0.003 A 
ATOM     23  C   UNL     1       0.925  -5.222  -1.326  0.00  0.00    +0.000 A 
ATOM     24  C   UNL     1       0.276  -5.371  -0.115  0.00  0.00    +0.000 A 
ATOM     25  C   UNL     1       0.158  -4.294   0.743  0.00  0.00    +0.000 A 
ATOM     26  C   UNL     1       0.691  -3.068   0.391  0.00  0.00    +0.003 A 
ENDBRANCH  20  21
ENDBRANCH  19  20
ENDBRANCH   1  19
BRANCH   1  27
ATOM     27  C   UNL     1       5.417  -0.218  -1.042  0.00  0.00    -0.037 C 
BRANCH  27  28
ATOM     28  C   UNL     1       5.988  -1.000  -2.196  0.00  0.00    +0.001 A 
ATOM     29  C   UNL     1       6.373  -0.355  -3.325  0.00  0.00    +0.017 A 
ATOM     30  C   UNL     1       6.924  -1.145  -4.428  0.00  0.00    -0.001 A 
ATOM     31  C   UNL     1       7.338  -0.535  -5.617  0.00  0.00    +0.013 A 
ATOM     32  C   UNL     1       7.848  -1.300  -6.628  0.00  0.00    -0.050 A 
ATOM     33  C   UNL     1       7.959  -2.677  -6.485  0.00  0.00    +0.005 A 
ATOM     34  C   UNL     1       7.558  -3.298  -5.323  0.00  0.00    +0.026 A 
ATOM     35  C   UNL     1       7.035  -2.540  -4.280  0.00  0.00    +0.049 A 
ATOM     36  N   UNL     1       6.626  -3.135  -3.106  0.00  0.00    -0.322 N 
ATOM     37  H   UNL     1       6.703  -4.097  -3.005  0.00  0.00    +0.169 HD
ATOM     38  C   UNL     1       6.126  -2.401  -2.096  0.00  0.00    +0.251 A 
ATOM     39  O   UNL     1       5.779  -2.961  -1.070  0.00  0.00    -0.268 OA
ATOM     40  C   UNL     1       8.294  -0.644  -7.909  0.00  0.00    +0.044 C 
ENDBRANCH  27  28
ENDBRANCH   1  27
TORSDOF 11
