REMARK  Name = ZINC08635604
REMARK  7 active torsions:
REMARK  status: ('A' for Active; 'I' for Inactive)
REMARK    1  A    between atoms: C_1  and  O_2
REMARK    2  A    between atoms: O_2  and  C_3
REMARK    3  A    between atoms: C_3  and  C_4
REMARK    4  A    between atoms: N_6  and  C_7
REMARK    5  A    between atoms: C_7  and  C_8
REMARK    6  A    between atoms: C_16  and  C_18
REMARK    7  A    between atoms: C_18  and  N_65
REMARK                            x       y       z     vdW  Elec       q    Type
REMARK                         _______ _______ _______ _____ _____    ______ ____
ROOT
ATOM      1  C   UNL     1       1.085   1.567   6.063  0.00  0.00    -0.051 C 
ATOM      2  C   UNL     1      -0.092   0.683   6.485  0.00  0.00    -0.010 C 
ATOM      3  C   UNL     1       0.035  -0.677   5.786  0.00  0.00    -0.015 C 
ATOM      4  C   UNL     1       1.365  -1.329   6.185  0.00  0.00    -0.015 C 
ATOM      5  C   UNL     1       2.509  -0.370   5.775  0.00  0.00    -0.078 C 
ATOM      6  C   UNL     1       1.211   0.465   3.906  0.00  0.00    -0.076 C 
ATOM      7  C   UNL     1       0.037  -0.450   4.269  0.00  0.00    -0.041 C 
ATOM      8  N   UNL     1       1.966   0.841   5.124  0.00  0.00    +0.383 N 
ATOM      9  H   UNL     1       2.746   1.453   4.857  0.00  0.00    -0.081 HD
ENDROOT
BRANCH   1  10
ATOM     10  C   UNL     1       0.556   2.827   5.375  0.00  0.00    +0.089 C 
BRANCH  10  13
ATOM     11  C   UNL     1       1.455   4.775   4.220  0.00  0.00    +0.239 C 
ATOM     12  O   UNL     1       0.318   5.167   4.058  0.00  0.00    -0.273 OA
ATOM     13  N   UNL     1       1.682   3.615   4.867  0.00  0.00    -0.315 N 
ATOM     14  H   UNL     1       2.591   3.301   4.996  0.00  0.00    +0.149 HD
BRANCH  11  15
ATOM     15  C   UNL     1       2.612   5.585   3.696  0.00  0.00    +0.255 C 
BRANCH  15  17
ATOM     16  C   UNL     1       3.141   7.605   2.519  0.00  0.00    +0.194 C 
ATOM     17  O   UNL     1       2.119   6.762   3.054  0.00  0.00    -0.374 OA
ENDBRANCH  15  17
ENDBRANCH  11  15
ENDBRANCH  10  13
ENDBRANCH   1  10
BRANCH   7  18
ATOM     18  C   UNL     1      -1.277   0.211   3.848  0.00  0.00    -0.077 C 
BRANCH  18  32
ATOM     19  C   UNL     1      -2.447   1.159   1.955  0.00  0.00    -0.074 C 
ATOM     20  C   UNL     1      -2.455   1.329   0.442  0.00  0.00    -0.007 C 
ATOM     21  C   UNL     1      -2.466  -0.034  -0.256  0.00  0.00    +0.011 C 
ATOM     22  C   UNL     1      -1.248  -0.820   0.243  0.00  0.00    +0.020 C 
ATOM     23  C   UNL     1      -1.393  -1.008   1.762  0.00  0.00    -0.069 C 
ATOM     24  C   UNL     1       0.002  -0.004   0.002  0.00  0.00    +0.023 A 
ATOM     25  C   UNL     1       1.168  -0.679  -0.176  0.00  0.00    +0.022 A 
ATOM     26  C   UNL     1       2.380   0.014  -0.278  0.00  0.00    +0.007 A 
ATOM     27  C   UNL     1       2.372   1.374  -0.176  0.00  0.00    +0.070 A 
ATOM     28  C   UNL     1       1.150   2.039   0.002  0.00  0.00    +0.251 A 
ATOM     29  O   UNL     1       1.137   3.251   0.151  0.00  0.00    -0.268 OA
ATOM     30  N   UNL     1      -0.016   1.349   0.009  0.00  0.00    -0.312 N 
ATOM     31  C   UNL     1      -1.253   2.131  -0.030  0.00  0.00    +0.126 C 
ATOM     32  N   UNL     1      -1.299   0.333   2.375  0.00  0.00    +0.380 N 
ATOM     33  H   UNL     1      -0.431   0.784   2.063  0.00  0.00    -0.082 HD
ENDBRANCH  18  32
ENDBRANCH   7  18
TORSDOF 6
