REMARK  Name = ZINC01213630
REMARK  4 active torsions:
REMARK  status: ('A' for Active; 'I' for Inactive)
REMARK    1  A    between atoms: N_11  and  N_15
REMARK    2  A    between atoms: C_16  and  C_18
REMARK    3  A    between atoms: C_18  and  O_19
REMARK    4  A    between atoms: O_19  and  C_20
REMARK                            x       y       z     vdW  Elec       q    Type
REMARK                         _______ _______ _______ _____ _____    ______ ____
ROOT
ATOM      1  C   UNL     1      -0.013   1.076   0.008  0.00  0.00    +0.001 A 
ATOM      2  C   UNL     1       1.178   1.784   0.000  0.00  0.00    +0.002 A 
ATOM      3  C   UNL     1       1.176   3.164   0.007  0.00  0.00    +0.024 A 
ATOM      4  C   UNL     1      -0.027   3.861   0.023  0.00  0.00    +0.042 A 
ATOM      5  C   UNL     1      -1.230   3.141   0.031  0.00  0.00    +0.010 A 
ATOM      6  C   UNL     1      -1.218   1.748   0.017  0.00  0.00    +0.010 A 
ATOM      7  C   UNL     1      -2.317   4.143   0.047  0.00  0.00    +0.065 C 
ATOM      8  C   UNL     1      -3.678   3.907   0.059  0.00  0.00    +0.091 C 
ATOM      9  C   UNL     1      -4.809   4.875   0.081  0.00  0.00    +0.276 C 
ATOM     10  O   UNL     1      -4.625   6.076   0.091  0.00  0.00    -0.267 OA
ATOM     11  N   UNL     1      -6.025   4.355   0.085  0.00  0.00    -0.169 N 
ATOM     12  C   UNL     1      -6.223   3.021   0.081  0.00  0.00    +0.138 C 
ATOM     13  S   UNL     1      -7.708   2.170   0.092  0.00  0.00    -0.026 S 
ATOM     14  S   UNL     1      -4.566   2.356   0.061  0.00  0.00    -0.059 S 
ATOM     15  C   UNL     1      -1.631   5.451   0.047  0.00  0.00    +0.250 C 
ATOM     16  O   UNL     1      -2.169   6.542   0.058  0.00  0.00    -0.270 OA
ATOM     17  N   UNL     1      -0.306   5.223   0.033  0.00  0.00    -0.281 N 
ATOM     18  H   UNL     1       0.369   5.919   0.030  0.00  0.00    +0.155 HD
ENDROOT
BRANCH  11  19
ATOM     19  N   UNL     1      -7.134   5.210   0.101  0.00  0.00    -0.223 N 
ATOM     20  C   UNL     1      -7.840   5.378   1.236  0.00  0.00    +0.267 C 
ATOM     21  O   UNL     1      -7.515   4.788   2.245  0.00  0.00    -0.271 OA
ATOM     22  H   UNL     1      -7.393   5.682  -0.706  0.00  0.00    +0.174 HD
BRANCH  20  23
ATOM     23  C   UNL     1      -9.033   6.299   1.253  0.00  0.00    +0.326 C 
BRANCH  23  24
ATOM     24  O   UNL     1      -9.609   6.308   2.560  0.00  0.00    -0.481 OA
BRANCH  24  25
ATOM     25  C   UNL     1     -10.703   7.094   2.747  0.00  0.00    +0.140 A 
ATOM     26  C   UNL     1     -11.210   7.841   1.694  0.00  0.00    +0.048 A 
ATOM     27  C   UNL     1     -12.321   8.639   1.885  0.00  0.00    +0.023 A 
ATOM     28  C   UNL     1     -12.928   8.694   3.127  0.00  0.00    +0.043 A 
ATOM     29  C   UNL     1     -12.425   7.951   4.180  0.00  0.00    +0.043 A 
ATOM     30  C   UNL     1     -11.317   7.146   3.991  0.00  0.00    +0.084 A 
ATOM     31 CL   UNL     1     -10.689   6.208   5.310  0.00  0.00    -0.080 Cl
ATOM     32 CL   UNL     1     -14.324   9.699   3.365  0.00  0.00    -0.083 Cl
ENDBRANCH  24  25
ENDBRANCH  23  24
ENDBRANCH  20  23
ENDBRANCH  11  19
TORSDOF 4
