REMARK  Name = ZINC39637163
REMARK  6 active torsions:
REMARK  status: ('A' for Active; 'I' for Inactive)
REMARK    1  A    between atoms: C_1  and  C_2
REMARK    2  A    between atoms: C_7  and  N_12
REMARK    3  A    between atoms: C_9  and  C_11
REMARK    4  A    between atoms: C_13  and  C_15
REMARK    5  A    between atoms: C_26  and  C_28
REMARK    6  A    between atoms: C_33  and  C_34
REMARK                            x       y       z     vdW  Elec       q    Type
REMARK                         _______ _______ _______ _____ _____    ______ ____
ROOT
ATOM      1  C   UNL     1       2.648  -0.150   6.705  0.00  0.00    +0.100 C 
ATOM      2  C   UNL     1       1.755  -1.411   6.741  0.00  0.00    +0.121 C 
ATOM      3  N   UNL     1       1.264  -1.482   8.137  0.00  0.00    -0.296 N 
ATOM      4  C   UNL     1       0.987  -0.072   8.503  0.00  0.00    +0.115 C 
ATOM      5  C   UNL     1       2.140   0.726   7.862  0.00  0.00    -0.004 C 
ATOM      6  C   UNL     1       3.253   0.954   8.880  0.00  0.00    -0.010 C 
ATOM      7  C   UNL     1       2.741   1.875   9.992  0.00  0.00    -0.082 C 
ATOM      8  N   UNL     1       2.311   3.153   9.412  0.00  0.00    +0.379 N 
ATOM      9  C   UNL     1       1.179   2.936   8.504  0.00  0.00    -0.082 C 
ATOM     10  C   UNL     1       1.625   2.060   7.329  0.00  0.00    -0.010 C 
ATOM     11  C   UNL     1       1.104  -2.580   8.902  0.00  0.00    +0.247 C 
ATOM     12  O   UNL     1       0.603  -2.485  10.005  0.00  0.00    -0.270 OA
ATOM     13  H   UNL     1       2.032   3.779  10.152  0.00  0.00    -0.086 HD
ATOM     14  H   UNL     1       3.078   3.563   8.900  0.00  0.00    -0.086 HD
ENDROOT
BRANCH  11  15
ATOM     15  C   UNL     1       1.538  -3.901   8.399  0.00  0.00    +0.049 A 
ATOM     16  C   UNL     1       1.164  -4.322   7.121  0.00  0.00    +0.013 A 
ATOM     17  C   UNL     1       1.573  -5.555   6.658  0.00  0.00    +0.001 A 
ATOM     18  C   UNL     1       2.351  -6.374   7.456  0.00  0.00    +0.001 A 
ATOM     19  C   UNL     1       2.725  -5.963   8.723  0.00  0.00    +0.013 A 
ATOM     20  C   UNL     1       2.328  -4.730   9.196  0.00  0.00    +0.067 A 
BRANCH  20  21
ATOM     21  C   UNL     1       2.741  -4.281  10.574  0.00  0.00    +0.418 C 
ATOM     22  F   UNL     1       3.523  -5.274  11.173  0.00  0.00    -0.166 F 
ATOM     23  F   UNL     1       3.484  -3.099  10.477  0.00  0.00    -0.166 F 
ATOM     24  F   UNL     1       1.601  -4.052  11.352  0.00  0.00    -0.166 F 
ENDBRANCH  20  21
ENDBRANCH  11  15
BRANCH   1  26
ATOM     25  N   UNL     1       3.512   1.278   4.880  0.00  0.00    -0.312 N 
ATOM     26  C   UNL     1       2.486   0.570   5.391  0.00  0.00    +0.218 C 
ATOM     27  O   UNL     1       1.432   0.512   4.794  0.00  0.00    -0.275 OA
ATOM     28  H   UNL     1       4.355   1.325   5.357  0.00  0.00    +0.149 HD
BRANCH  25  34
ATOM     29  C   UNL     1       2.739   4.408   2.085  0.00  0.00    +0.008 C 
ATOM     30  C   UNL     1       4.171   3.882   2.205  0.00  0.00    -0.009 C 
ATOM     31  C   UNL     1       4.457   2.915   1.055  0.00  0.00    +0.003 C 
ATOM     32  C   UNL     1       3.476   1.743   1.118  0.00  0.00    +0.002 C 
ATOM     33  C   UNL     1       3.640   1.012   2.452  0.00  0.00    +0.022 C 
ATOM     34  C   UNL     1       3.354   1.979   3.603  0.00  0.00    +0.076 C 
ATOM     35  C   UNL     1       4.335   3.151   3.539  0.00  0.00    +0.009 C 
ATOM     36  C   UNL     1       4.049   4.118   4.690  0.00  0.00    +0.009 C 
ENDBRANCH  25  34
ENDBRANCH   1  26
TORSDOF 4
