REMARK  Name = ZINC02115095
REMARK  8 active torsions:
REMARK  status: ('A' for Active; 'I' for Inactive)
REMARK    1  A    between atoms: C_1  and  C_2
REMARK    2  A    between atoms: C_7  and  O_8
REMARK    3  A    between atoms: O_8  and  C_9
REMARK    4  A    between atoms: C_9  and  C_10
REMARK    5  A    between atoms: C_10  and  C_11
REMARK    6  A    between atoms: C_11  and  C_12
REMARK    7  A    between atoms: N_14  and  C_15
REMARK    8  A    between atoms: C_16  and  C_25
REMARK                            x       y       z     vdW  Elec       q    Type
REMARK                         _______ _______ _______ _____ _____    ______ ____
ROOT
ATOM      1  C   UNL     1       0.070   0.174   7.272  0.00  0.00    +0.218 C 
ATOM      2  O   UNL     1       0.053   1.377   7.121  0.00  0.00    -0.275 OA
ATOM      3  N   UNL     1       0.089  -0.349   8.514  0.00  0.00    -0.279 N 
ATOM      4  H   UNL     1       0.103  -1.311   8.635  0.00  0.00    +0.155 HD
ENDROOT
BRANCH   3   5
ATOM      5  C   UNL     1       0.089   0.488   9.619  0.00  0.00    +0.084 A 
ATOM      6  C   UNL     1       0.112   0.133  10.957  0.00  0.00    +0.068 A 
ATOM      7  C   UNL     1       0.105   1.211  11.937  0.00  0.00    -0.023 A 
ATOM      8  C   UNL     1       0.070   2.445  11.392  0.00  0.00    -0.004 A 
ATOM      9  S   UNL     1       0.067   2.167   9.643  0.00  0.00    -0.077 S 
ATOM     10  C   UNL     1       0.035   3.759  12.107  0.00  0.00    +0.043 C 
ATOM     11  C   UNL     1       1.127   3.775  13.185  0.00  0.00    +0.005 C 
ATOM     12  C   UNL     1       0.542   3.218  14.479  0.00  0.00    +0.001 C 
ATOM     13  C   UNL     1      -0.499   2.144  14.168  0.00  0.00    +0.005 C 
ATOM     14  C   UNL     1       0.147   0.970  13.438  0.00  0.00    +0.037 C 
BRANCH   6  15
ATOM     15  C   UNL     1       0.142  -1.273  11.371  0.00  0.00    +0.244 C 
ATOM     16  O   UNL     1       1.208  -1.838  11.530  0.00  0.00    -0.270 OA
ATOM     17  N   UNL     1      -1.011  -1.940  11.576  0.00  0.00    -0.325 N 
ATOM     18  H   UNL     1      -1.861  -1.490  11.449  0.00  0.00    +0.145 HD
ATOM     19  H   UNL     1      -0.991  -2.870  11.850  0.00  0.00    +0.145 HD
ENDBRANCH   6  15
ENDBRANCH   3   5
BRANCH   1  20
ATOM     20  C   UNL     1       0.071  -0.736   6.071  0.00  0.00    +0.099 C 
BRANCH  20  21
ATOM     21  C   UNL     1       0.047   0.106   4.793  0.00  0.00    +0.050 C 
BRANCH  21  22
ATOM     22  C   UNL     1       0.048  -0.819   3.574  0.00  0.00    +0.229 C 
BRANCH  22  23
ATOM     23  O   UNL     1       0.025  -0.033   2.381  0.00  0.00    -0.492 OA
BRANCH  23  30
ATOM     24  C   UNL     1      -0.018   1.503   0.010  0.00  0.00    +0.047 C 
ATOM     25  C   UNL     1       0.002  -0.004   0.002  0.00  0.00    -0.007 A 
ATOM     26  C   UNL     1       0.006  -0.689  -1.198  0.00  0.00    +0.027 A 
ATOM     27  C   UNL     1       0.024  -2.072  -1.206  0.00  0.00    +0.041 A 
ATOM     28  C   UNL     1       0.040  -2.773  -0.013  0.00  0.00    +0.023 A 
ATOM     29  C   UNL     1       0.036  -2.092   1.189  0.00  0.00    +0.047 A 
ATOM     30  C   UNL     1       0.023  -0.704   1.199  0.00  0.00    +0.123 A 
ATOM     31 CL   UNL     1       0.028  -2.930  -2.715  0.00  0.00    -0.084 Cl
ENDBRANCH  23  30
ENDBRANCH  22  23
ENDBRANCH  21  22
ENDBRANCH  20  21
ENDBRANCH   1  20
TORSDOF 7
