REMARK  Name = ZINC65062978
REMARK  9 active torsions:
REMARK  status: ('A' for Active; 'I' for Inactive)
REMARK    1  A    between atoms: C_1  and  C_2
REMARK    2  A    between atoms: C_5  and  C_8
REMARK    3  A    between atoms: C_10  and  C_13
REMARK    4  A    between atoms: C_16  and  C_18
REMARK    5  A    between atoms: N_20  and  C_21
REMARK    6  A    between atoms: C_21  and  C_22
REMARK    7  A    between atoms: C_22  and  C_23
REMARK    8  A    between atoms: C_23  and  C_25
REMARK    9  A    between atoms: C_23  and  N_26
REMARK                            x       y       z     vdW  Elec       q    Type
REMARK                         _______ _______ _______ _____ _____    ______ ____
ROOT
ATOM      1  C   UNL     1       0.409  -7.700   1.520  0.00  0.00    +0.060 A 
ATOM      2  C   UNL     1       0.494  -9.056   1.251  0.00  0.00    +0.020 A 
ATOM      3  C   UNL     1       0.485  -9.936   2.296  0.00  0.00    +0.021 A 
ATOM      4  C   UNL     1       0.390  -9.436   3.587  0.00  0.00    +0.074 A 
ATOM      5  S   UNL     1       0.320  -7.675   3.303  0.00  0.00    -0.080 S 
ENDROOT
BRANCH   1   8
ATOM      6  C   UNL     1       0.336  -4.522  -0.171  0.00  0.00    +0.259 A 
ATOM      7  N   UNL     1       0.320  -5.266   0.910  0.00  0.00    -0.187 NA
ATOM      8  C   UNL     1       0.400  -6.564   0.573  0.00  0.00    +0.209 A 
ATOM      9  N   UNL     1       0.469  -6.658  -0.734  0.00  0.00    -0.055 NA
ATOM     10  O   UNL     1       0.424  -5.332  -1.240  0.00  0.00    -0.332 OA
BRANCH   6  15
ATOM     11  C   UNL     1       0.055   1.224  -0.310  0.00  0.00    +0.044 C 
ATOM     12  C   UNL     1       0.129  -0.280  -0.274  0.00  0.00    -0.050 A 
ATOM     13  C   UNL     1       0.218  -0.994  -1.455  0.00  0.00    +0.004 A 
ATOM     14  C   UNL     1       0.286  -2.372  -1.429  0.00  0.00    +0.013 A 
ATOM     15  C   UNL     1       0.265  -3.045  -0.206  0.00  0.00    +0.039 A 
ATOM     16  C   UNL     1       0.175  -2.319   0.982  0.00  0.00    +0.013 A 
ATOM     17  C   UNL     1       0.113  -0.941   0.942  0.00  0.00    +0.004 A 
ENDBRANCH   6  15
ENDBRANCH   1   8
BRANCH   4  18
ATOM     18  C   UNL     1       0.360 -10.167   4.858  0.00  0.00    +0.251 C 
ATOM     19  O   UNL     1       0.424 -11.382   4.864  0.00  0.00    -0.270 OA
ATOM     20  N   UNL     1       0.263  -9.492   6.021  0.00  0.00    -0.311 N 
ATOM     21  H   UNL     1       0.212  -8.524   6.017  0.00  0.00    +0.149 HD
BRANCH  20  22
ATOM     22  C   UNL     1       0.233 -10.222   7.291  0.00  0.00    +0.103 C 
BRANCH  22  23
ATOM     23  C   UNL     1       0.119  -9.227   8.448  0.00  0.00    +0.003 C 
BRANCH  23  24
ATOM     24  C   UNL     1      -0.017  -9.992   9.766  0.00  0.00    -0.070 C 
ATOM     25  C   UNL     1      -0.048  -8.999  10.931  0.00  0.00    -0.013 C 
BRANCH  24  26
ATOM     26  N   UNL     1      -1.262 -10.771   9.754  0.00  0.00    +0.381 N 
ATOM     27  C   UNL     1      -2.403  -9.840   9.658  0.00  0.00    -0.078 C 
ATOM     28  C   UNL     1      -3.569 -10.580   9.052  0.00  0.00    -0.019 C 
ATOM     29  C   UNL     1      -4.516 -11.124  10.137  0.00  0.00    -0.002 C 
ATOM     30  C   UNL     1      -3.739 -11.701  11.338  0.00  0.00    -0.002 C 
ATOM     31  C   UNL     1      -2.534 -12.499  10.912  0.00  0.00    -0.019 C 
ATOM     32  C   UNL     1      -1.298 -11.575  10.895  0.00  0.00    -0.078 C 
ATOM     33  H   UNL     1      -1.263 -11.366   8.939  0.00  0.00    -0.081 HD
ENDBRANCH  24  26
ENDBRANCH  23  24
ENDBRANCH  22  23
ENDBRANCH  20  22
ENDBRANCH   4  18
TORSDOF 7
