REMARK  Name = ZINC19645051
REMARK  8 active torsions:
REMARK  status: ('A' for Active; 'I' for Inactive)
REMARK    1  A    between atoms: C_1  and  C_2
REMARK    2  A    between atoms: C_2  and  C_33
REMARK    3  A    between atoms: C_6  and  C_22
REMARK    4  A    between atoms: C_12  and  S_14
REMARK    5  A    between atoms: S_14  and  C_15
REMARK    6  A    between atoms: C_15  and  C_16
REMARK    7  A    between atoms: C_27  and  O_28
REMARK    8  A    between atoms: O_28  and  C_29
REMARK                            x       y       z     vdW  Elec       q    Type
REMARK                         _______ _______ _______ _____ _____    ______ ____
ROOT
ATOM      1  C   UNL     1       0.047   1.756  -0.396  0.00  0.00    +0.011 C 
ATOM      2  C   UNL     1      -0.016   0.228  -0.398  0.00  0.00    -0.023 C 
ATOM      3  C   UNL     1       0.798  -0.316  -1.574  0.00  0.00    +0.060 C 
ATOM      4  C   UNL     1       2.243   0.093  -1.420  0.00  0.00    +0.028 C 
ATOM      5  C   UNL     1       2.777   0.270  -0.157  0.00  0.00    +0.041 C 
ATOM      6  C   UNL     1       4.234   0.679  -0.058  0.00  0.00    +0.166 C 
ATOM      7  N   UNL     1       4.943   0.849  -1.332  0.00  0.00    -0.208 N 
ATOM      8  C   UNL     1       4.261   0.634  -2.505  0.00  0.00    +0.215 C 
ATOM      9  N   UNL     1       2.982   0.278  -2.503  0.00  0.00    -0.330 N 
ATOM     10  N   UNL     1       5.117   0.852  -3.512  0.00  0.00    -0.192 NA
ATOM     11  C   UNL     1       6.304   1.193  -3.041  0.00  0.00    +0.174 C 
ATOM     12  N   UNL     1       6.250   1.207  -1.674  0.00  0.00    -0.239 N 
ATOM     13  C   UNL     1       2.026   0.088   0.992  0.00  0.00    +0.164 C 
ATOM     14  O   UNL     1       2.542   0.253   2.081  0.00  0.00    -0.292 OA
ATOM     15  C   UNL     1       0.575  -0.312   0.908  0.00  0.00    +0.086 C 
ATOM     16  C   UNL     1      -1.471  -0.225  -0.527  0.00  0.00    +0.011 C 
ATOM     17  H   UNL     1       2.556   0.140  -3.364  0.00  0.00    +0.168 HD
ATOM     18  H   UNL     1       6.973   1.422  -1.064  0.00  0.00    +0.172 HD
ENDROOT
BRANCH   6  19
ATOM     19  C   UNL     1       4.307   1.983   0.694  0.00  0.00    +0.021 A 
ATOM     20  C   UNL     1       4.768   2.005   1.997  0.00  0.00    +0.009 A 
ATOM     21  C   UNL     1       4.834   3.201   2.687  0.00  0.00    +0.001 A 
ATOM     22  C   UNL     1       4.439   4.378   2.076  0.00  0.00    +0.004 A 
ATOM     23  C   UNL     1       3.978   4.360   0.774  0.00  0.00    +0.046 A 
ATOM     24  C   UNL     1       3.916   3.162   0.078  0.00  0.00    +0.125 A 
BRANCH  24  25
ATOM     25  O   UNL     1       3.468   3.143  -1.205  0.00  0.00    -0.495 OA
ATOM     26  C   UNL     1       3.083   4.396  -1.776  0.00  0.00    +0.277 C 
ENDBRANCH  24  25
ENDBRANCH   6  19
BRANCH  11  27
ATOM     27  S   UNL     1       7.724   1.568  -4.014  0.00  0.00    -0.084 S 
BRANCH  27  28
ATOM     28  C   UNL     1       7.149   1.371  -5.723  0.00  0.00    +0.112 C 
BRANCH  28  29
ATOM     29  C   UNL     1       8.282   1.667  -6.671  0.00  0.00    -0.037 A 
ATOM     30  C   UNL     1       8.484   2.957  -7.127  0.00  0.00    +0.004 A 
ATOM     31  C   UNL     1       9.523   3.228  -7.996  0.00  0.00    +0.000 A 
ATOM     32  C   UNL     1      10.361   2.209  -8.411  0.00  0.00    +0.000 A 
ATOM     33  C   UNL     1      10.160   0.920  -7.955  0.00  0.00    +0.000 A 
ATOM     34  C   UNL     1       9.123   0.649  -7.082  0.00  0.00    +0.004 A 
ENDBRANCH  28  29
ENDBRANCH  27  28
ENDBRANCH  11  27
TORSDOF 5
