REMARK  Name = ZINC19959744
REMARK  4 active torsions:
REMARK  status: ('A' for Active; 'I' for Inactive)
REMARK    1  A    between atoms: C_1  and  C_2
REMARK    2  A    between atoms: C_5  and  C_8
REMARK    3  A    between atoms: C_13  and  C_18
REMARK    4  A    between atoms: C_23  and  C_25
REMARK                            x       y       z     vdW  Elec       q    Type
REMARK                         _______ _______ _______ _____ _____    ______ ____
ROOT
ATOM      1  C   UNL     1      -0.076   5.774   0.032  0.00  0.00    +0.175 C 
ATOM      2  C   UNL     1      -0.772   6.261   1.284  0.00  0.00    +0.041 C 
ATOM      3  C   UNL     1      -2.015   6.786   1.257  0.00  0.00    +0.020 C 
ATOM      4  C   UNL     1      -2.694   7.240   2.528  0.00  0.00    +0.055 C 
ATOM      5  C   UNL     1      -1.644   7.744   3.520  0.00  0.00    -0.001 C 
ATOM      6  C   UNL     1      -0.656   6.607   3.797  0.00  0.00    +0.083 C 
ATOM      7  C   UNL     1      -0.065   6.144   2.495  0.00  0.00    +0.163 C 
ATOM      8  O   UNL     1       1.049   5.659   2.487  0.00  0.00    -0.292 OA
ATOM      9  C   UNL     1      -2.326   8.164   4.823  0.00  0.00    +0.008 C 
ATOM     10  N   UNL     1      -2.717   6.928   0.083  0.00  0.00    -0.287 N 
ATOM     11  C   UNL     1      -2.027   6.789  -1.110  0.00  0.00    +0.219 A 
ATOM     12  N   UNL     1      -0.781   6.254  -1.149  0.00  0.00    -0.220 N 
ATOM     13  N   UNL     1      -0.384   6.273  -2.486  0.00  0.00    -0.143 NA
ATOM     14  C   UNL     1      -1.374   6.796  -3.167  0.00  0.00    +0.256 A 
ATOM     15  N   UNL     1      -2.368   7.107  -2.328  0.00  0.00    -0.189 NA
ATOM     16  H   UNL     1      -3.795   7.145   0.110  0.00  0.00    +0.155 HD
ENDROOT
BRANCH   1  21
ATOM     17  C   UNL     1       0.002  -0.004   0.002  0.00  0.00    +0.044 C 
ATOM     18  C   UNL     1      -0.018   1.503   0.010  0.00  0.00    -0.050 A 
ATOM     19  C   UNL     1      -1.225   2.178   0.020  0.00  0.00    +0.004 A 
ATOM     20  C   UNL     1      -1.244   3.560   0.032  0.00  0.00    +0.006 A 
ATOM     21  C   UNL     1      -0.056   4.267   0.025  0.00  0.00    -0.018 A 
ATOM     22  C   UNL     1       1.151   3.592   0.010  0.00  0.00    +0.006 A 
ATOM     23  C   UNL     1       1.169   2.210   0.003  0.00  0.00    +0.004 A 
ENDBRANCH   1  21
BRANCH  14  24
ATOM     24  C   UNL     1      -1.389   7.013  -4.658  0.00  0.00    +0.454 C 
ATOM     25  F   UNL     1      -2.209   6.053  -5.260  0.00  0.00    -0.163 F 
ATOM     26  F   UNL     1      -1.885   8.291  -4.938  0.00  0.00    -0.163 F 
ATOM     27  F   UNL     1      -0.088   6.897  -5.159  0.00  0.00    -0.163 F 
ENDBRANCH  14  24
TORSDOF 2
