REMARK  Name = ZINC27029694
REMARK  4 active torsions:
REMARK  status: ('A' for Active; 'I' for Inactive)
REMARK    1  A    between atoms: C_9  and  S_11
REMARK    2  A    between atoms: S_11  and  C_12
REMARK    3  A    between atoms: C_12  and  C_13
REMARK    4  A    between atoms: C_17  and  N_21
REMARK                            x       y       z     vdW  Elec       q    Type
REMARK                         _______ _______ _______ _____ _____    ______ ____
ROOT
ATOM      1  C   UNL     1       5.242   4.449  -0.023  0.00  0.00    +0.134 C 
ENDROOT
BRANCH   1   2
ATOM      2  C   UNL     1       6.716   4.763  -0.035  0.00  0.00    +0.071 A 
ATOM      3  C   UNL     1       7.474   4.933  -1.130  0.00  0.00    +0.117 A 
ATOM      4  N   UNL     1       8.773   5.208  -0.709  0.00  0.00    -0.298 N 
ATOM      5  C   UNL     1      10.002   5.474  -1.271  0.00  0.00    +0.133 A 
ATOM      6  C   UNL     1      11.069   5.697  -0.505  0.00  0.00    +0.183 A 
ATOM      7  S   UNL     1      10.383   5.539   1.137  0.00  0.00    -0.025 S 
ATOM      8  C   UNL     1       8.708   5.184   0.660  0.00  0.00    +0.180 A 
ATOM      9  N   UNL     1       7.492   4.927   1.048  0.00  0.00    -0.225 NA
BRANCH   6  10
ATOM     10  N   UNL     1      12.460   5.997  -0.909  0.00  0.00    +0.065 N 
ATOM     11  O   UNL     1      12.750   6.067  -2.090  0.00  0.00    -0.126 OA
ATOM     12  O   UNL     1      13.316   6.174  -0.061  0.00  0.00    -0.126 OA
ENDBRANCH   6  10
ENDBRANCH   1   2
BRANCH   1  13
ATOM     13  S   UNL     1       5.008   2.654  -0.030  0.00  0.00    -0.082 S 
BRANCH  13  22
ATOM     14  C   UNL     1      -1.216   1.751   0.017  0.00  0.00    +0.002 A 
ATOM     15  C   UNL     1      -1.243   3.138   0.030  0.00  0.00    +0.002 A 
ATOM     16  C   UNL     1      -0.071   3.860   0.023  0.00  0.00    +0.030 A 
ATOM     17  C   UNL     1       1.156   3.191   0.008  0.00  0.00    +0.090 A 
ATOM     18  C   UNL     1       1.178   1.787   0.000  0.00  0.00    +0.067 A 
ATOM     19  C   UNL     1      -0.013   1.076   0.008  0.00  0.00    +0.028 A 
ATOM     20  N   UNL     1       2.514   1.422  -0.014  0.00  0.00    -0.333 N 
ATOM     21  H   UNL     1       2.794   0.358  -0.022  0.00  0.00    +0.168 HD
ATOM     22  C   UNL     1       3.248   2.575  -0.015  0.00  0.00    +0.168 A 
ATOM     23  N   UNL     1       2.448   3.612  -0.001  0.00  0.00    -0.222 NA
ENDBRANCH  13  22
ENDBRANCH   1  13
TORSDOF 4
