REMARK  Name = ZINC00870312
REMARK  11 active torsions:
REMARK  status: ('A' for Active; 'I' for Inactive)
REMARK    1  A    between atoms: C_1  and  C_2
REMARK    2  A    between atoms: C_2  and  C_4
REMARK    3  A    between atoms: C_8  and  C_10
REMARK    4  A    between atoms: C_10  and  C_11
REMARK    5  A    between atoms: C_10  and  C_12
REMARK    6  A    between atoms: C_10  and  N_13
REMARK    7  A    between atoms: N_16  and  C_17
REMARK    8  A    between atoms: C_17  and  C_18
REMARK    9  A    between atoms: C_18  and  C_19
REMARK   10  A    between atoms: C_22  and  S_25
REMARK   11  A    between atoms: S_25  and  N_28
REMARK                            x       y       z     vdW  Elec       q    Type
REMARK                         _______ _______ _______ _____ _____    ______ ____
ROOT
ATOM      1  N   UNL     1      -0.011   0.966   0.002  0.00  0.00    -0.290 N 
ATOM      2  C   UNL     1       1.146   1.654   0.075  0.00  0.00    +0.300 C 
ATOM      3  O   UNL     1       1.129   2.866   0.159  0.00  0.00    -0.253 OA
ATOM      4  N   UNL     1       2.323   0.997   0.055  0.00  0.00    -0.299 N 
ATOM      5  H   UNL     1       0.003  -0.001  -0.066  0.00  0.00    +0.151 HD
ATOM      6  H   UNL     1       2.337   0.029  -0.013  0.00  0.00    +0.150 HD
ENDROOT
BRANCH   1   7
ATOM      7  C   UNL     1      -1.290   1.681   0.017  0.00  0.00    +0.056 C 
ATOM      8  C   UNL     1      -1.427   2.451   1.332  0.00  0.00    +0.036 C 
ATOM      9  C   UNL     1      -1.340   2.662  -1.156  0.00  0.00    +0.036 C 
BRANCH   7  14
ATOM     10  C   UNL     1      -3.248  -1.447  -0.819  0.00  0.00    -0.022 A 
ATOM     11  C   UNL     1      -4.511  -1.118  -0.325  0.00  0.00    +0.008 A 
ATOM     12  C   UNL     1      -4.716   0.109   0.272  0.00  0.00    +0.001 A 
ATOM     13  C   UNL     1      -3.672   1.010   0.386  0.00  0.00    +0.006 A 
ATOM     14  C   UNL     1      -2.420   0.692  -0.107  0.00  0.00    -0.024 A 
ATOM     15  C   UNL     1      -2.201  -0.532  -0.706  0.00  0.00    +0.014 A 
BRANCH  10  17
ATOM     16  C   UNL     1      -3.722  -3.101  -2.749  0.00  0.00    +0.044 C 
ATOM     17  C   UNL     1      -3.020  -2.760  -1.460  0.00  0.00    -0.050 C 
ATOM     18  C   UNL     1      -2.199  -3.637  -0.900  0.00  0.00    +0.012 C 
ENDBRANCH  10  17
ENDBRANCH   7  14
ENDBRANCH   1   7
BRANCH   4  19
ATOM     19  C   UNL     1       3.580   1.744   0.135  0.00  0.00    +0.110 C 
BRANCH  19  20
ATOM     20  C   UNL     1       4.757   0.767   0.092  0.00  0.00    +0.054 C 
BRANCH  20  21
ATOM     21  C   UNL     1       6.051   1.535   0.174  0.00  0.00    -0.046 A 
ATOM     22  C   UNL     1       6.673   1.966  -0.983  0.00  0.00    +0.005 A 
ATOM     23  C   UNL     1       7.858   2.675  -0.907  0.00  0.00    +0.029 A 
ATOM     24  C   UNL     1       8.425   2.945   0.325  0.00  0.00    +0.105 A 
ATOM     25  C   UNL     1       7.805   2.509   1.481  0.00  0.00    +0.029 A 
ATOM     26  C   UNL     1       6.618   1.804   1.406  0.00  0.00    +0.005 A 
BRANCH  24  27
ATOM     27  S   UNL     1       9.937   3.844   0.421  0.00  0.00    +0.056 S 
ATOM     28  O   UNL     1      10.030   4.610  -0.773  0.00  0.00    -0.153 OA
ATOM     29  O   UNL     1       9.975   4.438   1.711  0.00  0.00    -0.153 OA
BRANCH  27  30
ATOM     30  N   UNL     1      11.168   2.738   0.371  0.00  0.00    -0.204 NA
ATOM     31  H   UNL     1      10.968   1.792   0.301  0.00  0.00    +0.144 HD
ATOM     32  H   UNL     1      12.090   3.037   0.413  0.00  0.00    +0.144 HD
ENDBRANCH  27  30
ENDBRANCH  24  27
ENDBRANCH  20  21
ENDBRANCH  19  20
ENDBRANCH   4  19
TORSDOF 8
