REMARK  Name = ZINC36206514
REMARK  14 active torsions:
REMARK  status: ('A' for Active; 'I' for Inactive)
REMARK    1  A    between atoms: C_1  and  C_2
REMARK    2  A    between atoms: C_2  and  O_3
REMARK    3  A    between atoms: O_3  and  C_4
REMARK    4  A    between atoms: C_4  and  C_5
REMARK    5  A    between atoms: C_5  and  C_7
REMARK    6  A    between atoms: C_5  and  O_36
REMARK    7  A    between atoms: C_7  and  N_8
REMARK    8  A    between atoms: N_8  and  C_9
REMARK    9  A    between atoms: N_8  and  C_16
REMARK   10  A    between atoms: C_9  and  C_10
REMARK   11  A    between atoms: C_16  and  C_17
REMARK   12  A    between atoms: C_23  and  C_28
REMARK   13  A    between atoms: C_30  and  C_35
REMARK   14  A    between atoms: C_33  and  C_34
REMARK                            x       y       z     vdW  Elec       q    Type
REMARK                         _______ _______ _______ _____ _____    ______ ____
ROOT
ATOM      1  C   UNL     1      -6.104  -6.155   0.641  0.00  0.00    +0.094 A 
ATOM      2  N   UNL     1      -6.466  -7.444   0.864  0.00  0.00    -0.312 N 
ATOM      3  H   UNL     1      -5.779  -8.124   0.946  0.00  0.00    +0.170 HD
ATOM      4  C   UNL     1      -7.760  -7.798   0.973  0.00  0.00    +0.260 A 
ATOM      5  O   UNL     1      -8.069  -8.960   1.174  0.00  0.00    -0.267 OA
ATOM      6  C   UNL     1      -8.768  -6.790   0.851  0.00  0.00    +0.080 A 
ATOM      7  C   UNL     1     -10.218  -6.920   0.930  0.00  0.00    +0.004 A 
ATOM      8  C   UNL     1     -10.981  -5.810   0.782  0.00  0.00    +0.056 A 
ATOM      9  S   UNL     1      -9.781  -4.516   0.524  0.00  0.00    -0.076 S 
ATOM     10  C   UNL     1      -8.299  -5.486   0.620  0.00  0.00    +0.116 A 
ATOM     11  N   UNL     1      -7.000  -5.212   0.530  0.00  0.00    -0.229 NA
ENDROOT
BRANCH   7  12
ATOM     12  C   UNL     1     -10.846  -8.241   1.169  0.00  0.00    -0.013 A 
ATOM     13  C   UNL     1     -11.642  -8.825   0.185  0.00  0.00    +0.012 A 
ATOM     14  C   UNL     1     -12.224 -10.056   0.413  0.00  0.00    -0.050 A 
ATOM     15  C   UNL     1     -12.017 -10.710   1.615  0.00  0.00    +0.003 A 
ATOM     16  C   UNL     1     -11.228 -10.135   2.595  0.00  0.00    +0.004 A 
ATOM     17  C   UNL     1     -10.637  -8.907   2.376  0.00  0.00    -0.043 A 
ATOM     18  C   UNL     1      -9.772  -8.285   3.442  0.00  0.00    +0.044 C 
ATOM     19  C   UNL     1     -13.085 -10.689  -0.649  0.00  0.00    +0.044 C 
ENDBRANCH   7  12
BRANCH   1  20
ATOM     20  C   UNL     1      -4.642  -5.806   0.526  0.00  0.00    -0.003 C 
BRANCH  20  21
ATOM     21  N   UNL     1      -4.501  -4.362   0.293  0.00  0.00    +0.389 N 
ATOM     22  H   UNL     1      -5.043  -4.097  -0.515  0.00  0.00    -0.081 HD
BRANCH  21  23
ATOM     23  C   UNL     1      -3.087  -4.039   0.062  0.00  0.00    -0.044 C 
BRANCH  23  24
ATOM     24  C   UNL     1      -2.956  -2.564  -0.323  0.00  0.00    +0.124 C 
BRANCH  24  25
ATOM     25  O   UNL     1      -3.660  -2.328  -1.544  0.00  0.00    -0.391 OA
ATOM     26  H   UNL     1      -3.335  -2.848  -2.292  0.00  0.00    +0.210 HD
ENDBRANCH  24  25
BRANCH  24  27
ATOM     27  C   UNL     1      -1.479  -2.215  -0.509  0.00  0.00    +0.189 C 
BRANCH  27  28
ATOM     28  O   UNL     1      -1.348  -0.813  -0.755  0.00  0.00    -0.378 OA
BRANCH  28  30
ATOM     29  C   UNL     1       0.019   1.130  -1.198  0.00  0.00    +0.034 C 
ATOM     30  C   UNL     1       0.000  -0.379  -0.944  0.00  0.00    +0.156 C 
ENDBRANCH  28  30
ENDBRANCH  27  28
ENDBRANCH  24  27
ENDBRANCH  23  24
ENDBRANCH  21  23
BRANCH  21  31
ATOM     31  C   UNL     1      -4.985  -3.627   1.470  0.00  0.00    -0.042 C 
BRANCH  31  32
ATOM     32  C   UNL     1      -4.147  -3.990   2.669  0.00  0.00    -0.064 A 
ATOM     33  C   UNL     1      -4.499  -5.069   3.457  0.00  0.00    +0.002 A 
ATOM     34  C   UNL     1      -3.731  -5.402   4.557  0.00  0.00    +0.000 A 
ATOM     35  C   UNL     1      -2.610  -4.655   4.868  0.00  0.00    +0.000 A 
ATOM     36  C   UNL     1      -2.257  -3.576   4.079  0.00  0.00    +0.000 A 
ATOM     37  C   UNL     1      -3.023  -3.246   2.977  0.00  0.00    +0.002 A 
ENDBRANCH  31  32
ENDBRANCH  21  31
ENDBRANCH  20  21
ENDBRANCH   1  20
TORSDOF 11
