REMARK  Name = ZINC15859973
REMARK  6 active torsions:
REMARK  status: ('A' for Active; 'I' for Inactive)
REMARK    1  A    between atoms: C_3  and  C_6
REMARK    2  A    between atoms: C_6  and  C_8
REMARK    3  A    between atoms: C_6  and  N_59
REMARK    4  A    between atoms: C_8  and  N_9
REMARK    5  A    between atoms: C_10  and  C_12
REMARK    6  A    between atoms: C_14  and  C_17
REMARK                            x       y       z     vdW  Elec       q    Type
REMARK                         _______ _______ _______ _____ _____    ______ ____
ROOT
ATOM      1  N   UNL     1      -7.815  -2.791  -0.295  0.00  0.00    -0.311 N 
ATOM      2  C   UNL     1      -7.053  -1.727  -0.618  0.00  0.00    +0.266 C 
ATOM      3  O   UNL     1      -7.577  -0.696  -0.990  0.00  0.00    -0.268 OA
ATOM      4  H   UNL     1      -7.396  -3.614   0.002  0.00  0.00    +0.149 HD
ENDROOT
BRANCH   2   5
ATOM      5  C   UNL     1      -5.576  -1.814  -0.519  0.00  0.00    +0.168 A 
ATOM      6  C   UNL     1      -4.641  -0.789  -0.815  0.00  0.00    +0.086 A 
ATOM      7  C   UNL     1      -3.429  -1.371  -0.568  0.00  0.00    +0.168 A 
ATOM      8  O   UNL     1      -3.687  -2.625  -0.157  0.00  0.00    -0.354 OA
ATOM      9  N   UNL     1      -4.874  -2.853  -0.135  0.00  0.00    -0.073 NA
BRANCH   7  10
ATOM     10  C   UNL     1      -2.099  -0.744  -0.716  0.00  0.00    +0.024 A 
ATOM     11  C   UNL     1      -1.992   0.577  -1.157  0.00  0.00    +0.015 A 
ATOM     12  C   UNL     1      -0.750   1.157  -1.299  0.00  0.00    +0.050 A 
ATOM     13  C   UNL     1       0.398   0.436  -1.000  0.00  0.00    +0.162 A 
ATOM     14  C   UNL     1       0.299  -0.880  -0.558  0.00  0.00    +0.163 A 
ATOM     15  C   UNL     1      -0.945  -1.470  -0.417  0.00  0.00    +0.061 A 
ATOM     16  O   UNL     1       1.415  -1.601  -0.259  0.00  0.00    -0.485 OA
ATOM     17  C   UNL     1       2.657  -1.104  -0.769  0.00  0.00    +0.270 C 
ATOM     18  C   UNL     1       2.721   0.404  -0.490  0.00  0.00    +0.270 C 
ATOM     19  O   UNL     1       1.614   1.029  -1.149  0.00  0.00    -0.485 OA
ENDBRANCH   7  10
ENDBRANCH   2   5
BRANCH   1  20
ATOM     20  C   UNL     1      -9.274  -2.705  -0.392  0.00  0.00    +0.094 C 
BRANCH  20  21
ATOM     21  C   UNL     1      -9.893  -4.039   0.028  0.00  0.00    -0.013 C 
BRANCH  21  28
ATOM     22  C   UNL     1      -9.472  -4.850  -2.224  0.00  0.00    -0.078 C 
ATOM     23  C   UNL     1      -9.146  -6.042  -3.082  0.00  0.00    -0.019 C 
ATOM     24  C   UNL     1     -10.453  -6.810  -3.369  0.00  0.00    -0.002 C 
ATOM     25  C   UNL     1     -10.866  -7.636  -2.240  0.00  0.00    -0.002 C 
ATOM     26  C   UNL     1     -11.144  -6.796  -0.975  0.00  0.00    -0.019 C 
ATOM     27  C   UNL     1      -9.827  -6.441  -0.340  0.00  0.00    -0.078 C 
ATOM     28  N   UNL     1      -9.264  -5.112  -0.759  0.00  0.00    +0.386 N 
ATOM     29  H   UNL     1      -8.255  -5.114  -0.570  0.00  0.00    -0.081 HD
ENDBRANCH  21  28
BRANCH  21  32
ATOM     30  C   UNL     1     -13.694  -4.112   0.274  0.00  0.00    +0.008 A 
ATOM     31  C   UNL     1     -12.383  -4.212   0.700  0.00  0.00    +0.009 A 
ATOM     32  C   UNL     1     -11.384  -3.992  -0.189  0.00  0.00    -0.022 A 
ATOM     33  S   UNL     1     -12.291  -3.624  -1.681  0.00  0.00    -0.103 S 
ATOM     34  C   UNL     1     -13.941  -3.797  -1.021  0.00  0.00    +0.045 A 
ENDBRANCH  21  32
ENDBRANCH  20  21
ENDBRANCH   1  20
TORSDOF 6
