REMARK  Name = ZINC18198470
REMARK  6 active torsions:
REMARK  status: ('A' for Active; 'I' for Inactive)
REMARK    1  A    between atoms: C_1  and  O_2
REMARK    2  A    between atoms: O_2  and  C_3
REMARK    3  A    between atoms: C_6  and  C_11
REMARK    4  A    between atoms: C_8  and  O_9
REMARK    5  A    between atoms: O_9  and  C_10
REMARK    6  A    between atoms: C_16  and  C_24
REMARK                            x       y       z     vdW  Elec       q    Type
REMARK                         _______ _______ _______ _____ _____    ______ ____
ROOT
ATOM      1  C   UNL     1       4.622   4.567   3.430  0.00  0.00    +0.032 C 
ATOM      2  C   UNL     1       3.647   5.212   2.442  0.00  0.00    +0.060 C 
ATOM      3  C   UNL     1       3.579   4.383   1.181  0.00  0.00    +0.020 C 
ATOM      4  C   UNL     1       3.751   3.045   1.221  0.00  0.00    +0.041 C 
ATOM      5  C   UNL     1       3.671   2.185  -0.021  0.00  0.00    +0.177 C 
ATOM      6  N   UNL     1       3.725   3.026  -1.211  0.00  0.00    -0.221 N 
ATOM      7  C   UNL     1       3.565   4.370  -1.185  0.00  0.00    +0.218 A 
ATOM      8  N   UNL     1       3.663   4.812  -2.409  0.00  0.00    -0.201 NA
ATOM      9  C   UNL     1       3.886   3.793  -3.235  0.00  0.00    +0.247 A 
ATOM     10  N   UNL     1       3.934   2.680  -2.545  0.00  0.00    -0.156 NA
ATOM     11  N   UNL     1       3.342   5.048   0.002  0.00  0.00    -0.287 N 
ATOM     12  C   UNL     1       4.016   2.388   2.437  0.00  0.00    +0.164 C 
ATOM     13  O   UNL     1       4.153   1.180   2.442  0.00  0.00    -0.292 OA
ATOM     14  C   UNL     1       4.134   3.146   3.729  0.00  0.00    +0.088 C 
ATOM     15  H   UNL     1       3.027   5.965   0.001  0.00  0.00    +0.155 HD
ENDROOT
BRANCH   5  16
ATOM     16  C   UNL     1       2.377   1.413  -0.013  0.00  0.00    -0.000 A 
ATOM     17  C   UNL     1       1.170   2.087   0.002  0.00  0.00    +0.009 A 
ATOM     18  C   UNL     1      -0.017   1.380   0.010  0.00  0.00    +0.020 A 
ATOM     19  C   UNL     1       0.002  -0.004   0.002  0.00  0.00    +0.042 A 
ATOM     20  C   UNL     1       1.209  -0.679  -0.013  0.00  0.00    +0.040 A 
ATOM     21  C   UNL     1       2.397   0.030  -0.021  0.00  0.00    +0.048 A 
ATOM     22 CL   UNL     1       3.913  -0.816  -0.040  0.00  0.00    -0.083 Cl
ATOM     23 CL   UNL     1      -1.489  -0.893   0.011  0.00  0.00    -0.083 Cl
ENDBRANCH   5  16
BRANCH   1  27
ATOM     24  C   UNL     1       4.720   6.846   7.047  0.00  0.00    +0.161 A 
ATOM     25  C   UNL     1       3.527   6.300   6.601  0.00  0.00    +0.049 A 
ATOM     26  C   UNL     1       3.497   5.569   5.428  0.00  0.00    +0.008 A 
ATOM     27  C   UNL     1       4.658   5.371   4.704  0.00  0.00    -0.040 A 
ATOM     28  C   UNL     1       5.852   5.913   5.144  0.00  0.00    +0.053 A 
ATOM     29  C   UNL     1       5.887   6.652   6.315  0.00  0.00    +0.162 A 
BRANCH  24  31
ATOM     30  C   UNL     1       3.513   7.730   8.896  0.00  0.00    +0.277 C 
ATOM     31  O   UNL     1       4.749   7.571   8.197  0.00  0.00    -0.491 OA
ENDBRANCH  24  31
BRANCH  29  32
ATOM     32  O   UNL     1       7.060   7.186   6.749  0.00  0.00    -0.491 OA
ATOM     33  C   UNL     1       8.218   6.946   5.947  0.00  0.00    +0.277 C 
ENDBRANCH  29  32
ENDBRANCH   1  27
TORSDOF 4
