REMARK  Name = ZINC46056159
REMARK  9 active torsions:
REMARK  status: ('A' for Active; 'I' for Inactive)
REMARK    1  A    between atoms: C_1  and  C_2
REMARK    2  A    between atoms: C_2  and  C_3
REMARK    3  A    between atoms: C_10  and  C_35
REMARK    4  A    between atoms: C_11  and  S_15
REMARK    5  A    between atoms: S_15  and  N_18
REMARK    6  A    between atoms: N_18  and  C_19
REMARK    7  A    between atoms: N_18  and  C_20
REMARK    8  A    between atoms: C_20  and  C_21
REMARK    9  A    between atoms: N_26  and  C_29
REMARK                            x       y       z     vdW  Elec       q    Type
REMARK                         _______ _______ _______ _____ _____    ______ ____
ROOT
ATOM      1  S   UNL     1       6.115   0.080  -2.441  0.00  0.00    +0.061 S 
ATOM      2  O   UNL     1       5.875  -0.551  -3.692  0.00  0.00    -0.153 OA
ATOM      3  O   UNL     1       6.096   1.492  -2.284  0.00  0.00    -0.153 OA
ENDROOT
BRANCH   1  11
ATOM      4  C   UNL     1       2.020   0.168   2.347  0.00  0.00    +0.259 C 
ATOM      5  C   UNL     1       1.619  -1.285   2.315  0.00  0.00    +0.258 C 
ATOM      6  O   UNL     1       0.873  -1.730   3.162  0.00  0.00    -0.271 OA
ATOM      7  N   UNL     1       2.093  -2.089   1.340  0.00  0.00    -0.280 N 
ATOM      8  C   UNL     1       3.051  -1.590   0.448  0.00  0.00    +0.076 A 
ATOM      9  C   UNL     1       3.390  -2.301  -0.693  0.00  0.00    +0.032 A 
ATOM     10  C   UNL     1       4.327  -1.789  -1.570  0.00  0.00    -0.022 A 
ATOM     11  C   UNL     1       4.926  -0.569  -1.314  0.00  0.00    +0.112 A 
ATOM     12  C   UNL     1       4.596   0.143  -0.175  0.00  0.00    +0.076 A 
ATOM     13  C   UNL     1       3.663  -0.366   0.711  0.00  0.00    +0.145 A 
ATOM     14  O   UNL     1       3.353   0.309   1.849  0.00  0.00    -0.478 OA
ATOM     15  C   UNL     1       4.697  -2.561  -2.810  0.00  0.00    +0.046 C 
ATOM     16  H   UNL     1       1.775  -3.002   1.259  0.00  0.00    +0.155 HD
BRANCH   4  18
ATOM     17  C   UNL     1       1.390   2.469   1.604  0.00  0.00    +0.008 C 
ATOM     18  C   UNL     1       1.062   0.980   1.473  0.00  0.00    +0.051 C 
ENDBRANCH   4  18
ENDBRANCH   1  11
BRANCH   1  19
ATOM     19  N   UNL     1       7.605  -0.433  -1.931  0.00  0.00    -0.171 NA
ATOM     20  C   UNL     1       8.231  -1.601  -2.555  0.00  0.00    +0.132 C 
BRANCH  19  21
ATOM     21  C   UNL     1       8.296   0.281  -0.855  0.00  0.00    +0.205 C 
BRANCH  21  22
ATOM     22  C   UNL     1       8.011  -0.395   0.462  0.00  0.00    +0.231 C 
ATOM     23  O   UNL     1       7.300  -1.377   0.497  0.00  0.00    -0.274 OA
ATOM     24  N   UNL     1       8.546   0.092   1.599  0.00  0.00    -0.304 N 
ATOM     25  C   UNL     1       9.406   1.285   1.580  0.00  0.00    +0.089 C 
ATOM     26  C   UNL     1       8.894   2.270   2.636  0.00  0.00    -0.059 C 
ATOM     27  N   UNL     1       8.822   1.595   3.939  0.00  0.00    +0.384 N 
ATOM     28  C   UNL     1       7.827   0.517   3.889  0.00  0.00    -0.059 C 
ATOM     29  C   UNL     1       8.281  -0.551   2.895  0.00  0.00    +0.089 C 
ATOM     30  H   UNL     1       9.725   1.208   4.166  0.00  0.00    -0.081 HD
BRANCH  27  31
ATOM     31  C   UNL     1       8.436   2.567   4.971  0.00  0.00    -0.068 C 
ATOM     32  C   UNL     1       9.478   3.686   5.032  0.00  0.00    -0.015 C 
ATOM     33  C   UNL     1       9.077   4.698   6.107  0.00  0.00    -0.002 C 
ATOM     34  C   UNL     1       9.001   3.997   7.465  0.00  0.00    -0.000 C 
ATOM     35  C   UNL     1       7.959   2.878   7.403  0.00  0.00    -0.002 C 
ATOM     36  C   UNL     1       8.361   1.866   6.329  0.00  0.00    -0.015 C 
ENDBRANCH  27  31
ENDBRANCH  21  22
ENDBRANCH  19  21
ENDBRANCH   1  19
TORSDOF 6
