REMARK  Name = ZINC00844152
REMARK  12 active torsions:
REMARK  status: ('A' for Active; 'I' for Inactive)
REMARK    1  A    between atoms: C_1  and  C_2
REMARK    2  A    between atoms: C_2  and  O_3
REMARK    3  A    between atoms: O_3  and  C_4
REMARK    4  A    between atoms: C_6  and  C_12
REMARK    5  A    between atoms: C_9  and  O_10
REMARK    6  A    between atoms: C_17  and  C_21
REMARK    7  A    between atoms: C_17  and  C_22
REMARK    8  A    between atoms: C_24  and  C_31
REMARK    9  A    between atoms: C_25  and  C_26
REMARK   10  A    between atoms: C_26  and  O_28
REMARK   11  A    between atoms: O_28  and  C_29
REMARK   12  A    between atoms: C_29  and  C_30
REMARK                            x       y       z     vdW  Elec       q    Type
REMARK                         _______ _______ _______ _____ _____    ______ ____
ROOT
ATOM      1  C   UNL     1      -1.409  -0.787   0.004  0.00  0.00    +0.092 C 
ATOM      2  C   UNL     1      -0.060  -0.113  -0.011  0.00  0.00    +0.024 C 
ATOM      3  C   UNL     1       0.039   1.233   0.004  0.00  0.00    +0.016 C 
ATOM      4  C   UNL     1       1.385   1.913  -0.008  0.00  0.00    +0.058 C 
ATOM      5  C   UNL     1       2.416   1.026   0.696  0.00  0.00    -0.023 C 
ATOM      6  C   UNL     1       2.467  -0.324  -0.026  0.00  0.00    +0.086 C 
ATOM      7  C   UNL     1       1.088  -0.925  -0.038  0.00  0.00    +0.162 C 
ATOM      8  O   UNL     1       0.963  -2.133  -0.073  0.00  0.00    -0.292 OA
ATOM      9  C   UNL     1       2.002   0.815   2.153  0.00  0.00    +0.011 C 
ATOM     10  C   UNL     1       3.793   1.690   0.643  0.00  0.00    +0.011 C 
ATOM     11  N   UNL     1      -1.087   2.012   0.026  0.00  0.00    -0.321 N 
ATOM     12  C   UNL     1      -2.295   1.502  -0.355  0.00  0.00    +0.016 C 
ATOM     13  C   UNL     1      -2.495   0.173  -0.386  0.00  0.00    +0.065 C 
ATOM     14  C   UNL     1      -3.412   2.436  -0.746  0.00  0.00    +0.061 C 
ATOM     15  H   UNL     1      -1.023   3.061   0.353  0.00  0.00    +0.152 HD
ENDROOT
BRANCH   1  18
ATOM     16  C   UNL     1      -2.148  -3.141   2.865  0.00  0.00    +0.163 A 
ATOM     17  C   UNL     1      -1.895  -2.660   1.591  0.00  0.00    +0.054 A 
ATOM     18  C   UNL     1      -1.686  -1.308   1.391  0.00  0.00    -0.030 A 
ATOM     19  C   UNL     1      -1.725  -0.434   2.461  0.00  0.00    +0.023 A 
ATOM     20  C   UNL     1      -1.984  -0.907   3.735  0.00  0.00    +0.063 A 
ATOM     21  C   UNL     1      -2.193  -2.261   3.942  0.00  0.00    +0.173 A 
ATOM     22 BR   UNL     1      -2.043   0.293   5.195  0.00  0.00    -0.046 Br
BRANCH  21  23
ATOM     23  O   UNL     1      -2.441  -2.729   5.194  0.00  0.00    -0.503 OA
ATOM     24  H   UNL     1      -2.477  -2.033   6.045  0.00  0.00    +0.292 HD
ENDBRANCH  21  23
BRANCH  16  25
ATOM     25  O   UNL     1      -2.353  -4.471   3.063  0.00  0.00    -0.489 OA
BRANCH  25  27
ATOM     26  C   UNL     1      -2.545  -6.766   2.328  0.00  0.00    +0.048 C 
ATOM     27  C   UNL     1      -2.292  -5.315   1.911  0.00  0.00    +0.226 C 
ENDBRANCH  25  27
ENDBRANCH  16  25
ENDBRANCH   1  18
BRANCH  13  28
ATOM     28  C   UNL     1      -3.752  -0.330  -0.794  0.00  0.00    +0.338 C 
ATOM     29  O   UNL     1      -4.673   0.435  -1.011  0.00  0.00    -0.245 OA
BRANCH  28  30
ATOM     30  O   UNL     1      -3.930  -1.660  -0.944  0.00  0.00    -0.462 OA
BRANCH  30  31
ATOM     31  C   UNL     1      -5.226  -2.098  -1.359  0.00  0.00    +0.229 C 
ATOM     32  C   UNL     1      -5.236  -3.623  -1.472  0.00  0.00    +0.048 C 
ENDBRANCH  30  31
ENDBRANCH  28  30
ENDBRANCH  13  28
TORSDOF 7
