REMARK  Name = ZINC26548190
REMARK  1 active torsions:
REMARK  status: ('A' for Active; 'I' for Inactive)
REMARK    1  A    between atoms: C_4  and  C_6
REMARK                            x       y       z     vdW  Elec       q    Type
REMARK                         _______ _______ _______ _____ _____    ______ ____
ROOT
ATOM      1  C   UNL     1       2.035   0.606  -0.014  0.00  0.00    +0.159 A 
ATOM      2  N   UNL     1       1.223  -0.414  -0.012  0.00  0.00    -0.131 NA
ATOM      3  N   UNL     1       0.002  -0.004   0.002  0.00  0.00    -0.120 NA
ATOM      4  C   UNL     1      -0.015   1.295   0.009  0.00  0.00    +0.219 A 
ATOM      5  N   UNL     1       1.276   1.757  -0.001  0.00  0.00    -0.188 N 
ATOM      6  N   UNL     1       1.442   3.136   0.006  0.00  0.00    -0.141 NA
ATOM      7  C   UNL     1       0.413   3.942   0.021  0.00  0.00    +0.179 A 
ATOM      8  S   UNL     1      -0.959   2.798   0.032  0.00  0.00    -0.012 S 
ATOM      9  N   UNL     1       0.392   5.326   0.029  0.00  0.00    -0.336 N 
ATOM     10  H   UNL     1      -0.569   5.862   0.042  0.00  0.00    +0.144 HD
ATOM     11  H   UNL     1       1.336   5.891   0.024  0.00  0.00    +0.144 HD
ENDROOT
BRANCH   1  15
ATOM     12  C   UNL     1       5.249  -1.044  -0.753  0.00  0.00    +0.001 C 
ATOM     13  C   UNL     1       4.818  -1.454   0.677  0.00  0.00    +0.001 C 
ATOM     14  C   UNL     1       4.046  -0.228   1.206  0.00  0.00    +0.011 C 
ATOM     15  C   UNL     1       3.541   0.539  -0.028  0.00  0.00    +0.059 C 
ATOM     16  C   UNL     1       4.023  -0.246  -1.265  0.00  0.00    +0.011 C 
ENDBRANCH   1  15
TORSDOF 1
