REMARK  Name = ZINC09244745
REMARK  7 active torsions:
REMARK  status: ('A' for Active; 'I' for Inactive)
REMARK    1  A    between atoms: C_1  and  C_2
REMARK    2  A    between atoms: C_5  and  N_9
REMARK    3  A    between atoms: C_6  and  C_8
REMARK    4  A    between atoms: C_13  and  C_15
REMARK    5  A    between atoms: C_15  and  N_56
REMARK    6  A    between atoms: N_18  and  S_21
REMARK    7  A    between atoms: S_21  and  C_24
REMARK                            x       y       z     vdW  Elec       q    Type
REMARK                         _______ _______ _______ _____ _____    ______ ____
ROOT
ATOM      1  C   UNL     1      -1.747   3.515  -2.249  0.00  0.00    +0.019 C 
ENDROOT
BRANCH   1   6
ATOM      2  N   UNL     1      -3.675   7.614  -3.859  0.00  0.00    -0.269 N 
ATOM      3  C   UNL     1      -3.171   6.897  -2.834  0.00  0.00    +0.310 C 
ATOM      4  O   UNL     1      -3.110   7.387  -1.724  0.00  0.00    -0.252 OA
ATOM      5  N   UNL     1      -2.737   5.639  -3.042  0.00  0.00    -0.241 N 
ATOM      6  C   UNL     1      -2.233   4.922  -2.017  0.00  0.00    +0.204 C 
ATOM      7  O   UNL     1      -2.172   5.410  -0.909  0.00  0.00    -0.277 OA
ATOM      8  H   UNL     1      -3.791   7.201  -4.729  0.00  0.00    +0.156 HD
ATOM      9  H   UNL     1      -2.786   5.248  -3.928  0.00  0.00    +0.159 HD
BRANCH   2  14
ATOM     10  C   UNL     1      -5.112  13.047  -3.085  0.00  0.00    +0.044 C 
ATOM     11  C   UNL     1      -4.731  11.604  -3.291  0.00  0.00    -0.050 A 
ATOM     12  C   UNL     1      -4.761  10.723  -2.224  0.00  0.00    +0.005 A 
ATOM     13  C   UNL     1      -4.411   9.400  -2.409  0.00  0.00    +0.024 A 
ATOM     14  C   UNL     1      -4.030   8.954  -3.668  0.00  0.00    +0.038 A 
ATOM     15  C   UNL     1      -3.995   9.842  -4.735  0.00  0.00    -0.029 A 
ATOM     16  C   UNL     1      -4.351  11.163  -4.545  0.00  0.00    +0.008 A 
ATOM     17  C   UNL     1      -3.576   9.363  -6.101  0.00  0.00    +0.045 C 
ENDBRANCH   2  14
ENDBRANCH   1   6
BRANCH   1  23
ATOM     18  C   UNL     1      -2.106   2.891   0.063  0.00  0.00    -0.061 C 
ATOM     19  C   UNL     1      -1.460   2.190   1.263  0.00  0.00    +0.091 C 
ATOM     20  N   UNL     1      -0.225   2.904   1.617  0.00  0.00    -0.180 NA
ATOM     21  C   UNL     1       0.749   3.181   0.549  0.00  0.00    +0.091 C 
ATOM     22  C   UNL     1       0.016   3.844  -0.622  0.00  0.00    -0.061 C 
ATOM     23  N   UNL     1      -1.111   2.977  -1.028  0.00  0.00    +0.387 N 
ATOM     24  H   UNL     1      -0.753   2.035  -1.227  0.00  0.00    -0.081 HD
BRANCH  20  25
ATOM     25  S   UNL     1       0.060   3.388   3.175  0.00  0.00    +0.061 S 
ATOM     26  O   UNL     1       0.973   4.475   3.102  0.00  0.00    -0.153 OA
ATOM     27  O   UNL     1      -1.209   3.501   3.804  0.00  0.00    -0.153 OA
BRANCH  25  28
ATOM     28  C   UNL     1       0.907   2.072   3.983  0.00  0.00    +0.106 A 
ATOM     29  C   UNL     1       0.191   1.091   4.643  0.00  0.00    +0.031 A 
ATOM     30  C   UNL     1       0.854   0.055   5.273  0.00  0.00    +0.040 A 
ATOM     31  C   UNL     1       2.237   0.006   5.253  0.00  0.00    +0.124 A 
ATOM     32  C   UNL     1       2.955   0.992   4.597  0.00  0.00    +0.040 A 
ATOM     33  C   UNL     1       2.289   2.024   3.963  0.00  0.00    +0.031 A 
ATOM     34  F   UNL     1       2.887  -1.003   5.873  0.00  0.00    -0.205 F 
ENDBRANCH  25  28
ENDBRANCH  20  25
ENDBRANCH   1  23
TORSDOF 5
