REMARK  Name = ZINC15069342
REMARK  10 active torsions:
REMARK  status: ('A' for Active; 'I' for Inactive)
REMARK    1  A    between atoms: C_1  and  C_2
REMARK    2  A    between atoms: C_2  and  C_40
REMARK    3  A    between atoms: C_4  and  N_9
REMARK    4  A    between atoms: C_10  and  C_12
REMARK    5  A    between atoms: C_15  and  C_20
REMARK    6  A    between atoms: C_20  and  N_78
REMARK    7  A    between atoms: C_23  and  C_26
REMARK    8  A    between atoms: C_26  and  C_27
REMARK    9  A    between atoms: C_26  and  C_33
REMARK   10  A    between atoms: C_26  and  O_39
REMARK                            x       y       z     vdW  Elec       q    Type
REMARK                         _______ _______ _______ _____ _____    ______ ____
ROOT
ATOM      1  C   UNL     1      -0.027   1.463   0.025  0.00  0.00    -0.078 C 
ATOM      2  C   UNL     1       1.409   1.993   0.035  0.00  0.00    -0.012 C 
ATOM      3  C   UNL     1       2.134   1.466   1.276  0.00  0.00    +0.026 C 
ATOM      4  C   UNL     1       2.098  -0.064   1.268  0.00  0.00    -0.012 C 
ATOM      5  C   UNL     1       0.642  -0.534   1.223  0.00  0.00    -0.078 C 
ATOM      6  N   UNL     1       0.007  -0.015  -0.006  0.00  0.00    +0.383 N 
ATOM      7  H   UNL     1       0.558  -0.318  -0.819  0.00  0.00    -0.081 HD
ENDROOT
BRANCH   6   8
ATOM      8  C   UNL     1      -1.365  -0.548  -0.131  0.00  0.00    -0.025 C 
BRANCH   8  12
ATOM      9  C   UNL     1      -1.141  -4.740  -0.845  0.00  0.00    +0.101 A 
ATOM     10  C   UNL     1      -1.731  -4.267   0.325  0.00  0.00    +0.020 A 
ATOM     11  C   UNL     1      -1.790  -2.890   0.543  0.00  0.00    +0.020 A 
ATOM     12  C   UNL     1      -1.288  -2.032  -0.381  0.00  0.00    +0.003 A 
ATOM     13  N   UNL     1      -0.712  -2.485  -1.520  0.00  0.00    -0.327 N 
ATOM     14  H   UNL     1      -0.358  -1.849  -2.162  0.00  0.00    +0.169 HD
ATOM     15  C   UNL     1      -0.625  -3.804  -1.778  0.00  0.00    +0.261 A 
ATOM     16  O   UNL     1      -0.103  -4.192  -2.809  0.00  0.00    -0.267 OA
BRANCH   9  18
ATOM     17  N   UNL     1      -0.590  -6.627  -2.294  0.00  0.00    -0.308 N 
ATOM     18  C   UNL     1      -1.055  -6.184  -1.109  0.00  0.00    +0.250 C 
ATOM     19  O   UNL     1      -1.404  -6.980  -0.257  0.00  0.00    -0.270 OA
ATOM     20  H   UNL     1      -0.243  -5.996  -2.944  0.00  0.00    +0.149 HD
BRANCH  17  24
ATOM     21  C   UNL     1       0.678 -10.709  -2.779  0.00  0.00    +0.041 C 
ATOM     22  C   UNL     1       0.386  -9.857  -4.016  0.00  0.00    +0.066 C 
ATOM     23  C   UNL     1       0.466  -8.374  -3.645  0.00  0.00    +0.056 C 
ATOM     24  C   UNL     1      -0.609  -8.059  -2.600  0.00  0.00    +0.078 C 
ATOM     25  C   UNL     1      -1.981  -8.445  -3.162  0.00  0.00    +0.050 C 
ATOM     26  C   UNL     1      -1.966  -9.926  -3.551  0.00  0.00    +0.162 C 
ATOM     27  O   UNL     1      -0.924 -10.156  -4.502  0.00  0.00    -0.374 OA
ATOM     28  C   UNL     1       1.417 -10.167  -5.104  0.00  0.00    +0.041 C 
ENDBRANCH  17  24
ENDBRANCH   9  18
ENDBRANCH   8  12
ENDBRANCH   6   8
BRANCH   3  29
ATOM     29  C   UNL     1       3.588   1.943   1.261  0.00  0.00    +0.119 C 
BRANCH  29  30
ATOM     30  C   UNL     1       3.623   3.450   1.269  0.00  0.00    -0.011 A 
ATOM     31  C   UNL     1       2.607   4.161   1.879  0.00  0.00    +0.007 A 
ATOM     32  C   UNL     1       2.641   5.543   1.889  0.00  0.00    +0.000 A 
ATOM     33  C   UNL     1       3.687   6.213   1.282  0.00  0.00    +0.000 A 
ATOM     34  C   UNL     1       4.700   5.502   0.668  0.00  0.00    +0.000 A 
ATOM     35  C   UNL     1       4.668   4.120   0.661  0.00  0.00    +0.007 A 
ENDBRANCH  29  30
BRANCH  29  36
ATOM     36  C   UNL     1       4.302   1.418   2.480  0.00  0.00    -0.011 A 
ATOM     37  C   UNL     1       3.601   1.203   3.652  0.00  0.00    +0.007 A 
ATOM     38  C   UNL     1       4.254   0.717   4.769  0.00  0.00    +0.000 A 
ATOM     39  C   UNL     1       5.611   0.455   4.717  0.00  0.00    +0.000 A 
ATOM     40  C   UNL     1       6.312   0.674   3.546  0.00  0.00    +0.000 A 
ATOM     41  C   UNL     1       5.658   1.156   2.428  0.00  0.00    +0.007 A 
ENDBRANCH  29  36
BRANCH  29  42
ATOM     42  O   UNL     1       4.236   1.458   0.084  0.00  0.00    -0.379 OA
ATOM     43  H   UNL     1       4.251   0.493   0.012  0.00  0.00    +0.211 HD
ENDBRANCH  29  42
ENDBRANCH   3  29
TORSDOF 8
