REMARK  Name = ZINC67239441
REMARK  11 active torsions:
REMARK  status: ('A' for Active; 'I' for Inactive)
REMARK    1  A    between atoms: C_1  and  C_2
REMARK    2  A    between atoms: C_5  and  C_26
REMARK    3  A    between atoms: C_6  and  O_8
REMARK    4  A    between atoms: O_8  and  C_9
REMARK    5  A    between atoms: C_9  and  C_11
REMARK    6  A    between atoms: C_9  and  C_12
REMARK    7  A    between atoms: N_14  and  C_15
REMARK    8  A    between atoms: C_18  and  C_21
REMARK    9  A    between atoms: C_21  and  N_22
REMARK   10  A    between atoms: C_26  and  C_27
REMARK   11  A    between atoms: C_26  and  C_28
REMARK                            x       y       z     vdW  Elec       q    Type
REMARK                         _______ _______ _______ _____ _____    ______ ____
ROOT
ATOM      1  C   UNL     1      -0.592  -2.731   4.679  0.00  0.00    +0.258 C 
ATOM      2  O   UNL     1      -1.117  -3.808   4.489  0.00  0.00    -0.271 OA
ATOM      3  N   UNL     1      -0.541  -2.216   5.923  0.00  0.00    -0.282 N 
ATOM      4  H   UNL     1      -0.190  -1.323   6.065  0.00  0.00    +0.155 HD
ENDROOT
BRANCH   3   5
ATOM      5  C   UNL     1      -0.996  -2.970   7.011  0.00  0.00    +0.034 A 
ATOM      6  C   UNL     1      -1.596  -2.338   8.093  0.00  0.00    +0.023 A 
ATOM      7  C   UNL     1      -2.043  -3.085   9.165  0.00  0.00    +0.007 A 
ATOM      8  C   UNL     1      -1.894  -4.460   9.163  0.00  0.00    -0.030 A 
ATOM      9  C   UNL     1      -1.296  -5.091   8.088  0.00  0.00    +0.007 A 
ATOM     10  C   UNL     1      -0.852  -4.351   7.010  0.00  0.00    +0.023 A 
BRANCH   8  11
ATOM     11  C   UNL     1      -2.383  -5.271  10.335  0.00  0.00    +0.141 C 
BRANCH  11  12
ATOM     12  N   UNL     1      -3.775  -5.668  10.107  0.00  0.00    -0.295 N 
ATOM     13  C   UNL     1      -4.425  -6.405  11.029  0.00  0.00    +0.297 C 
ATOM     14  O   UNL     1      -3.856  -6.741  12.050  0.00  0.00    -0.253 OA
ATOM     15  N   UNL     1      -5.706  -6.769  10.820  0.00  0.00    -0.313 N 
ATOM     16  H   UNL     1      -4.229  -5.399   9.293  0.00  0.00    +0.151 HD
ATOM     17  H   UNL     1      -6.160  -6.501  10.006  0.00  0.00    +0.146 HD
ATOM     18  H   UNL     1      -6.174  -7.300  11.483  0.00  0.00    +0.146 HD
ENDBRANCH  11  12
ENDBRANCH   8  11
ENDBRANCH   3   5
BRANCH   1  19
ATOM     19  C   UNL     1       0.005  -1.969   3.524  0.00  0.00    +0.256 C 
ATOM     20  C   UNL     1       1.519  -1.860   3.712  0.00  0.00    +0.062 C 
BRANCH  19  21
ATOM     21  O   UNL     1      -0.275  -2.659   2.304  0.00  0.00    -0.480 OA
BRANCH  21  27
ATOM     22  C   UNL     1       0.450   1.628   0.086  0.00  0.00    +0.044 C 
ATOM     23  C   UNL     1       0.060   0.173   0.045  0.00  0.00    -0.047 A 
ATOM     24  C   UNL     1      -0.310  -0.409  -1.154  0.00  0.00    +0.004 A 
ATOM     25  C   UNL     1      -0.668  -1.744  -1.196  0.00  0.00    +0.008 A 
ATOM     26  C   UNL     1      -0.657  -2.499  -0.039  0.00  0.00    -0.003 A 
ATOM     27  C   UNL     1      -0.286  -1.918   1.165  0.00  0.00    +0.125 A 
ATOM     28  C   UNL     1       0.079  -0.580   1.203  0.00  0.00    +0.049 A 
BRANCH  26  29
ATOM     29  C   UNL     1      -1.048  -3.954  -0.085  0.00  0.00    +0.016 C 
ATOM     30  C   UNL     1      -2.485  -4.080  -0.595  0.00  0.00    +0.012 C 
ATOM     31  C   UNL     1      -0.105  -4.706  -1.026  0.00  0.00    +0.012 C 
ENDBRANCH  26  29
ENDBRANCH  21  27
ENDBRANCH  19  21
ENDBRANCH   1  19
TORSDOF 7
