REMARK  Name = ZINC62784960
REMARK  4 active torsions:
REMARK  status: ('A' for Active; 'I' for Inactive)
REMARK    1  A    between atoms: C_3  and  C_19
REMARK    2  A    between atoms: C_4  and  N_8
REMARK    3  A    between atoms: C_13  and  C_15
REMARK    4  A    between atoms: C_15  and  C_16
REMARK                            x       y       z     vdW  Elec       q    Type
REMARK                         _______ _______ _______ _____ _____    ______ ____
ROOT
ATOM      1  N   UNL     1       3.692  -0.573  -0.044  0.00  0.00    -0.325 N 
ATOM      2  C   UNL     1       4.439  -0.828   1.194  0.00  0.00    +0.105 C 
ATOM      3  C   UNL     1       5.886  -0.361   1.002  0.00  0.00    +0.019 C 
ATOM      4  C   UNL     1       6.475  -1.037  -0.238  0.00  0.00    +0.003 C 
ATOM      5  C   UNL     1       5.669  -0.631  -1.474  0.00  0.00    +0.023 C 
ATOM      6  C   UNL     1       4.217  -1.106  -1.309  0.00  0.00    +0.084 C 
ENDROOT
BRANCH   1  10
ATOM      7  C   UNL     1       0.139   1.607   0.028  0.00  0.00    +0.021 A 
ATOM      8  C   UNL     1       1.340   2.276  -0.062  0.00  0.00    +0.022 A 
ATOM      9  C   UNL     1       2.538   1.556  -0.087  0.00  0.00    +0.073 A 
ATOM     10  C   UNL     1       2.507   0.154  -0.020  0.00  0.00    +0.049 A 
ATOM     11  C   UNL     1       1.288  -0.502   0.071  0.00  0.00    +0.044 A 
ATOM     12  C   UNL     1       0.111   0.222   0.095  0.00  0.00    +0.043 A 
ATOM     13 CL   UNL     1      -1.410  -0.606   0.209  0.00  0.00    -0.083 Cl
BRANCH   9  14
ATOM     14  C   UNL     1       3.790   2.246  -0.182  0.00  0.00    +0.101 C 
ATOM     15  N   UNL     1       4.783   2.792  -0.257  0.00  0.00    -0.191 NA
ENDBRANCH   9  14
ENDBRANCH   1  10
BRANCH   6  16
ATOM     16  C   UNL     1       3.371  -0.589  -2.474  0.00  0.00    +0.147 C 
BRANCH  16  17
ATOM     17  C   UNL     1       3.817  -1.252  -3.752  0.00  0.00    +0.358 C 
ATOM     18  O   UNL     1       4.648  -2.144  -3.718  0.00  0.00    -0.246 OA
ATOM     19  O   UNL     1       3.348  -0.896  -4.819  0.00  0.00    -0.246 OA
ENDBRANCH  16  17
ENDBRANCH   6  16
TORSDOF 4
