REMARK  Name = ZINC39595710
REMARK  10 active torsions:
REMARK  status: ('A' for Active; 'I' for Inactive)
REMARK    1  A    between atoms: C_1  and  C_2
REMARK    2  A    between atoms: C_2  and  O_3
REMARK    3  A    between atoms: O_3  and  C_4
REMARK    4  A    between atoms: C_7  and  C_10
REMARK    5  A    between atoms: C_14  and  C_23
REMARK    6  A    between atoms: N_25  and  C_26
REMARK    7  A    between atoms: C_26  and  C_27
REMARK    8  A    between atoms: C_27  and  C_29
REMARK    9  A    between atoms: C_27  and  O_30
REMARK   10  A    between atoms: O_30  and  C_31
REMARK                            x       y       z     vdW  Elec       q    Type
REMARK                         _______ _______ _______ _____ _____    ______ ____
ROOT
ATOM      1  C   UNL     1      -1.234  -6.594  -1.228  0.00  0.00    +0.247 C 
ATOM      2  O   UNL     1      -0.378  -7.391  -1.559  0.00  0.00    -0.270 OA
ATOM      3  N   UNL     1      -2.466  -7.028  -0.895  0.00  0.00    -0.296 N 
ATOM      4  C   UNL     1      -3.666  -6.212  -0.594  0.00  0.00    +0.121 C 
ATOM      5  C   UNL     1      -4.835  -6.979  -1.251  0.00  0.00    +0.100 C 
ATOM      6  C   UNL     1      -4.345  -8.434  -1.349  0.00  0.00    -0.004 C 
ATOM      7  C   UNL     1      -2.929  -8.430  -0.755  0.00  0.00    +0.115 C 
ATOM      8  C   UNL     1      -4.297  -8.879  -2.807  0.00  0.00    -0.010 C 
ATOM      9  C   UNL     1      -3.862 -10.346  -2.874  0.00  0.00    -0.082 C 
ATOM     10  N   UNL     1      -4.810 -11.174  -2.119  0.00  0.00    +0.379 N 
ATOM     11  C   UNL     1      -4.781 -10.801  -0.699  0.00  0.00    -0.082 C 
ATOM     12  C   UNL     1      -5.255  -9.353  -0.540  0.00  0.00    -0.010 C 
ATOM     13  H   UNL     1      -5.740 -11.035  -2.483  0.00  0.00    -0.086 HD
ATOM     14  H   UNL     1      -4.556 -12.146  -2.215  0.00  0.00    -0.086 HD
ENDROOT
BRANCH   1  18
ATOM     15  C   UNL     1      -0.342  -2.444  -1.117  0.00  0.00    +0.121 A 
ATOM     16  C   UNL     1      -1.408  -2.944  -0.378  0.00  0.00    +0.046 A 
ATOM     17  C   UNL     1      -1.701  -4.289  -0.411  0.00  0.00    +0.016 A 
ATOM     18  C   UNL     1      -0.924  -5.152  -1.189  0.00  0.00    +0.037 A 
ATOM     19  C   UNL     1       0.146  -4.645  -1.931  0.00  0.00    +0.016 A 
ATOM     20  C   UNL     1       0.429  -3.298  -1.896  0.00  0.00    +0.046 A 
BRANCH  15  21
ATOM     21  O   UNL     1      -0.057  -1.117  -1.081  0.00  0.00    -0.492 OA
BRANCH  21  23
ATOM     22  C   UNL     1      -0.419   1.156  -0.346  0.00  0.00    +0.048 C 
ATOM     23  C   UNL     1      -0.890  -0.297  -0.259  0.00  0.00    +0.225 C 
ENDBRANCH  21  23
ENDBRANCH  15  21
ENDBRANCH   1  18
BRANCH   5  24
ATOM     24  C   UNL     1      -5.119  -6.426  -2.624  0.00  0.00    +0.218 C 
ATOM     25  O   UNL     1      -4.222  -5.940  -3.280  0.00  0.00    -0.275 OA
ATOM     26  N   UNL     1      -6.370  -6.472  -3.123  0.00  0.00    -0.312 N 
ATOM     27  H   UNL     1      -7.088  -6.861  -2.599  0.00  0.00    +0.149 HD
BRANCH  26  28
ATOM     28  C   UNL     1      -6.646  -5.934  -4.458  0.00  0.00    +0.148 C 
BRANCH  28  29
ATOM     29  C   UNL     1      -8.132  -6.109  -4.781  0.00  0.00    +0.187 C 
ATOM     30  C   UNL     1      -8.420  -5.547  -6.174  0.00  0.00    +0.053 C 
BRANCH  29  31
ATOM     31  O   UNL     1      -8.466  -7.498  -4.748  0.00  0.00    -0.488 OA
BRANCH  31  32
ATOM     32  C   UNL     1      -9.762  -7.815  -4.488  0.00  0.00    +0.121 A 
ATOM     33  C   UNL     1     -10.132  -9.142  -4.322  0.00  0.00    +0.048 A 
ATOM     34  C   UNL     1     -11.449  -9.462  -4.057  0.00  0.00    +0.042 A 
ATOM     35  C   UNL     1     -12.400  -8.461  -3.958  0.00  0.00    +0.124 A 
ATOM     36  C   UNL     1     -12.032  -7.136  -4.124  0.00  0.00    +0.042 A 
ATOM     37  C   UNL     1     -10.714  -6.812  -4.382  0.00  0.00    +0.048 A 
ATOM     38  F   UNL     1     -13.688  -8.776  -3.700  0.00  0.00    -0.205 F 
ENDBRANCH  31  32
ENDBRANCH  29  31
ENDBRANCH  28  29
ENDBRANCH  26  28
ENDBRANCH   5  24
TORSDOF 8
