REMARK  Name = ZINC05839696
REMARK  5 active torsions:
REMARK  status: ('A' for Active; 'I' for Inactive)
REMARK    1  A    between atoms: C_1  and  C_2
REMARK    2  A    between atoms: C_2  and  C_31
REMARK    3  A    between atoms: C_6  and  C_21
REMARK    4  A    between atoms: N_11  and  C_14
REMARK    5  A    between atoms: C_12  and  O_13
REMARK                            x       y       z     vdW  Elec       q    Type
REMARK                         _______ _______ _______ _____ _____    ______ ____
ROOT
ATOM      1  C   UNL     1      -0.019   1.526   0.010  0.00  0.00    +0.011 C 
ATOM      2  C   UNL     1       0.002  -0.004   0.002  0.00  0.00    -0.023 C 
ATOM      3  C   UNL     1       0.744  -0.503  -1.239  0.00  0.00    +0.058 C 
ATOM      4  C   UNL     1       2.171  -0.001  -1.216  0.00  0.00    +0.017 C 
ATOM      5  C   UNL     1       2.818   0.185  -0.046  0.00  0.00    +0.024 C 
ATOM      6  C   UNL     1       4.252   0.664   0.036  0.00  0.00    +0.092 C 
ATOM      7  C   UNL     1       4.678   1.221  -1.293  0.00  0.00    +0.067 A 
ATOM      8  C   UNL     1       3.928   1.000  -2.472  0.00  0.00    +0.153 A 
ATOM      9  N   UNL     1       4.533   1.591  -3.460  0.00  0.00    -0.148 NA
ATOM     10  N   UNL     1       5.686   2.215  -2.958  0.00  0.00    -0.199 N 
ATOM     11  C   UNL     1       5.749   1.970  -1.618  0.00  0.00    +0.222 A 
ATOM     12  N   UNL     1       2.747   0.253  -2.436  0.00  0.00    -0.301 N 
ATOM     13  C   UNL     1       2.171  -0.058   1.180  0.00  0.00    +0.162 C 
ATOM     14  O   UNL     1       2.784   0.110   2.216  0.00  0.00    -0.292 OA
ATOM     15  C   UNL     1       0.742  -0.518   1.242  0.00  0.00    +0.086 C 
ATOM     16  C   UNL     1      -1.431  -0.540  -0.002  0.00  0.00    +0.011 C 
ATOM     17  H   UNL     1       2.345  -0.080  -3.254  0.00  0.00    +0.153 HD
ENDROOT
BRANCH   6  18
ATOM     18  C   UNL     1       5.146  -0.492   0.403  0.00  0.00    -0.035 A 
ATOM     19  C   UNL     1       5.214  -1.601  -0.419  0.00  0.00    +0.007 A 
ATOM     20  C   UNL     1       6.035  -2.662  -0.084  0.00  0.00    +0.038 A 
ATOM     21  C   UNL     1       6.787  -2.613   1.077  0.00  0.00    +0.123 A 
ATOM     22  C   UNL     1       6.718  -1.502   1.901  0.00  0.00    +0.038 A 
ATOM     23  C   UNL     1       5.901  -0.441   1.560  0.00  0.00    +0.007 A 
ATOM     24  F   UNL     1       7.589  -3.650   1.407  0.00  0.00    -0.205 F 
ENDBRANCH   6  18
BRANCH  10  25
ATOM     25  C   UNL     1       6.611   2.958  -3.704  0.00  0.00    +0.069 A 
ATOM     26  C   UNL     1       7.240   4.058  -3.135  0.00  0.00    +0.028 A 
ATOM     27  C   UNL     1       8.151   4.788  -3.872  0.00  0.00    +0.002 A 
ATOM     28  C   UNL     1       8.438   4.425  -5.176  0.00  0.00    +0.000 A 
ATOM     29  C   UNL     1       7.813   3.330  -5.745  0.00  0.00    +0.002 A 
ATOM     30  C   UNL     1       6.905   2.593  -5.011  0.00  0.00    +0.028 A 
ENDBRANCH  10  25
BRANCH  11  31
ATOM     31  O   UNL     1       6.715   2.401  -0.767  0.00  0.00    -0.492 OA
ATOM     32  H   UNL     1       7.460   1.792  -0.676  0.00  0.00    +0.294 HD
ENDBRANCH  11  31
TORSDOF 3
