REMARK  Name = ZINC35442655
REMARK  11 active torsions:
REMARK  status: ('A' for Active; 'I' for Inactive)
REMARK    1  A    between atoms: C_1  and  C_2
REMARK    2  A    between atoms: C_4  and  C_26
REMARK    3  A    between atoms: C_6  and  C_23
REMARK    4  A    between atoms: C_9  and  C_11
REMARK    5  A    between atoms: C_11  and  C_12
REMARK    6  A    between atoms: C_15  and  C_17
REMARK    7  A    between atoms: C_23  and  C_24
REMARK    8  A    between atoms: C_23  and  C_25
REMARK    9  A    between atoms: C_26  and  N_27
REMARK   10  A    between atoms: C_31  and  C_33
REMARK   11  A    between atoms: C_33  and  O_34
REMARK                            x       y       z     vdW  Elec       q    Type
REMARK                         _______ _______ _______ _____ _____    ______ ____
ROOT
ATOM      1  C   UNL     1      -0.158   1.566  -0.384  0.00  0.00    +0.039 C 
ATOM      2  C   UNL     1      -0.050   0.067  -0.275  0.00  0.00    -0.073 C 
ATOM      3  C   UNL     1       0.166  -0.606  -1.359  0.00  0.00    -0.026 C 
ATOM      4  C   UNL     1       0.287  -2.101  -1.410  0.00  0.00    -0.002 C 
ATOM      5  C   UNL     1       0.545  -2.658  -0.008  0.00  0.00    -0.003 C 
ATOM      6  C   UNL     1      -0.485  -2.050   0.952  0.00  0.00    +0.012 C 
ATOM      7  C   UNL     1      -0.193  -0.552   1.085  0.00  0.00    +0.024 C 
ENDROOT
BRANCH   5   8
ATOM      8  C   UNL     1       0.402  -4.181  -0.025  0.00  0.00    -0.014 C 
ATOM      9  C   UNL     1       0.800  -4.745   1.340  0.00  0.00    +0.007 C 
ATOM     10  C   UNL     1      -1.051  -4.554  -0.327  0.00  0.00    +0.007 C 
ENDBRANCH   5   8
BRANCH   7  11
ATOM     11  C   UNL     1       1.103  -0.350   1.873  0.00  0.00    +0.105 C 
BRANCH  11  12
ATOM     12  C   UNL     1       1.315   1.121   2.123  0.00  0.00    +0.218 A 
ATOM     13  N   UNL     1       0.891   1.795   3.156  0.00  0.00    -0.112 NA
ATOM     14  N   UNL     1       1.252   3.025   3.044  0.00  0.00    -0.107 NA
ATOM     15  C   UNL     1       1.923   3.179   1.927  0.00  0.00    +0.248 A 
ATOM     16  O   UNL     1       1.979   1.973   1.326  0.00  0.00    -0.420 OA
BRANCH  15  17
ATOM     17  C   UNL     1       2.513   4.438   1.424  0.00  0.00    +0.041 A 
ATOM     18  C   UNL     1       3.204   4.473   0.208  0.00  0.00    +0.033 A 
ATOM     19  C   UNL     1       3.738   5.670  -0.224  0.00  0.00    +0.111 A 
ATOM     20  N   UNL     1       3.603   6.769   0.493  0.00  0.00    -0.263 NA
ATOM     21  C   UNL     1       2.959   6.780   1.644  0.00  0.00    +0.111 A 
ATOM     22  C   UNL     1       2.390   5.629   2.148  0.00  0.00    +0.033 A 
ENDBRANCH  15  17
ENDBRANCH  11  12
ENDBRANCH   7  11
BRANCH   4  23
ATOM     23  C   UNL     1       1.450  -2.485  -2.327  0.00  0.00    -0.071 C 
BRANCH  23  24
ATOM     24  N   UNL     1       1.151  -2.059  -3.701  0.00  0.00    +0.383 N 
ATOM     25  C   UNL     1      -0.000  -2.828  -4.221  0.00  0.00    -0.078 C 
ATOM     26  C   UNL     1       0.318  -3.052  -5.720  0.00  0.00    -0.020 C 
ATOM     27  C   UNL     1       1.853  -3.274  -5.685  0.00  0.00    -0.015 C 
ATOM     28  C   UNL     1       2.317  -2.319  -4.566  0.00  0.00    -0.043 C 
ATOM     29  H   UNL     1       0.932  -1.075  -3.712  0.00  0.00    -0.081 HD
BRANCH  28  30
ATOM     30  C   UNL     1       2.815  -1.007  -5.175  0.00  0.00    +0.140 C 
BRANCH  30  31
ATOM     31  O   UNL     1       1.815  -0.476  -6.046  0.00  0.00    -0.397 OA
ATOM     32  H   UNL     1       2.063   0.358  -6.469  0.00  0.00    +0.209 HD
ENDBRANCH  30  31
ENDBRANCH  28  30
ENDBRANCH  23  24
ENDBRANCH   4  23
TORSDOF 8
