REMARK  Name = ZINC44244065
REMARK  3 active torsions:
REMARK  status: ('A' for Active; 'I' for Inactive)
REMARK    1  A    between atoms: C_1  and  C_2
REMARK    2  A    between atoms: N_8  and  S_9
REMARK    3  A    between atoms: S_9  and  C_12
REMARK                            x       y       z     vdW  Elec       q    Type
REMARK                         _______ _______ _______ _____ _____    ______ ____
ROOT
ATOM      1  S   UNL     1       0.072  -4.449   2.227  0.00  0.00    +0.102 S 
ATOM      2  O   UNL     1      -1.171  -4.858   1.672  0.00  0.00    -0.146 OA
ATOM      3  O   UNL     1       1.319  -4.825   1.660  0.00  0.00    -0.146 OA
ENDROOT
BRANCH   1  11
ATOM      4  C   UNL     1      -0.018   1.503   0.010  0.00  0.00    +0.044 C 
ATOM      5  C   UNL     1       0.002  -0.004   0.002  0.00  0.00    -0.046 A 
ATOM      6  C   UNL     1       0.006  -0.704  -1.217  0.00  0.00    +0.021 A 
ATOM      7  C   UNL     1       0.024  -2.053  -1.230  0.00  0.00    +0.084 A 
ATOM      8  N   UNL     1       0.039  -2.761  -0.066  0.00  0.00    -0.345 N 
ATOM      9  C   UNL     1       0.036  -2.108   1.143  0.00  0.00    +0.153 A 
ATOM     10  C   UNL     1       0.022  -0.693   1.173  0.00  0.00    +0.051 A 
ATOM     11  N   UNL     1       0.051  -2.794   2.267  0.00  0.00    -0.111 NA
ATOM     12  H   UNL     1       0.052  -3.731  -0.090  0.00  0.00    +0.167 HD
ENDBRANCH   1  11
BRANCH   1  13
ATOM     13  C   UNL     1       0.087  -5.011   3.896  0.00  0.00    +0.132 A 
ATOM     14  C   UNL     1       1.288  -5.214   4.558  0.00  0.00    +0.047 A 
ATOM     15  C   UNL     1       1.252  -5.657   5.872  0.00  0.00    +0.038 A 
ATOM     16  C   UNL     1       0.027  -5.880   6.474  0.00  0.00    +0.126 A 
ATOM     17  N   UNL     1      -1.096  -5.676   5.813  0.00  0.00    -0.260 NA
ATOM     18  C   UNL     1      -1.099  -5.250   4.565  0.00  0.00    +0.139 A 
ATOM     19 BR   UNL     1       2.856  -5.953   6.828  0.00  0.00    -0.049 Br
ENDBRANCH   1  13
TORSDOF 2
