REMARK  Name = ZINC36493277
REMARK  10 active torsions:
REMARK  status: ('A' for Active; 'I' for Inactive)
REMARK    1  A    between atoms: C_1  and  C_2
REMARK    2  A    between atoms: C_2  and  C_3
REMARK    3  A    between atoms: C_8  and  C_28
REMARK    4  A    between atoms: C_9  and  C_27
REMARK    5  A    between atoms: C_12  and  C_15
REMARK    6  A    between atoms: C_13  and  O_14
REMARK    7  A    between atoms: C_15  and  N_16
REMARK    8  A    between atoms: C_18  and  C_26
REMARK    9  A    between atoms: C_22  and  C_24
REMARK   10  A    between atoms: C_22  and  C_25
REMARK                            x       y       z     vdW  Elec       q    Type
REMARK                         _______ _______ _______ _____ _____    ______ ____
ROOT
ATOM      1  C   UNL     1       1.004  -1.080   0.994  0.00  0.00    -0.005 A 
ATOM      2  C   UNL     1       2.370  -1.047   1.018  0.00  0.00    +0.022 A 
ATOM      3  C   UNL     1       3.049  -1.402   2.183  0.00  0.00    +0.065 A 
ATOM      4  C   UNL     1       4.523  -1.395   2.248  0.00  0.00    +0.203 A 
ATOM      5  O   UNL     1       5.205  -0.872   1.384  0.00  0.00    -0.286 OA
ATOM      6  C   UNL     1       5.121  -2.059   3.423  0.00  0.00    +0.102 A 
ATOM      7  C   UNL     1       4.302  -2.384   4.463  0.00  0.00    +0.117 A 
ATOM      8  O   UNL     1       2.997  -2.114   4.464  0.00  0.00    -0.459 OA
ATOM      9  C   UNL     1       2.339  -1.786   3.335  0.00  0.00    +0.144 A 
ATOM     10  C   UNL     1       0.952  -1.818   3.292  0.00  0.00    +0.021 A 
ATOM     11  C   UNL     1       0.290  -1.461   2.128  0.00  0.00    +0.125 A 
ATOM     12  C   UNL     1       4.897  -3.078   5.661  0.00  0.00    +0.087 C 
ENDROOT
BRANCH   6  13
ATOM     13  C   UNL     1       6.565  -2.364   3.470  0.00  0.00    +0.146 A 
ATOM     14  N   UNL     1       7.436  -2.212   2.424  0.00  0.00    -0.338 N 
ATOM     15  H   UNL     1       7.218  -1.891   1.535  0.00  0.00    +0.167 HD
ATOM     16  C   UNL     1       8.684  -2.602   2.873  0.00  0.00    +0.066 A 
ATOM     17  C   UNL     1       9.940  -2.670   2.286  0.00  0.00    +0.028 A 
ATOM     18  C   UNL     1      11.016  -3.116   3.025  0.00  0.00    +0.002 A 
ATOM     19  C   UNL     1      10.851  -3.497   4.349  0.00  0.00    +0.002 A 
ATOM     20  C   UNL     1       9.623  -3.436   4.944  0.00  0.00    +0.030 A 
ATOM     21  C   UNL     1       8.517  -2.987   4.215  0.00  0.00    +0.089 A 
ATOM     22  N   UNL     1       7.207  -2.815   4.521  0.00  0.00    -0.228 NA
ENDBRANCH   6  13
BRANCH   1  24
ATOM     23  C   UNL     1      -0.128   0.779  -0.193  0.00  0.00    +0.009 C 
ATOM     24  C   UNL     1       0.266  -0.697  -0.263  0.00  0.00    +0.035 C 
ENDBRANCH   1  24
BRANCH  11  25
ATOM     25  O   UNL     1      -1.066  -1.487   2.091  0.00  0.00    -0.506 OA
ATOM     26  H   UNL     1      -1.435  -2.337   1.813  0.00  0.00    +0.292 HD
ENDBRANCH  11  25
BRANCH  10  27
ATOM     27  C   UNL     1       0.167  -2.233   4.510  0.00  0.00    -0.035 C 
BRANCH  27  28
ATOM     28  N   UNL     1      -0.129  -1.059   5.321  0.00  0.00    +0.385 N 
ATOM     29  C   UNL     1      -1.033  -0.126   4.623  0.00  0.00    -0.071 C 
ATOM     30  C   UNL     1      -2.060   0.354   5.676  0.00  0.00    -0.048 C 
ATOM     31  C   UNL     1      -1.405  -0.030   7.030  0.00  0.00    -0.011 C 
ATOM     32  C   UNL     1      -0.750  -1.379   6.620  0.00  0.00    -0.067 C 
ATOM     33  C   UNL     1      -1.861  -2.406   6.507  0.00  0.00    -0.009 C 
ATOM     34  C   UNL     1      -3.115  -1.978   5.776  0.00  0.00    -0.036 C 
ATOM     35  C   UNL     1      -3.321  -0.497   5.532  0.00  0.00    +0.011 C 
ATOM     36  C   UNL     1      -4.321  -2.468   6.621  0.00  0.00    +0.011 C 
ATOM     37  C   UNL     1      -3.208  -2.728   4.434  0.00  0.00    +0.011 C 
ATOM     38  C   UNL     1      -2.344   1.859   5.568  0.00  0.00    +0.009 C 
ATOM     39  H   UNL     1       0.749  -0.563   5.502  0.00  0.00    -0.081 HD
ENDBRANCH  27  28
ENDBRANCH  10  27
TORSDOF 5
