REMARK  Name = ZINC13064566
REMARK  15 active torsions:
REMARK  status: ('A' for Active; 'I' for Inactive)
REMARK    1  A    between atoms: C_1  and  C_2
REMARK    2  A    between atoms: C_2  and  C_3
REMARK    3  A    between atoms: C_3  and  C_5
REMARK    4  A    between atoms: C_3  and  N_71
REMARK    5  A    between atoms: N_9  and  C_10
REMARK    6  A    between atoms: C_10  and  C_11
REMARK    7  A    between atoms: C_10  and  C_12
REMARK    8  A    between atoms: C_10  and  C_13
REMARK    9  A    between atoms: C_13  and  C_14
REMARK   10  A    between atoms: C_15  and  C_16
REMARK   11  A    between atoms: C_15  and  N_71
REMARK   12  A    between atoms: C_23  and  C_24
REMARK   13  A    between atoms: C_23  and  N_71
REMARK   14  A    between atoms: C_28  and  C_37
REMARK   15  A    between atoms: C_29  and  C_36
REMARK                            x       y       z     vdW  Elec       q    Type
REMARK                         _______ _______ _______ _____ _____    ______ ____
ROOT
ATOM      1  N   UNL     1      -5.677   4.303  -0.938  0.00  0.00    +0.392 N 
ATOM      2  H   UNL     1      -5.590   3.474  -1.536  0.00  0.00    -0.080 HD
ENDROOT
BRANCH   1   3
ATOM      3  C   UNL     1      -7.096   4.478  -0.564  0.00  0.00    +0.003 C 
BRANCH   3   4
ATOM      4  C   UNL     1      -7.954   3.880  -1.648  0.00  0.00    +0.139 A 
ATOM      5  N   UNL     1      -7.838   4.080  -2.938  0.00  0.00    -0.115 NA
ATOM      6  N   UNL     1      -8.753   3.394  -3.532  0.00  0.00    -0.023 NA
ATOM      7  N   UNL     1      -9.450   2.761  -2.654  0.00  0.00    -0.043 NA
ATOM      8  N   UNL     1      -8.986   3.031  -1.480  0.00  0.00    -0.225 N 
BRANCH   8   9
ATOM      9  C   UNL     1      -9.488   2.513  -0.205  0.00  0.00    +0.061 C 
ATOM     10  C   UNL     1      -8.407   1.659   0.459  0.00  0.00    +0.036 C 
ATOM     11  C   UNL     1      -9.850   3.682   0.713  0.00  0.00    +0.036 C 
BRANCH   9  12
ATOM     12  C   UNL     1     -10.731   1.658  -0.457  0.00  0.00    +0.026 C 
ATOM     13  C   UNL     1     -11.256   1.117   0.875  0.00  0.00    +0.006 C 
ENDBRANCH   9  12
ENDBRANCH   8   9
ENDBRANCH   3   4
BRANCH   3  15
ATOM     14  C   UNL     1      -6.691   6.531   0.802  0.00  0.00    +0.002 C 
ATOM     15  C   UNL     1      -7.428   5.965  -0.413  0.00  0.00    -0.011 C 
ENDBRANCH   3  15
ENDBRANCH   1   3
BRANCH   1  16
ATOM     16  C   UNL     1      -5.202   5.487  -1.685  0.00  0.00    -0.042 C 
BRANCH  16  17
ATOM     17  C   UNL     1      -5.711   5.401  -3.100  0.00  0.00    -0.064 A 
ATOM     18  C   UNL     1      -5.072   4.587  -4.016  0.00  0.00    +0.004 A 
ATOM     19  C   UNL     1      -5.541   4.504  -5.314  0.00  0.00    +0.038 A 
ATOM     20  C   UNL     1      -6.646   5.244  -5.698  0.00  0.00    +0.123 A 
ATOM     21  C   UNL     1      -7.283   6.063  -4.781  0.00  0.00    +0.038 A 
ATOM     22  C   UNL     1      -6.815   6.141  -3.483  0.00  0.00    +0.004 A 
ATOM     23  F   UNL     1      -7.103   5.167  -6.967  0.00  0.00    -0.205 F 
ENDBRANCH  16  17
ENDBRANCH   1  16
BRANCH   1  24
ATOM     24  C   UNL     1      -4.856   4.108   0.276  0.00  0.00    -0.036 C 
BRANCH  24  25
ATOM     25  C   UNL     1      -3.510   3.568  -0.133  0.00  0.00    +0.001 A 
ATOM     26  C   UNL     1      -2.461   4.413  -0.291  0.00  0.00    +0.017 A 
ATOM     27  C   UNL     1      -1.168   3.857  -0.693  0.00  0.00    -0.001 A 
ATOM     28  C   UNL     1      -0.055   4.681  -0.889  0.00  0.00    +0.013 A 
ATOM     29  C   UNL     1       1.137   4.131  -1.264  0.00  0.00    -0.047 A 
ATOM     30  C   UNL     1       1.255   2.761  -1.454  0.00  0.00    -0.046 A 
ATOM     31  C   UNL     1       0.171   1.930  -1.267  0.00  0.00    +0.030 A 
ATOM     32  C   UNL     1      -1.055   2.468  -0.890  0.00  0.00    +0.049 A 
ATOM     33  N   UNL     1      -2.156   1.661  -0.702  0.00  0.00    -0.322 N 
ATOM     34  H   UNL     1      -2.075   0.703  -0.834  0.00  0.00    +0.169 HD
ATOM     35  C   UNL     1      -3.341   2.181  -0.337  0.00  0.00    +0.251 A 
ATOM     36  O   UNL     1      -4.294   1.438  -0.180  0.00  0.00    -0.268 OA
ATOM     37  C   UNL     1       2.580   2.176  -1.868  0.00  0.00    +0.044 C 
ATOM     38  C   UNL     1       2.336   5.019  -1.475  0.00  0.00    +0.044 C 
ENDBRANCH  24  25
ENDBRANCH   1  24
TORSDOF 9
