REMARK  Name = ZINC41166674
REMARK  4 active torsions:
REMARK  status: ('A' for Active; 'I' for Inactive)
REMARK    1  A    between atoms: C_1  and  C_2
REMARK    2  A    between atoms: C_4  and  C_13
REMARK    3  A    between atoms: C_15  and  C_18
REMARK    4  A    between atoms: C_21  and  N_24
REMARK                            x       y       z     vdW  Elec       q    Type
REMARK                         _______ _______ _______ _____ _____    ______ ____
ROOT
ATOM      1  C   UNL     1      -0.081  -0.753  -2.468  0.00  0.00    +0.202 A 
ATOM      2  N   UNL     1       0.422  -1.188  -3.636  0.00  0.00    -0.187 NA
ATOM      3  C   UNL     1      -0.543  -1.323  -4.516  0.00  0.00    +0.259 A 
ATOM      4  O   UNL     1      -1.701  -0.974  -3.929  0.00  0.00    -0.332 OA
ATOM      5  N   UNL     1      -1.381  -0.611  -2.595  0.00  0.00    -0.056 NA
ENDROOT
BRANCH   1   8
ATOM      6  C   UNL     1      -0.019   1.526   0.010  0.00  0.00    +0.057 C 
ATOM      7  C   UNL     1       0.002  -0.004   0.002  0.00  0.00    +0.204 C 
ATOM      8  C   UNL     1       0.697  -0.485  -1.245  0.00  0.00    +0.040 C 
ATOM      9  C   UNL     1       2.033  -0.669  -1.239  0.00  0.00    +0.022 C 
ATOM     10  C   UNL     1       2.762  -0.398   0.014  0.00  0.00    +0.017 A 
ATOM     11  C   UNL     1       4.144  -0.233   0.030  0.00  0.00    +0.011 A 
ATOM     12  C   UNL     1       4.785   0.019   1.226  0.00  0.00    +0.001 A 
ATOM     13  C   UNL     1       4.060   0.108   2.403  0.00  0.00    +0.004 A 
ATOM     14  C   UNL     1       2.687  -0.054   2.397  0.00  0.00    +0.046 A 
ATOM     15  C   UNL     1       2.029  -0.308   1.208  0.00  0.00    +0.128 A 
ATOM     16  O   UNL     1       0.683  -0.472   1.166  0.00  0.00    -0.484 OA
ENDBRANCH   1   8
BRANCH   3  17
ATOM     17  C   UNL     1      -0.383  -1.779  -5.911  0.00  0.00    +0.040 A 
ATOM     18  C   UNL     1       0.882  -2.117  -6.397  0.00  0.00    +0.015 A 
ATOM     19  C   UNL     1       1.028  -2.542  -7.699  0.00  0.00    +0.023 A 
ATOM     20  C   UNL     1      -0.084  -2.634  -8.530  0.00  0.00    +0.025 A 
ATOM     21  C   UNL     1      -1.346  -2.298  -8.050  0.00  0.00    +0.023 A 
ATOM     22  C   UNL     1      -1.498  -1.878  -6.747  0.00  0.00    +0.015 A 
BRANCH  20  23
ATOM     23  N   UNL     1       0.067  -3.064  -9.846  0.00  0.00    -0.358 N 
ATOM     24  H   UNL     1       0.946  -3.298 -10.183  0.00  0.00    +0.142 HD
ATOM     25  H   UNL     1      -0.708  -3.129 -10.427  0.00  0.00    +0.142 HD
ENDBRANCH  20  23
ENDBRANCH   3  17
TORSDOF 3
