REMARK  Name = ZINC66105825
REMARK  3 active torsions:
REMARK  status: ('A' for Active; 'I' for Inactive)
REMARK    1  A    between atoms: C_6  and  S_7
REMARK    2  A    between atoms: S_7  and  N_10
REMARK    3  A    between atoms: C_13  and  N_16
REMARK                            x       y       z     vdW  Elec       q    Type
REMARK                         _______ _______ _______ _____ _____    ______ ____
ROOT
ATOM      1  S   UNL     1      -1.513  -0.904   0.012  0.00  0.00    +0.064 S 
ATOM      2  O   UNL     1      -1.394  -1.887   1.031  0.00  0.00    -0.153 OA
ATOM      3  O   UNL     1      -2.557   0.059  -0.000  0.00  0.00    -0.153 OA
ENDROOT
BRANCH   1   9
ATOM      4  C   UNL     1      -0.017   1.378   0.010  0.00  0.00    +0.037 A 
ATOM      5  C   UNL     1       1.169   2.086   0.002  0.00  0.00    -0.024 A 
ATOM      6  C   UNL     1       2.382   1.410  -0.013  0.00  0.00    +0.039 A 
ATOM      7  C   UNL     1       2.400   0.022  -0.022  0.00  0.00    +0.064 A 
ATOM      8  C   UNL     1       1.210  -0.683  -0.015  0.00  0.00    +0.151 A 
ATOM      9  C   UNL     1       0.002  -0.004   0.002  0.00  0.00    +0.141 A 
ATOM     10  F   UNL     1       1.225  -2.034  -0.024  0.00  0.00    -0.203 F 
ATOM     11  N   UNL     1       3.581   2.128  -0.019  0.00  0.00    -0.285 N 
ATOM     12  C   UNL     1       3.605   3.420   0.357  0.00  0.00    +0.218 C 
ATOM     13  O   UNL     1       4.651   4.033   0.332  0.00  0.00    -0.275 OA
ATOM     14  C   UNL     1       2.348   4.113   0.810  0.00  0.00    +0.101 C 
ATOM     15  C   UNL     1       1.151   3.593   0.011  0.00  0.00    +0.046 C 
ATOM     16  H   UNL     1       4.402   1.692  -0.296  0.00  0.00    +0.155 HD
ENDBRANCH   1   9
BRANCH   1  17
ATOM     17  N   UNL     1      -1.606  -1.721  -1.426  0.00  0.00    -0.178 NA
ATOM     18  C   UNL     1      -2.206  -1.208  -2.666  0.00  0.00    +0.108 C 
ATOM     19  C   UNL     1      -2.039  -2.301  -3.742  0.00  0.00    +0.003 C 
ATOM     20  C   UNL     1      -0.852  -3.142  -3.202  0.00  0.00    -0.051 C 
ATOM     21  C   UNL     1      -1.095  -3.081  -1.675  0.00  0.00    +0.094 C 
BRANCH  20  22
ATOM     22  N   UNL     1      -0.919  -4.525  -3.694  0.00  0.00    +0.382 N 
ATOM     23  C   UNL     1      -0.745  -4.552  -5.169  0.00  0.00    -0.078 C 
ATOM     24  C   UNL     1      -0.280  -6.004  -5.444  0.00  0.00    -0.020 C 
ATOM     25  C   UNL     1       0.636  -6.309  -4.236  0.00  0.00    -0.020 C 
ATOM     26  C   UNL     1       0.200  -5.318  -3.141  0.00  0.00    -0.078 C 
ATOM     27  H   UNL     1      -1.802  -4.943  -3.440  0.00  0.00    -0.081 HD
ENDBRANCH  20  22
ENDBRANCH   1  17
TORSDOF 3
