REMARK  Name = ZINC64428542
REMARK  8 active torsions:
REMARK  status: ('A' for Active; 'I' for Inactive)
REMARK    1  A    between atoms: C_4  and  C_7
REMARK    2  A    between atoms: C_8  and  C_9
REMARK    3  A    between atoms: C_9  and  S_10
REMARK    4  A    between atoms: S_10  and  C_11
REMARK    5  A    between atoms: C_15  and  C_18
REMARK    6  A    between atoms: C_18  and  C_20
REMARK    7  A    between atoms: C_18  and  N_30
REMARK    8  A    between atoms: C_20  and  C_21
REMARK                            x       y       z     vdW  Elec       q    Type
REMARK                         _______ _______ _______ _____ _____    ______ ____
ROOT
ATOM      1  C   UNL     1       8.229  -5.183  -1.879  0.00  0.00    -0.017 C 
ENDROOT
BRANCH   1   5
ATOM      2  C   UNL     1       6.838  -4.489   1.302  0.00  0.00    +0.319 C 
ATOM      3  N   UNL     1       7.890  -3.490   1.070  0.00  0.00    -0.146 NA
ATOM      4  N   UNL     1       8.640  -3.867   0.160  0.00  0.00    -0.159 NA
ATOM      5  C   UNL     1       8.201  -5.173  -0.349  0.00  0.00    +0.246 C 
ATOM      6  O   UNL     1       6.848  -5.331   0.131  0.00  0.00    -0.320 OA
BRANCH   2   7
ATOM      7  S   UNL     1       5.226  -3.676   1.480  0.00  0.00    -0.101 S 
BRANCH   7   8
ATOM      8  C   UNL     1       5.033  -2.743  -0.063  0.00  0.00    +0.100 C 
BRANCH   8  10
ATOM      9  C   UNL     1       3.695  -0.685  -0.038  0.00  0.00    +0.004 C 
ATOM     10  C   UNL     1       3.716  -2.010  -0.046  0.00  0.00    -0.015 C 
BRANCH   9  14
ATOM     11  C   UNL     1      -0.017   1.379   0.010  0.00  0.00    +0.000 A 
ATOM     12  C   UNL     1       1.168   2.093   0.002  0.00  0.00    +0.001 A 
ATOM     13  C   UNL     1       2.377   1.429  -0.013  0.00  0.00    +0.008 A 
ATOM     14  C   UNL     1       2.403   0.034  -0.021  0.00  0.00    -0.025 A 
ATOM     15  C   UNL     1       1.204  -0.681  -0.013  0.00  0.00    +0.008 A 
ATOM     16  C   UNL     1       0.002  -0.004   0.002  0.00  0.00    +0.001 A 
ENDBRANCH   9  14
ENDBRANCH   8  10
ENDBRANCH   7   8
ENDBRANCH   2   7
ENDBRANCH   1   5
BRANCH   1  17
ATOM     17  N   UNL     1       7.357  -4.118  -2.392  0.00  0.00    +0.383 N 
ATOM     18  H   UNL     1       7.377  -4.125  -3.401  0.00  0.00    -0.089 HD
ATOM     19  H   UNL     1       6.413  -4.273  -2.072  0.00  0.00    -0.089 HD
ATOM     20  H   UNL     1       7.684  -3.224  -2.055  0.00  0.00    -0.089 HD
ENDBRANCH   1  17
BRANCH   1  21
ATOM     21  C   UNL     1       9.661  -4.948  -2.363  0.00  0.00    +0.021 C 
BRANCH  21  22
ATOM     22  C   UNL     1       9.712  -5.080  -3.864  0.00  0.00    -0.043 C 
ATOM     23  C   UNL     1       9.630  -4.080  -4.771  0.00  0.00    -0.001 A 
ATOM     24  C   UNL     1       9.476  -2.626  -4.638  0.00  0.00    +0.010 A 
ATOM     25  C   UNL     1       9.424  -1.867  -5.756  0.00  0.00    +0.001 A 
ATOM     26  C   UNL     1       9.514  -2.432  -7.035  0.00  0.00    +0.002 A 
ATOM     27  C   UNL     1       9.657  -3.759  -7.238  0.00  0.00    +0.026 A 
ATOM     28  C   UNL     1       9.724  -4.652  -6.133  0.00  0.00    +0.043 A 
ATOM     29  N   UNL     1       9.858  -5.954  -6.071  0.00  0.00    -0.380 N 
ATOM     30  C   UNL     1       9.870  -6.356  -4.659  0.00  0.00    +0.144 C 
ATOM     31  H   UNL     1       9.939  -6.552  -6.830  0.00  0.00    +0.160 HD
ENDBRANCH  21  22
ENDBRANCH   1  21
TORSDOF 8
