REMARK  Name = ZINC01949990
REMARK  7 active torsions:
REMARK  status: ('A' for Active; 'I' for Inactive)
REMARK    1  A    between atoms: C_1  and  C_2
REMARK    2  A    between atoms: C_7  and  O_8
REMARK    3  A    between atoms: O_8  and  C_9
REMARK    4  A    between atoms: C_9  and  C_10
REMARK    5  A    between atoms: C_10  and  C_11
REMARK    6  A    between atoms: C_11  and  C_12
REMARK    7  A    between atoms: N_14  and  N_15
REMARK                            x       y       z     vdW  Elec       q    Type
REMARK                         _______ _______ _______ _____ _____    ______ ____
ROOT
ATOM      1  C   UNL     1       0.070   0.174   7.272  0.00  0.00    +0.232 C 
ATOM      2  O   UNL     1       0.053   1.377   7.121  0.00  0.00    -0.274 OA
ATOM      3  N   UNL     1       0.089  -0.349   8.514  0.00  0.00    -0.206 N 
ATOM      4  H   UNL     1       0.103  -1.311   8.635  0.00  0.00    +0.177 HD
ENDROOT
BRANCH   3   5
ATOM      5  N   UNL     1       0.089   0.497   9.630  0.00  0.00    -0.175 NA
ATOM      6  C   UNL     1       0.107  -0.012  10.838  0.00  0.00    +0.153 C 
ATOM      7  C   UNL     1       0.104   0.721  12.126  0.00  0.00    +0.029 A 
ATOM      8  C   UNL     1       0.082   2.072  12.452  0.00  0.00    +0.027 A 
ATOM      9  C   UNL     1       0.086   2.457  13.779  0.00  0.00    +0.019 A 
ATOM     10  C   UNL     1       0.111   1.498  14.779  0.00  0.00    +0.017 A 
ATOM     11  C   UNL     1       0.133   0.155  14.464  0.00  0.00    +0.025 A 
ATOM     12  C   UNL     1       0.129  -0.251  13.134  0.00  0.00    +0.043 A 
ATOM     13  N   UNL     1       0.147  -1.515  12.554  0.00  0.00    -0.280 N 
ATOM     14  C   UNL     1       0.129  -1.440  11.212  0.00  0.00    +0.269 C 
ATOM     15  O   UNL     1       0.134  -2.382  10.442  0.00  0.00    -0.268 OA
ATOM     16 BR   UNL     1       0.057   4.293  14.231  0.00  0.00    -0.050 Br
ATOM     17  H   UNL     1       0.167  -2.346  13.055  0.00  0.00    +0.155 HD
ENDBRANCH   3   5
BRANCH   1  18
ATOM     18  C   UNL     1       0.071  -0.736   6.071  0.00  0.00    +0.101 C 
BRANCH  18  19
ATOM     19  C   UNL     1       0.047   0.106   4.793  0.00  0.00    +0.050 C 
BRANCH  19  20
ATOM     20  C   UNL     1       0.048  -0.819   3.574  0.00  0.00    +0.229 C 
BRANCH  20  21
ATOM     21  O   UNL     1       0.025  -0.033   2.381  0.00  0.00    -0.492 OA
BRANCH  21  28
ATOM     22  C   UNL     1      -0.018   1.503   0.010  0.00  0.00    +0.047 C 
ATOM     23  C   UNL     1       0.002  -0.004   0.002  0.00  0.00    -0.007 A 
ATOM     24  C   UNL     1       0.006  -0.689  -1.198  0.00  0.00    +0.027 A 
ATOM     25  C   UNL     1       0.024  -2.072  -1.206  0.00  0.00    +0.041 A 
ATOM     26  C   UNL     1       0.040  -2.773  -0.013  0.00  0.00    +0.023 A 
ATOM     27  C   UNL     1       0.036  -2.092   1.189  0.00  0.00    +0.047 A 
ATOM     28  C   UNL     1       0.023  -0.704   1.199  0.00  0.00    +0.123 A 
ATOM     29 CL   UNL     1       0.028  -2.930  -2.715  0.00  0.00    -0.084 Cl
ENDBRANCH  21  28
ENDBRANCH  20  21
ENDBRANCH  19  20
ENDBRANCH  18  19
ENDBRANCH   1  18
TORSDOF 6
