REMARK  Name = ZINC38999186
REMARK  6 active torsions:
REMARK  status: ('A' for Active; 'I' for Inactive)
REMARK    1  A    between atoms: C_6  and  C_7
REMARK    2  A    between atoms: C_7  and  S_8
REMARK    3  A    between atoms: S_8  and  C_9
REMARK    4  A    between atoms: C_14  and  C_16
REMARK    5  A    between atoms: C_18  and  N_34
REMARK    6  A    between atoms: C_23  and  C_28
REMARK                            x       y       z     vdW  Elec       q    Type
REMARK                         _______ _______ _______ _____ _____    ______ ____
ROOT
ATOM      1  C   UNL     1      -8.812  -5.270  -1.133  0.00  0.00    +0.124 C 
ATOM      2  C   UNL     1      -9.089  -6.290  -0.003  0.00  0.00    -0.024 C 
ATOM      3  C   UNL     1     -10.088  -5.832   1.013  0.00  0.00    -0.053 C 
ATOM      4  C   UNL     1     -10.615  -6.578   1.999  0.00  0.00    +0.002 C 
ATOM      5  C   UNL     1     -11.671  -5.986   2.827  0.00  0.00    +0.023 C 
ATOM      6  C   UNL     1     -12.306  -4.861   2.411  0.00  0.00    +0.035 C 
ATOM      7  N   UNL     1     -11.922  -4.276   1.197  0.00  0.00    -0.328 N 
ATOM      8  C   UNL     1     -10.502  -4.366   0.847  0.00  0.00    +0.154 C 
ATOM      9  S   UNL     1     -10.277  -4.154  -0.969  0.00  0.00    -0.123 S 
ATOM     10  H   UNL     1     -12.563  -3.834   0.618  0.00  0.00    +0.147 HD
ENDROOT
BRANCH   1  16
ATOM     11  C   UNL     1      -4.281  -1.176   0.777  0.00  0.00    +0.160 A 
ATOM     12  N   UNL     1      -4.142  -2.234  -0.009  0.00  0.00    -0.133 NA
ATOM     13  N   UNL     1      -5.120  -2.969  -0.315  0.00  0.00    -0.125 NA
ATOM     14  C   UNL     1      -6.343  -2.731   0.128  0.00  0.00    +0.189 A 
ATOM     15  N   UNL     1      -7.529  -3.423  -0.101  0.00  0.00    -0.262 N 
ATOM     16  C   UNL     1      -7.529  -4.520  -0.884  0.00  0.00    +0.230 C 
ATOM     17  O   UNL     1      -6.495  -4.904  -1.390  0.00  0.00    -0.274 OA
ATOM     18  S   UNL     1      -6.037  -1.267   1.113  0.00  0.00    -0.024 S 
ATOM     19  H   UNL     1      -8.356  -3.116   0.303  0.00  0.00    +0.157 HD
BRANCH  11  20
ATOM     20  S   UNL     1      -3.079  -0.015   1.336  0.00  0.00    -0.092 S 
BRANCH  20  21
ATOM     21  C   UNL     1      -1.533  -0.582   0.574  0.00  0.00    +0.111 C 
BRANCH  21  27
ATOM     22  C   UNL     1       0.326   0.070   2.117  0.00  0.00    +0.006 A 
ATOM     23  C   UNL     1       1.359   0.911   2.487  0.00  0.00    +0.020 A 
ATOM     24  C   UNL     1       1.656   2.021   1.716  0.00  0.00    +0.041 A 
ATOM     25  C   UNL     1       0.920   2.287   0.575  0.00  0.00    +0.020 A 
ATOM     26  C   UNL     1      -0.112   1.445   0.206  0.00  0.00    +0.006 A 
ATOM     27  C   UNL     1      -0.408   0.336   0.977  0.00  0.00    -0.037 A 
ATOM     28 CL   UNL     1       2.952   3.079   2.180  0.00  0.00    -0.084 Cl
ENDBRANCH  21  27
ENDBRANCH  20  21
ENDBRANCH  11  20
ENDBRANCH   1  16
BRANCH   6  29
ATOM     29  C   UNL     1     -13.384  -4.263   3.225  0.00  0.00    -0.001 A 
ATOM     30  C   UNL     1     -14.048  -3.105   2.801  0.00  0.00    +0.027 A 
ATOM     31  C   UNL     1     -15.048  -2.581   3.593  0.00  0.00    +0.083 A 
ATOM     32  N   UNL     1     -15.381  -3.155   4.733  0.00  0.00    -0.367 N 
ATOM     33  C   UNL     1     -14.781  -4.246   5.170  0.00  0.00    +0.083 A 
ATOM     34  C   UNL     1     -13.774  -4.841   4.440  0.00  0.00    +0.027 A 
ATOM     35  H   UNL     1     -16.089  -2.762   5.268  0.00  0.00    +0.165 HD
ENDBRANCH   6  29
BRANCH   2  36
ATOM     36  N   UNL     1      -7.824  -6.576   0.687  0.00  0.00    +0.384 N 
ATOM     37  H   UNL     1      -7.507  -5.746   1.165  0.00  0.00    -0.089 HD
ATOM     38  H   UNL     1      -7.966  -7.316   1.358  0.00  0.00    -0.089 HD
ATOM     39  H   UNL     1      -7.130  -6.861   0.013  0.00  0.00    -0.089 HD
ENDBRANCH   2  36
TORSDOF 6
