REMARK  Name = ZINC12634091
REMARK  8 active torsions:
REMARK  status: ('A' for Active; 'I' for Inactive)
REMARK    1  A    between atoms: C_1  and  C_2
REMARK    2  A    between atoms: C_5  and  S_11
REMARK    3  A    between atoms: C_7  and  N_8
REMARK    4  A    between atoms: S_11  and  N_14
REMARK    5  A    between atoms: N_14  and  C_15
REMARK    6  A    between atoms: C_18  and  N_21
REMARK    7  A    between atoms: C_22  and  C_24
REMARK    8  A    between atoms: C_25  and  C_26
REMARK                            x       y       z     vdW  Elec       q    Type
REMARK                         _______ _______ _______ _____ _____    ______ ____
ROOT
ATOM      1  C   UNL     1       1.819   1.868  -0.210  0.00  0.00    +0.048 A 
ATOM      2  C   UNL     1       2.828   1.072   0.317  0.00  0.00    +0.026 A 
ATOM      3  C   UNL     1       4.149   1.447   0.174  0.00  0.00    +0.025 A 
ATOM      4  C   UNL     1       4.469   2.625  -0.489  0.00  0.00    +0.034 A 
ATOM      5  C   UNL     1       3.459   3.424  -1.011  0.00  0.00    +0.025 A 
ATOM      6  C   UNL     1       2.139   3.046  -0.872  0.00  0.00    +0.026 A 
ENDROOT
BRANCH   4   7
ATOM      7  N   UNL     1       5.808   3.008  -0.629  0.00  0.00    -0.282 N 
ATOM      8  C   UNL     1       6.766   2.070  -0.769  0.00  0.00    +0.241 C 
ATOM      9  O   UNL     1       6.460   0.895  -0.851  0.00  0.00    -0.270 OA
ATOM     10  H   UNL     1       6.047   3.948  -0.626  0.00  0.00    +0.155 HD
BRANCH   8  11
ATOM     11  C   UNL     1       8.174   2.465  -0.824  0.00  0.00    +0.068 C 
ATOM     12  C   UNL     1       9.133   1.526  -0.964  0.00  0.00    +0.014 C 
BRANCH  12  13
ATOM     13  C   UNL     1      10.549   1.923  -1.019  0.00  0.00    -0.007 A 
ATOM     14  C   UNL     1      10.905   3.273  -0.926  0.00  0.00    +0.009 A 
ATOM     15  C   UNL     1      12.233   3.637  -0.978  0.00  0.00    +0.001 A 
ATOM     16  C   UNL     1      13.215   2.671  -1.121  0.00  0.00    +0.001 A 
ATOM     17  C   UNL     1      12.872   1.334  -1.214  0.00  0.00    +0.020 A 
ATOM     18  C   UNL     1      11.547   0.952  -1.159  0.00  0.00    +0.048 A 
ATOM     19 CL   UNL     1      11.119  -0.727  -1.268  0.00  0.00    -0.083 Cl
ENDBRANCH  12  13
ENDBRANCH   8  11
ENDBRANCH   4   7
BRANCH   1  20
ATOM     20  N   UNL     1       0.481   1.485  -0.069  0.00  0.00    -0.216 N 
ATOM     21  H   UNL     1      -0.185   2.139   0.196  0.00  0.00    +0.174 HD
BRANCH  20  22
ATOM     22  S   UNL     1       0.033  -0.082  -0.360  0.00  0.00    +0.072 S 
ATOM     23  O   UNL     1       0.889  -0.902   0.423  0.00  0.00    -0.150 OA
ATOM     24  O   UNL     1      -1.383  -0.128  -0.243  0.00  0.00    -0.150 OA
BRANCH  22  29
ATOM     25  C   UNL     1       1.322  -1.261  -6.135  0.00  0.00    +0.046 C 
ATOM     26  C   UNL     1       1.000  -0.967  -4.693  0.00  0.00    -0.020 A 
ATOM     27  C   UNL     1      -0.197  -0.359  -4.362  0.00  0.00    +0.007 A 
ATOM     28  C   UNL     1      -0.495  -0.094  -3.039  0.00  0.00    +0.029 A 
ATOM     29  C   UNL     1       0.409  -0.426  -2.047  0.00  0.00    +0.111 A 
ATOM     30  C   UNL     1       1.606  -1.034  -2.377  0.00  0.00    +0.061 A 
ATOM     31  C   UNL     1       1.901  -1.305  -3.701  0.00  0.00    +0.131 A 
BRANCH  31  32
ATOM     32  N   UNL     1       3.183  -1.955  -4.055  0.00  0.00    +0.057 N 
ATOM     33  O   UNL     1       4.026  -2.146  -3.197  0.00  0.00    -0.126 OA
ATOM     34  O   UNL     1       3.393  -2.300  -5.204  0.00  0.00    -0.126 OA
ENDBRANCH  31  32
ENDBRANCH  22  29
ENDBRANCH  20  22
ENDBRANCH   1  20
TORSDOF 7
