REMARK  Name = ZINC39441860
REMARK  2 active torsions:
REMARK  status: ('A' for Active; 'I' for Inactive)
REMARK    1  A    between atoms: C_3  and  N_4
REMARK    2  A    between atoms: C_5  and  C_11
REMARK                            x       y       z     vdW  Elec       q    Type
REMARK                         _______ _______ _______ _____ _____    ______ ____
ROOT
ATOM      1  N   UNL     1      -0.427  -0.633  -1.431  0.00  0.00    -0.283 N 
ATOM      2  C   UNL     1      -1.446  -1.696  -1.390  0.00  0.00    +0.207 C 
ATOM      3  N   UNL     1      -1.476  -2.210  -2.770  0.00  0.00    -0.244 N 
ATOM      4  N   UNL     1      -0.533  -1.463  -3.486  0.00  0.00    -0.162 NA
ATOM      5  C   UNL     1       0.041  -0.584  -2.736  0.00  0.00    +0.186 C 
ATOM      6  S   UNL     1       1.276   0.539  -3.300  0.00  0.00    -0.012 SA
ATOM      7  H   UNL     1      -2.037  -2.923  -3.113  0.00  0.00    +0.170 HD
ENDROOT
BRANCH   2   8
ATOM      8  C   UNL     1      -2.808  -1.119  -0.998  0.00  0.00    +0.192 C 
ATOM      9  C   UNL     1      -3.865  -2.208  -0.975  0.00  0.00    +0.026 C 
ATOM     10  C   UNL     1      -4.744  -1.823  -1.903  0.00  0.00    +0.132 C 
ATOM     11  N   UNL     1      -4.359  -0.661  -2.475  0.00  0.00    -0.162 NA
ATOM     12  N   UNL     1      -3.300  -0.196  -2.035  0.00  0.00    -0.177 NA
ENDBRANCH   2   8
BRANCH   1  15
ATOM     13  C   UNL     1       0.744  -0.466   0.840  0.00  0.00    +0.024 C 
ATOM     14  C   UNL     1      -0.697   0.014   1.032  0.00  0.00    +0.024 C 
ATOM     15  C   UNL     1       0.003   0.212  -0.314  0.00  0.00    +0.077 C 
ENDBRANCH   1  15
TORSDOF 2
