REMARK  Name = ZINC65298217
REMARK  7 active torsions:
REMARK  status: ('A' for Active; 'I' for Inactive)
REMARK    1  A    between atoms: C_1  and  C_2
REMARK    2  A    between atoms: C_2  and  N_3
REMARK    3  A    between atoms: C_10  and  C_22
REMARK    4  A    between atoms: C_13  and  C_15
REMARK    5  A    between atoms: C_26  and  O_29
REMARK    6  A    between atoms: C_27  and  O_28
REMARK    7  A    between atoms: O_29  and  C_30
REMARK                            x       y       z     vdW  Elec       q    Type
REMARK                         _______ _______ _______ _____ _____    ______ ____
ROOT
ATOM      1  N   UNL     1      -1.376  -0.512   0.012  0.00  0.00    +0.380 N 
ATOM      2  C   UNL     1      -2.051  -0.117  -1.230  0.00  0.00    -0.075 C 
ATOM      3  C   UNL     1      -3.510  -0.577  -1.190  0.00  0.00    +0.027 C 
ATOM      4  C   UNL     1      -3.555  -2.102  -1.048  0.00  0.00    +0.109 C 
ATOM      5  C   UNL     1      -2.788  -2.505   0.216  0.00  0.00    +0.027 C 
ATOM      6  C   UNL     1      -1.355  -1.976   0.125  0.00  0.00    -0.075 C 
ATOM      7  N   UNL     1      -4.953  -2.535  -0.925  0.00  0.00    -0.286 NA
ATOM      8  C   UNL     1      -5.036  -4.005  -0.978  0.00  0.00    +0.095 C 
ATOM      9  C   UNL     1      -4.650  -4.454  -2.391  0.00  0.00    +0.079 C 
ATOM     10  C   UNL     1      -3.390  -3.750  -2.814  0.00  0.00    +0.047 C 
ATOM     11  N   UNL     1      -2.931  -2.718  -2.214  0.00  0.00    -0.266 NA
ATOM     12  H   UNL     1      -5.368  -2.180  -0.076  0.00  0.00    +0.125 HD
ATOM     13  H   UNL     1      -1.871  -0.123   0.800  0.00  0.00    -0.082 HD
ENDROOT
BRANCH  10  14
ATOM     14  C   UNL     1      -2.649  -4.276  -3.977  0.00  0.00    -0.004 A 
ATOM     15  C   UNL     1      -3.121  -5.397  -4.661  0.00  0.00    +0.011 A 
ATOM     16  C   UNL     1      -2.423  -5.884  -5.747  0.00  0.00    +0.016 A 
ATOM     17  C   UNL     1      -1.257  -5.262  -6.159  0.00  0.00    +0.018 A 
ATOM     18  C   UNL     1      -0.783  -4.149  -5.484  0.00  0.00    +0.016 A 
ATOM     19  C   UNL     1      -1.474  -3.650  -4.401  0.00  0.00    +0.011 A 
ATOM     20 BR   UNL     1      -0.306  -5.935  -7.648  0.00  0.00    -0.050 Br
ENDBRANCH  10  14
BRANCH   8  21
ATOM     21  C   UNL     1      -6.443  -4.447  -0.670  0.00  0.00    +0.015 A 
ATOM     22  C   UNL     1      -7.503  -3.591  -0.904  0.00  0.00    +0.009 A 
ATOM     23  C   UNL     1      -8.795  -3.993  -0.622  0.00  0.00    +0.004 A 
ATOM     24  C   UNL     1      -9.033  -5.253  -0.104  0.00  0.00    +0.049 A 
ATOM     25  C   UNL     1      -7.975  -6.115   0.133  0.00  0.00    +0.162 A 
ATOM     26  C   UNL     1      -6.675  -5.712  -0.157  0.00  0.00    +0.163 A 
BRANCH  26  27
ATOM     27  O   UNL     1      -5.633  -6.558   0.069  0.00  0.00    -0.503 OA
ATOM     28  H   UNL     1      -5.252  -6.484   0.955  0.00  0.00    +0.292 HD
ENDBRANCH  26  27
BRANCH  25  29
ATOM     29  O   UNL     1      -8.208  -7.354   0.643  0.00  0.00    -0.491 OA
ATOM     30  C   UNL     1      -9.568  -7.702   0.910  0.00  0.00    +0.277 C 
ENDBRANCH  25  29
ENDBRANCH   8  21
BRANCH   1  32
ATOM     31  C   UNL     1      -0.019   1.526   0.010  0.00  0.00    -0.017 C 
ATOM     32  C   UNL     1       0.002  -0.004   0.002  0.00  0.00    -0.082 C 
ENDBRANCH   1  32
TORSDOF 5
