REMARK  Name = ZINC11915935
REMARK  10 active torsions:
REMARK  status: ('A' for Active; 'I' for Inactive)
REMARK    1  A    between atoms: C_1  and  C_2
REMARK    2  A    between atoms: C_2  and  O_3
REMARK    3  A    between atoms: O_3  and  C_4
REMARK    4  A    between atoms: C_4  and  C_6
REMARK    5  A    between atoms: C_7  and  C_29
REMARK    6  A    between atoms: C_8  and  C_26
REMARK    7  A    between atoms: C_10  and  N_11
REMARK    8  A    between atoms: C_12  and  C_14
REMARK    9  A    between atoms: C_16  and  C_19
REMARK   10  A    between atoms: C_26  and  C_28
REMARK                            x       y       z     vdW  Elec       q    Type
REMARK                         _______ _______ _______ _____ _____    ______ ____
ROOT
ATOM      1  N   UNL     1      -1.221  -2.353   2.492  0.00  0.00    -0.274 N 
ATOM      2  C   UNL     1      -1.239  -3.215   3.528  0.00  0.00    +0.270 C 
ATOM      3  O   UNL     1      -1.289  -4.412   3.321  0.00  0.00    -0.268 OA
ATOM      4  H   UNL     1      -1.181  -1.398   2.657  0.00  0.00    +0.156 HD
ENDROOT
BRANCH   1   9
ATOM      5  C   UNL     1      -1.248  -2.099   0.003  0.00  0.00    +0.091 A 
ATOM      6  C   UNL     1      -1.287  -2.806  -1.186  0.00  0.00    -0.017 A 
ATOM      7  C   UNL     1      -1.339  -4.187  -1.103  0.00  0.00    +0.060 A 
ATOM      8  S   UNL     1      -1.333  -4.472   0.657  0.00  0.00    -0.069 S 
ATOM      9  C   UNL     1      -1.258  -2.828   1.199  0.00  0.00    +0.087 A 
ATOM     10  C   UNL     1      -1.273  -2.101  -2.518  0.00  0.00    +0.046 C 
BRANCH   7  11
ATOM     11  C   UNL     1      -1.386  -5.131  -2.149  0.00  0.00    +0.167 C 
ATOM     12  O   UNL     1      -1.383  -4.758  -3.305  0.00  0.00    -0.292 OA
ATOM     13  C   UNL     1      -1.440  -6.604  -1.833  0.00  0.00    +0.092 C 
ENDBRANCH   7  11
BRANCH   5  14
ATOM     14  C   UNL     1      -1.191  -0.632   0.010  0.00  0.00    +0.342 C 
ATOM     15  O   UNL     1      -2.219   0.016   0.023  0.00  0.00    -0.245 OA
BRANCH  14  16
ATOM     16  O   UNL     1       0.002  -0.004   0.002  0.00  0.00    -0.461 OA
BRANCH  16  18
ATOM     17  C   UNL     1       1.418   1.977  -0.001  0.00  0.00    +0.048 C 
ATOM     18  C   UNL     1      -0.018   1.448   0.010  0.00  0.00    +0.229 C 
ENDBRANCH  16  18
ENDBRANCH  14  16
ENDBRANCH   5  14
ENDBRANCH   1   9
BRANCH   2  19
ATOM     19  C   UNL     1      -1.198  -2.704   4.919  0.00  0.00    +0.169 A 
ATOM     20  C   UNL     1      -1.217  -3.476   6.110  0.00  0.00    +0.086 A 
ATOM     21  C   UNL     1      -1.160  -2.541   7.106  0.00  0.00    +0.168 A 
ATOM     22  O   UNL     1      -1.123  -1.342   6.498  0.00  0.00    -0.354 OA
ATOM     23  N   UNL     1      -1.144  -1.449   5.295  0.00  0.00    -0.073 NA
BRANCH  21  24
ATOM     24  C   UNL     1      -1.149  -2.797   8.562  0.00  0.00    +0.020 A 
ATOM     25  C   UNL     1      -1.198  -4.106   9.044  0.00  0.00    +0.013 A 
ATOM     26  C   UNL     1      -1.181  -4.339  10.403  0.00  0.00    +0.021 A 
ATOM     27  C   UNL     1      -1.127  -3.276  11.290  0.00  0.00    +0.041 A 
ATOM     28  C   UNL     1      -1.083  -1.975  10.818  0.00  0.00    +0.021 A 
ATOM     29  C   UNL     1      -1.094  -1.730   9.461  0.00  0.00    +0.013 A 
ATOM     30 CL   UNL     1      -1.114  -3.577  12.999  0.00  0.00    -0.084 Cl
ENDBRANCH  21  24
ENDBRANCH   2  19
TORSDOF 7
