REMARK  Name = ZINC16043398
REMARK  9 active torsions:
REMARK  status: ('A' for Active; 'I' for Inactive)
REMARK    1  A    between atoms: C_4  and  C_7
REMARK    2  A    between atoms: N_9  and  N_10
REMARK    3  A    between atoms: C_11  and  C_13
REMARK    4  A    between atoms: C_13  and  O_14
REMARK    5  A    between atoms: O_14  and  C_15
REMARK    6  A    between atoms: C_15  and  C_17
REMARK    7  A    between atoms: C_20  and  O_37
REMARK    8  A    between atoms: N_23  and  S_24
REMARK    9  A    between atoms: S_24  and  C_27
REMARK                            x       y       z     vdW  Elec       q    Type
REMARK                         _______ _______ _______ _____ _____    ______ ____
ROOT
ATOM      1  C   UNL     1      -3.330   7.658   0.152  0.00  0.00    +0.191 C 
ATOM      2  C   UNL     1      -2.632   8.158   1.435  0.00  0.00    +0.064 C 
ATOM      3  C   UNL     1      -3.163   9.609   1.576  0.00  0.00    +0.132 C 
ATOM      4  C   UNL     1      -4.616   9.460   1.060  0.00  0.00    +0.141 C 
ATOM      5  N   UNL     1      -4.525   8.489  -0.050  0.00  0.00    -0.160 NA
ENDROOT
BRANCH   5   6
ATOM      6  S   UNL     1      -5.590   8.358  -1.312  0.00  0.00    +0.062 S 
ATOM      7  O   UNL     1      -5.381   7.075  -1.887  0.00  0.00    -0.153 OA
ATOM      8  O   UNL     1      -6.856   8.775  -0.820  0.00  0.00    -0.153 OA
BRANCH   6   9
ATOM      9  C   UNL     1      -5.107   9.539  -2.526  0.00  0.00    +0.106 A 
ATOM     10  C   UNL     1      -4.274   9.146  -3.572  0.00  0.00    +0.029 A 
ATOM     11  C   UNL     1      -3.883  10.034  -4.527  0.00  0.00    +0.010 A 
ATOM     12  C   UNL     1      -4.324  11.366  -4.461  0.00  0.00    -0.018 A 
ATOM     13  C   UNL     1      -3.942  12.311  -5.429  0.00  0.00    +0.008 A 
ATOM     14  C   UNL     1      -4.388  13.593  -5.332  0.00  0.00    +0.001 A 
ATOM     15  C   UNL     1      -5.221  13.985  -4.286  0.00  0.00    +0.001 A 
ATOM     16  C   UNL     1      -5.612  13.098  -3.331  0.00  0.00    +0.008 A 
ATOM     17  C   UNL     1      -5.171  11.766  -3.397  0.00  0.00    -0.016 A 
ATOM     18  C   UNL     1      -5.558  10.820  -2.433  0.00  0.00    +0.037 A 
ENDBRANCH   6   9
ENDBRANCH   5   6
BRANCH   1  19
ATOM     19  C   UNL     1      -3.731   6.215   0.317  0.00  0.00    +0.327 C 
ATOM     20  O   UNL     1      -4.838   5.937   0.712  0.00  0.00    -0.249 OA
BRANCH  19  21
ATOM     21  O   UNL     1      -2.858   5.238   0.025  0.00  0.00    -0.454 OA
BRANCH  21  22
ATOM     22  C   UNL     1      -3.312   3.871   0.207  0.00  0.00    +0.329 C 
BRANCH  22  24
ATOM     23  N   UNL     1      -2.402   1.589  -0.077  0.00  0.00    -0.231 N 
ATOM     24  C   UNL     1      -2.206   2.920  -0.168  0.00  0.00    +0.267 C 
ATOM     25  O   UNL     1      -1.139   3.351  -0.550  0.00  0.00    -0.271 OA
ATOM     26  H   UNL     1      -3.255   1.244   0.229  0.00  0.00    +0.173 HD
BRANCH  23  29
ATOM     27  C   UNL     1      -1.569  -0.626  -0.335  0.00  0.00    +0.260 C 
ATOM     28  O   UNL     1      -2.636  -1.058   0.053  0.00  0.00    -0.269 OA
ATOM     29  N   UNL     1      -1.373   0.704  -0.426  0.00  0.00    -0.230 N 
ATOM     30  H   UNL     1      -0.521   1.049  -0.736  0.00  0.00    +0.173 HD
BRANCH  27  34
ATOM     31  C   UNL     1       1.545  -3.309  -1.409  0.00  0.00    +0.000 A 
ATOM     32  C   UNL     1       0.331  -3.804  -0.967  0.00  0.00    +0.001 A 
ATOM     33  C   UNL     1      -0.684  -2.938  -0.616  0.00  0.00    +0.013 A 
ATOM     34  C   UNL     1      -0.485  -1.560  -0.709  0.00  0.00    +0.038 A 
ATOM     35  C   UNL     1       0.740  -1.067  -1.161  0.00  0.00    +0.013 A 
ATOM     36  C   UNL     1       1.749  -1.944  -1.502  0.00  0.00    +0.001 A 
ENDBRANCH  27  34
ENDBRANCH  23  29
ENDBRANCH  22  24
ENDBRANCH  21  22
ENDBRANCH  19  21
ENDBRANCH   1  19
BRANCH   3  37
ATOM     37  O   UNL     1      -3.145  10.030   2.942  0.00  0.00    -0.390 OA
ATOM     38  H   UNL     1      -3.468  10.931   3.080  0.00  0.00    +0.210 HD
ENDBRANCH   3  37
TORSDOF 9
