REMARK  Name = ZINC09108816
REMARK  8 active torsions:
REMARK  status: ('A' for Active; 'I' for Inactive)
REMARK    1  A    between atoms: C_1  and  C_2
REMARK    2  A    between atoms: C_2  and  C_3
REMARK    3  A    between atoms: C_3  and  C_4
REMARK    4  A    between atoms: C_3  and  C_5
REMARK    5  A    between atoms: C_3  and  C_6
REMARK    6  A    between atoms: C_12  and  C_16
REMARK    7  A    between atoms: N_18  and  N_19
REMARK    8  A    between atoms: C_20  and  C_21
REMARK                            x       y       z     vdW  Elec       q    Type
REMARK                         _______ _______ _______ _____ _____    ______ ____
ROOT
ATOM      1  C   UNL     1       0.739  -2.027  -1.265  0.00  0.00    -0.001 C 
ATOM      2  C   UNL     1       1.477  -2.533  -0.024  0.00  0.00    +0.010 C 
ATOM      3  C   UNL     1       1.261  -4.044   0.132  0.00  0.00    +0.058 C 
ATOM      4  C   UNL     1       1.586  -4.705  -1.185  0.00  0.00    +0.067 A 
ATOM      5  C   UNL     1       1.676  -4.003  -2.394  0.00  0.00    +0.006 A 
ATOM      6  C   UNL     1       1.988  -4.938  -3.349  0.00  0.00    +0.125 A 
ATOM      7  N   UNL     1       2.069  -6.136  -2.688  0.00  0.00    -0.272 N 
ATOM      8  H   UNL     1       2.276  -6.988  -3.102  0.00  0.00    +0.189 HD
ATOM      9  N   UNL     1       1.829  -5.958  -1.435  0.00  0.00    -0.178 NA
ATOM     10  C   UNL     1       1.456  -2.521  -2.530  0.00  0.00    +0.043 C 
ENDROOT
BRANCH   6  11
ATOM     11  C   UNL     1       2.193  -4.702  -4.786  0.00  0.00    +0.281 C 
ATOM     12  O   UNL     1       2.088  -3.578  -5.239  0.00  0.00    -0.267 OA
ATOM     13  N   UNL     1       2.497  -5.732  -5.601  0.00  0.00    -0.202 N 
ATOM     14  H   UNL     1       2.581  -6.628  -5.239  0.00  0.00    +0.178 HD
BRANCH  13  15
ATOM     15  N   UNL     1       2.692  -5.508  -6.970  0.00  0.00    -0.187 NA
ATOM     16  C   UNL     1       2.985  -6.499  -7.755  0.00  0.00    +0.138 C 
BRANCH  16  17
ATOM     17  C   UNL     1       3.190  -6.263  -9.196  0.00  0.00    -0.005 A 
ATOM     18  C   UNL     1       3.076  -4.973  -9.718  0.00  0.00    +0.012 A 
ATOM     19  C   UNL     1       3.270  -4.758 -11.066  0.00  0.00    +0.039 A 
ATOM     20  C   UNL     1       3.577  -5.820 -11.903  0.00  0.00    +0.123 A 
ATOM     21  C   UNL     1       3.691  -7.103 -11.390  0.00  0.00    +0.039 A 
ATOM     22  C   UNL     1       3.506  -7.329 -10.043  0.00  0.00    +0.012 A 
ATOM     23  F   UNL     1       3.765  -5.604 -13.223  0.00  0.00    -0.205 F 
ENDBRANCH  16  17
ENDBRANCH  13  15
ENDBRANCH   6  11
BRANCH   1  24
ATOM     24  C   UNL     1       0.718  -0.497  -1.257  0.00  0.00    -0.032 C 
ATOM     25  C   UNL     1      -0.022   0.009  -2.496  0.00  0.00    +0.011 C 
ATOM     26  C   UNL     1       2.154   0.032  -1.268  0.00  0.00    +0.011 C 
BRANCH  24  28
ATOM     27  C   UNL     1      -0.019   1.526   0.010  0.00  0.00    +0.004 C 
ATOM     28  C   UNL     1       0.002  -0.004   0.002  0.00  0.00    +0.003 C 
ENDBRANCH  24  28
ENDBRANCH   1  24
TORSDOF 5
