REMARK  Name = ZINC19884578
REMARK  20 active torsions:
REMARK  status: ('A' for Active; 'I' for Inactive)
REMARK    1  A    between atoms: C_1  and  C_2
REMARK    2  A    between atoms: C_2  and  C_32
REMARK    3  A    between atoms: C_4  and  N_10
REMARK    4  A    between atoms: C_6  and  C_8
REMARK    5  A    between atoms: C_6  and  C_9
REMARK    6  A    between atoms: N_10  and  C_11
REMARK    7  A    between atoms: C_11  and  C_12
REMARK    8  A    between atoms: C_12  and  C_14
REMARK    9  A    between atoms: C_12  and  O_31
REMARK   10  A    between atoms: C_14  and  O_15
REMARK   11  A    between atoms: O_15  and  C_16
REMARK   12  A    between atoms: C_18  and  C_27
REMARK   13  A    between atoms: C_19  and  O_26
REMARK   14  A    between atoms: C_20  and  C_22
REMARK   15  A    between atoms: C_22  and  C_23
REMARK   16  A    between atoms: C_22  and  C_24
REMARK   17  A    between atoms: C_22  and  C_25
REMARK   18  A    between atoms: C_27  and  C_28
REMARK   19  A    between atoms: C_27  and  C_29
REMARK   20  A    between atoms: C_27  and  C_30
REMARK                            x       y       z     vdW  Elec       q    Type
REMARK                         _______ _______ _______ _____ _____    ______ ____
ROOT
ATOM      1  C   UNL     1       1.072   4.622  -5.395  0.00  0.00    +0.166 C 
ENDROOT
BRANCH   1   2
ATOM      2  O   UNL     1       0.677   3.579  -6.289  0.00  0.00    -0.387 OA
ATOM      3  H   UNL     1       0.962   3.627  -7.350  0.00  0.00    +0.210 HD
ENDBRANCH   1   2
BRANCH   1   4
ATOM      4  C   UNL     1       0.552   4.313  -3.990  0.00  0.00    +0.115 C 
BRANCH   4   5
ATOM      5  N   UNL     1       1.204   3.099  -3.482  0.00  0.00    -0.311 NA
ATOM      6  H   UNL     1       2.291   3.267  -3.457  0.00  0.00    +0.122 HD
BRANCH   5  10
ATOM      7  C   UNL     1      -2.143   0.475  -1.020  0.00  0.00    -0.010 C 
ATOM      8  C   UNL     1      -1.048   1.551  -0.843  0.00  0.00    -0.072 C 
ATOM      9  C   UNL     1      -0.543   1.927  -2.233  0.00  0.00    +0.006 C 
ATOM     10  C   UNL     1       0.727   2.770  -2.128  0.00  0.00    +0.051 C 
ATOM     11  C   UNL     1       1.795   1.952  -1.403  0.00  0.00    +0.006 C 
ATOM     12  C   UNL     1       1.318   1.579  -0.002  0.00  0.00    -0.072 C 
ATOM     13  N   UNL     1      -0.012   1.005   0.008  0.00  0.00    +0.386 N 
ATOM     14  C   UNL     1       1.397   2.808   0.911  0.00  0.00    -0.010 C 
ATOM     15  C   UNL     1       2.301   0.528   0.560  0.00  0.00    -0.010 C 
ATOM     16  C   UNL     1      -1.713   2.771  -0.192  0.00  0.00    -0.010 C 
ATOM     17  H   UNL     1      -0.323   1.080   1.060  0.00  0.00    -0.084 HD
ATOM     18  H   UNL     1       0.156  -0.051  -0.251  0.00  0.00    -0.084 HD
ENDBRANCH   5  10
ENDBRANCH   4   5
ENDBRANCH   1   4
BRANCH   1  19
ATOM     19  C   UNL     1       0.487   5.952  -5.874  0.00  0.00    +0.261 C 
BRANCH  19  20
ATOM     20  O   UNL     1       1.062   6.298  -7.136  0.00  0.00    -0.489 OA
BRANCH  20  21
ATOM     21  C   UNL     1       0.647   7.461  -7.706  0.00  0.00    +0.121 A 
ATOM     22  C   UNL     1      -0.298   8.249  -7.064  0.00  0.00    +0.053 A 
ATOM     23  C   UNL     1      -0.716   9.432  -7.641  0.00  0.00    +0.003 A 
ATOM     24  C   UNL     1      -0.198   9.829  -8.865  0.00  0.00    +0.124 A 
ATOM     25  C   UNL     1       0.743   9.039  -9.508  0.00  0.00    +0.003 A 
ATOM     26  C   UNL     1       1.164   7.857  -8.930  0.00  0.00    +0.053 A 
BRANCH  25  27
ATOM     27  C   UNL     1       1.305   9.469 -10.838  0.00  0.00    -0.009 C 
ATOM     28  C   UNL     1       2.315   8.428 -11.326  0.00  0.00    +0.015 C 
ATOM     29  C   UNL     1       0.170   9.594 -11.856  0.00  0.00    +0.015 C 
ATOM     30  C   UNL     1       2.003  10.822 -10.684  0.00  0.00    +0.015 C 
ENDBRANCH  25  27
BRANCH  23  31
ATOM     31  C   UNL     1      -1.739  10.291  -6.942  0.00  0.00    -0.009 C 
ATOM     32  C   UNL     1      -2.141   9.631  -5.621  0.00  0.00    +0.015 C 
ATOM     33  C   UNL     1      -1.140  11.671  -6.661  0.00  0.00    +0.015 C 
ATOM     34  C   UNL     1      -2.973  10.442  -7.833  0.00  0.00    +0.015 C 
ENDBRANCH  23  31
BRANCH  24  35
ATOM     35  O   UNL     1      -0.613  10.992  -9.434  0.00  0.00    -0.506 OA
ATOM     36  H   UNL     1      -0.203  11.306 -10.405  0.00  0.00    +0.292 HD
ENDBRANCH  24  35
ENDBRANCH  20  21
ENDBRANCH  19  20
ENDBRANCH   1  19
TORSDOF 10
