REMARK  Name = ZINC02977075
REMARK  9 active torsions:
REMARK  status: ('A' for Active; 'I' for Inactive)
REMARK    1  A    between atoms: C_1  and  C_2
REMARK    2  A    between atoms: C_2  and  C_3
REMARK    3  A    between atoms: C_3  and  C_4
REMARK    4  A    between atoms: C_4  and  S_5
REMARK    5  A    between atoms: S_5  and  C_6
REMARK    6  A    between atoms: C_19  and  C_22
REMARK    7  A    between atoms: C_25  and  O_29
REMARK    8  A    between atoms: C_26  and  C_28
REMARK    9  A    between atoms: O_29  and  C_30
REMARK                            x       y       z     vdW  Elec       q    Type
REMARK                         _______ _______ _______ _____ _____    ______ ____
ROOT
ATOM      1  C   UNL     1      -5.034   5.027   0.102  0.00  0.00    +0.212 A 
ATOM      2  N   UNL     1      -4.855   4.035  -0.765  0.00  0.00    -0.184 NA
ATOM      3  C   UNL     1      -3.666   3.464  -0.858  0.00  0.00    +0.248 A 
ATOM      4  C   UNL     1      -2.623   3.927  -0.023  0.00  0.00    +0.156 A 
ATOM      5  N   UNL     1      -2.868   4.920   0.817  0.00  0.00    -0.141 NA
ATOM      6  N   UNL     1      -4.040   5.450   0.873  0.00  0.00    -0.122 NA
ATOM      7  C   UNL     1      -1.290   3.296  -0.103  0.00  0.00    +0.029 A 
ATOM      8  C   UNL     1      -0.129   4.056  -0.186  0.00  0.00    +0.027 A 
ATOM      9  C   UNL     1       1.100   3.427  -0.242  0.00  0.00    +0.019 A 
ATOM     10  C   UNL     1       1.183   2.045  -0.214  0.00  0.00    +0.017 A 
ATOM     11  C   UNL     1       0.035   1.277  -0.135  0.00  0.00    +0.025 A 
ATOM     12  C   UNL     1      -1.202   1.891  -0.091  0.00  0.00    +0.040 A 
ATOM     13  N   UNL     1      -2.385   1.145  -0.038  0.00  0.00    -0.305 N 
ATOM     14  C   UNL     1      -3.267   1.150  -1.201  0.00  0.00    +0.294 C 
ATOM     15  O   UNL     1      -3.431   2.459  -1.734  0.00  0.00    -0.449 OA
ATOM     16 BR   UNL     1       2.679   4.461  -0.359  0.00  0.00    -0.050 Br
ATOM     17  H   UNL     1      -2.614   0.634   0.754  0.00  0.00    +0.150 HD
ENDROOT
BRANCH  14  18
ATOM     18  C   UNL     1      -2.683   0.256  -2.264  0.00  0.00    +0.012 A 
ATOM     19  C   UNL     1      -2.035  -0.912  -1.905  0.00  0.00    +0.012 A 
ATOM     20  C   UNL     1      -1.498  -1.733  -2.877  0.00  0.00    +0.046 A 
ATOM     21  C   UNL     1      -1.609  -1.385  -4.216  0.00  0.00    +0.123 A 
ATOM     22  C   UNL     1      -2.259  -0.213  -4.574  0.00  0.00    -0.008 A 
ATOM     23  C   UNL     1      -2.799   0.602  -3.597  0.00  0.00    +0.016 A 
ATOM     24  C   UNL     1      -2.381   0.169  -6.027  0.00  0.00    +0.047 C 
BRANCH  21  25
ATOM     25  O   UNL     1      -1.082  -2.191  -5.175  0.00  0.00    -0.495 OA
ATOM     26  C   UNL     1      -0.427  -3.382  -4.733  0.00  0.00    +0.277 C 
ENDBRANCH  21  25
ENDBRANCH  14  18
BRANCH   1  27
ATOM     27  S   UNL     1      -6.616   5.792   0.229  0.00  0.00    -0.084 S 
BRANCH  27  28
ATOM     28  C   UNL     1      -6.270   7.018   1.514  0.00  0.00    +0.077 C 
BRANCH  28  29
ATOM     29  C   UNL     1      -7.537   7.827   1.801  0.00  0.00    +0.011 C 
BRANCH  29  31
ATOM     30  C   UNL     1      -8.511   9.673   3.175  0.00  0.00    +0.004 C 
ATOM     31  C   UNL     1      -7.244   8.864   2.888  0.00  0.00    -0.003 C 
ENDBRANCH  29  31
ENDBRANCH  28  29
ENDBRANCH  27  28
ENDBRANCH   1  27
TORSDOF 6
