REMARK  Name = ZINC11591872
REMARK  6 active torsions:
REMARK  status: ('A' for Active; 'I' for Inactive)
REMARK    1  A    between atoms: C_3  and  C_6
REMARK    2  A    between atoms: C_9  and  S_12
REMARK    3  A    between atoms: N_10  and  N_11
REMARK    4  A    between atoms: S_12  and  C_13
REMARK    5  A    between atoms: C_13  and  C_14
REMARK    6  A    between atoms: N_19  and  C_20
REMARK                            x       y       z     vdW  Elec       q    Type
REMARK                         _______ _______ _______ _____ _____    ______ ____
ROOT
ATOM      1  C   UNL     1       3.734  10.697   0.235  0.00  0.00    +0.231 C 
ATOM      2  O   UNL     1       4.881  10.444   0.535  0.00  0.00    -0.274 OA
ATOM      3  N   UNL     1       3.356  11.976   0.035  0.00  0.00    -0.239 N 
ATOM      4  C   UNL     1       4.254  12.972   0.169  0.00  0.00    +0.306 C 
ATOM      5  O   UNL     1       5.404  12.718   0.469  0.00  0.00    -0.252 OA
ATOM      6  N   UNL     1       3.876  14.250  -0.031  0.00  0.00    -0.294 N 
ATOM      7  H   UNL     1       2.439  12.178  -0.205  0.00  0.00    +0.159 HD
ATOM      8  H   UNL     1       2.958  14.453  -0.271  0.00  0.00    +0.151 HD
ENDROOT
BRANCH   6   9
ATOM      9  C   UNL     1       4.851  15.334   0.114  0.00  0.00    +0.037 C 
ATOM     10  C   UNL     1       5.407  15.331   1.540  0.00  0.00    +0.029 C 
ATOM     11  C   UNL     1       6.426  16.463   1.691  0.00  0.00    -0.008 C 
ATOM     12  C   UNL     1       5.744  17.804   1.412  0.00  0.00    +0.007 C 
ATOM     13  C   UNL     1       5.188  17.806  -0.013  0.00  0.00    -0.008 C 
ATOM     14  C   UNL     1       4.169  16.675  -0.165  0.00  0.00    +0.029 C 
ATOM     15  C   UNL     1       6.332  17.599  -1.007  0.00  0.00    +0.007 C 
ATOM     16  C   UNL     1       7.014  16.258  -0.728  0.00  0.00    -0.008 C 
ATOM     17  C   UNL     1       7.570  16.256   0.697  0.00  0.00    +0.007 C 
ATOM     18  C   UNL     1       5.995  15.127  -0.880  0.00  0.00    +0.029 C 
ENDBRANCH   6   9
BRANCH   1  19
ATOM     19  C   UNL     1       2.731   9.583   0.085  0.00  0.00    +0.173 C 
BRANCH  19  20
ATOM     20  S   UNL     1       3.538   7.997   0.415  0.00  0.00    -0.075 S 
BRANCH  20  24
ATOM     21  C   UNL     1       0.914   5.126   0.019  0.00  0.00    +0.188 A 
ATOM     22  N   UNL     1       0.209   6.203  -0.249  0.00  0.00    -0.126 NA
ATOM     23  N   UNL     1       0.950   7.248  -0.151  0.00  0.00    -0.121 NA
ATOM     24  C   UNL     1       2.175   6.905   0.176  0.00  0.00    +0.209 A 
ATOM     25  N   UNL     1       2.197   5.543   0.297  0.00  0.00    -0.223 N 
BRANCH  21  28
ATOM     26  C   UNL     1      -1.081   1.915   0.017  0.00  0.00    +0.008 A 
ATOM     27  C   UNL     1      -0.866   3.275   0.026  0.00  0.00    +0.019 A 
ATOM     28  C   UNL     1       0.426   3.737   0.017  0.00  0.00    +0.058 A 
ATOM     29  S   UNL     1       1.361   2.216   0.001  0.00  0.00    -0.093 S 
ATOM     30  C   UNL     1      -0.013   1.076   0.008  0.00  0.00    +0.046 A 
ENDBRANCH  21  28
BRANCH  25  31
ATOM     31  N   UNL     1       3.267   4.760   0.623  0.00  0.00    -0.295 N 
ATOM     32  H   UNL     1       3.773   4.476  -0.203  0.00  0.00    +0.163 HD
ATOM     33  H   UNL     1       3.876   5.232   1.275  0.00  0.00    +0.163 HD
ENDBRANCH  25  31
ENDBRANCH  20  24
ENDBRANCH  19  20
ENDBRANCH   1  19
TORSDOF 6
