REMARK  Name = ZINC04962743
REMARK  5 active torsions:
REMARK  status: ('A' for Active; 'I' for Inactive)
REMARK    1  A    between atoms: C_1  and  C_2
REMARK    2  A    between atoms: N_9  and  C_24
REMARK    3  A    between atoms: N_13  and  N_14
REMARK    4  A    between atoms: N_14  and  C_15
REMARK    5  A    between atoms: C_18  and  N_21
REMARK                            x       y       z     vdW  Elec       q    Type
REMARK                         _______ _______ _______ _____ _____    ______ ____
ROOT
ATOM      1  C   UNL     1      -0.018   1.503   0.010  0.00  0.00    +0.044 C 
ATOM      2  C   UNL     1       0.002  -0.004   0.002  0.00  0.00    -0.049 A 
ATOM      3  C   UNL     1       0.006  -0.687  -1.198  0.00  0.00    +0.015 A 
ATOM      4  C   UNL     1       0.025  -2.077  -1.201  0.00  0.00    +0.030 A 
ATOM      5  C   UNL     1       0.040  -2.788   0.007  0.00  0.00    +0.060 A 
ATOM      6  C   UNL     1       0.036  -2.083   1.206  0.00  0.00    +0.040 A 
ATOM      7  C   UNL     1       0.023  -0.702   1.198  0.00  0.00    +0.020 A 
ATOM      8 BR   UNL     1       0.055  -3.017   2.850  0.00  0.00    -0.048 Br
ATOM      9  N   UNL     1       0.057  -4.151  -0.265  0.00  0.00    -0.268 N 
ATOM     10  C   UNL     1       0.054  -4.388  -1.587  0.00  0.00    +0.271 C 
ATOM     11  O   UNL     1       0.066  -5.484  -2.119  0.00  0.00    -0.268 OA
ATOM     12  C   UNL     1       0.033  -3.090  -2.281  0.00  0.00    +0.153 C 
ATOM     13  N   UNL     1       0.024  -2.876  -3.578  0.00  0.00    -0.177 NA
ATOM     14  C   UNL     1       0.077  -5.197   0.761  0.00  0.00    +0.138 C 
ENDROOT
BRANCH  13  15
ATOM     15  N   UNL     1       0.034  -3.873  -4.396  0.00  0.00    -0.237 N 
ATOM     16  H   UNL     1       0.048  -4.781  -4.055  0.00  0.00    +0.174 HD
BRANCH  15  17
ATOM     17  C   UNL     1       0.024  -3.646  -5.773  0.00  0.00    +0.048 A 
ATOM     18  C   UNL     1       0.010  -2.346  -6.265  0.00  0.00    +0.027 A 
ATOM     19  C   UNL     1       0.001  -2.125  -7.628  0.00  0.00    +0.034 A 
ATOM     20  C   UNL     1       0.005  -3.196  -8.504  0.00  0.00    +0.126 A 
ATOM     21  C   UNL     1       0.019  -4.491  -8.018  0.00  0.00    +0.034 A 
ATOM     22  C   UNL     1       0.035  -4.719  -6.656  0.00  0.00    +0.027 A 
BRANCH  20  23
ATOM     23  N   UNL     1      -0.006  -2.955  -9.964  0.00  0.00    +0.056 N 
ATOM     24  O   UNL     1      -0.019  -1.823 -10.390  0.00  0.00    -0.126 OA
ATOM     25  O   UNL     1      -0.003  -3.889 -10.731  0.00  0.00    -0.126 OA
ENDBRANCH  20  23
ENDBRANCH  15  17
ENDBRANCH  13  15
TORSDOF 3
