REMARK  Name = ZINC63393831
REMARK  10 active torsions:
REMARK  status: ('A' for Active; 'I' for Inactive)
REMARK    1  A    between atoms: C_1  and  C_2
REMARK    2  A    between atoms: C_2  and  C_3
REMARK    3  A    between atoms: C_2  and  C_4
REMARK    4  A    between atoms: C_2  and  C_5
REMARK    5  A    between atoms: C_7  and  C_16
REMARK    6  A    between atoms: C_9  and  C_12
REMARK    7  A    between atoms: C_10  and  O_11
REMARK    8  A    between atoms: C_12  and  C_13
REMARK    9  A    between atoms: C_12  and  C_14
REMARK   10  A    between atoms: C_12  and  C_15
REMARK                            x       y       z     vdW  Elec       q    Type
REMARK                         _______ _______ _______ _____ _____    ______ ____
ROOT
ATOM      1  C   UNL     1       0.682  -0.490  -1.252  0.00  0.00    +0.000 A 
ATOM      2  C   UNL     1       1.191   0.419  -2.159  0.00  0.00    +0.013 A 
ATOM      3  C   UNL     1       1.864  -0.026  -3.283  0.00  0.00    -0.027 A 
ATOM      4  C   UNL     1       2.029  -1.381  -3.501  0.00  0.00    +0.013 A 
ATOM      5  C   UNL     1       1.521  -2.295  -2.597  0.00  0.00    +0.000 A 
ATOM      6  C   UNL     1       0.851  -1.851  -1.467  0.00  0.00    +0.124 A 
ENDROOT
BRANCH   3   7
ATOM      7  C   UNL     1       2.418   0.968  -4.270  0.00  0.00    +0.111 C 
ATOM      8  C   UNL     1       3.342   1.952  -3.549  0.00  0.00    +0.128 C 
ATOM      9  C   UNL     1       2.454   2.757  -2.607  0.00  0.00    -0.035 C 
ATOM     10  C   UNL     1       2.991   2.647  -1.400  0.00  0.00    -0.001 A 
ATOM     11  C   UNL     1       2.641   3.262  -0.109  0.00  0.00    +0.010 A 
ATOM     12  C   UNL     1       3.412   2.909   0.953  0.00  0.00    +0.001 A 
ATOM     13  C   UNL     1       4.483   2.015   0.862  0.00  0.00    +0.002 A 
ATOM     14  C   UNL     1       4.880   1.406  -0.284  0.00  0.00    +0.026 A 
ATOM     15  C   UNL     1       4.149   1.703  -1.471  0.00  0.00    +0.043 A 
ATOM     16  N   UNL     1       4.332   1.281  -2.708  0.00  0.00    -0.376 N 
ATOM     17  C   UNL     1       1.183   3.414  -3.086  0.00  0.00    +0.048 C 
ATOM     18  C   UNL     1       0.424   2.345  -3.892  0.00  0.00    +0.086 C 
ATOM     19  N   UNL     1       1.316   1.729  -4.880  0.00  0.00    -0.307 NA
ATOM     20  H   UNL     1       1.667   2.417  -5.529  0.00  0.00    +0.123 HD
ATOM     21  H   UNL     1       4.994   0.640  -3.011  0.00  0.00    +0.160 HD
ENDBRANCH   3   7
BRANCH   1  23
ATOM     22  C   UNL     1      -0.096   1.524  -0.035  0.00  0.00    +0.015 C 
ATOM     23  C   UNL     1      -0.051  -0.005  -0.029  0.00  0.00    -0.009 C 
ATOM     24  C   UNL     1       0.677  -0.489   1.227  0.00  0.00    +0.015 C 
ATOM     25  C   UNL     1      -1.478  -0.557  -0.036  0.00  0.00    +0.015 C 
ENDBRANCH   1  23
BRANCH   5  26
ATOM     26  C   UNL     1       1.701  -3.772  -2.836  0.00  0.00    -0.009 C 
ATOM     27  C   UNL     1       2.473  -3.987  -4.139  0.00  0.00    +0.015 C 
ATOM     28  C   UNL     1       2.482  -4.385  -1.673  0.00  0.00    +0.015 C 
ATOM     29  C   UNL     1       0.330  -4.442  -2.939  0.00  0.00    +0.015 C 
ENDBRANCH   5  26
BRANCH   6  30
ATOM     30  O   UNL     1       0.356  -2.747  -0.573  0.00  0.00    -0.506 OA
ATOM     31  H   UNL     1      -0.549  -3.031  -0.760  0.00  0.00    +0.292 HD
ENDBRANCH   6  30
TORSDOF 4
