REMARK  Name = ZINC43746679
REMARK  12 active torsions:
REMARK  status: ('A' for Active; 'I' for Inactive)
REMARK    1  A    between atoms: C_1  and  C_2
REMARK    2  A    between atoms: C_2  and  C_3
REMARK    3  A    between atoms: C_3  and  C_4
REMARK    4  A    between atoms: C_4  and  C_5
REMARK    5  A    between atoms: C_5  and  C_6
REMARK    6  A    between atoms: C_6  and  N_7
REMARK    7  A    between atoms: C_8  and  C_10
REMARK    8  A    between atoms: C_10  and  C_12
REMARK    9  A    between atoms: C_10  and  N_15
REMARK   10  A    between atoms: C_12  and  C_13
REMARK   11  A    between atoms: C_12  and  C_14
REMARK   12  A    between atoms: C_16  and  C_18
REMARK                            x       y       z     vdW  Elec       q    Type
REMARK                         _______ _______ _______ _____ _____    ______ ____
ROOT
ATOM      1  C   UNL     1       3.531  -9.981  -6.132  0.00  0.00    +0.167 C 
ATOM      2  C   UNL     1       2.137 -10.380  -6.637  0.00  0.00    +0.069 C 
ATOM      3  C   UNL     1       2.077 -10.277  -8.139  0.00  0.00    -0.015 A 
ATOM      4  C   UNL     1       0.888 -10.249  -8.972  0.00  0.00    +0.003 A 
ATOM      5  C   UNL     1      -0.477 -10.292  -8.668  0.00  0.00    +0.010 A 
ATOM      6  C   UNL     1      -1.349 -10.246  -9.728  0.00  0.00    +0.001 A 
ATOM      7  C   UNL     1      -0.909 -10.163 -11.039  0.00  0.00    +0.002 A 
ATOM      8  C   UNL     1       0.434 -10.118 -11.367  0.00  0.00    +0.026 A 
ATOM      9  C   UNL     1       1.343 -10.161 -10.311  0.00  0.00    +0.047 A 
ATOM     10  N   UNL     1       2.707 -10.133 -10.275  0.00  0.00    -0.356 N 
ATOM     11  H   UNL     1       3.285 -10.079 -11.052  0.00  0.00    +0.166 HD
ATOM     12  C   UNL     1       3.136 -10.191  -8.977  0.00  0.00    +0.046 A 
ATOM     13  C   UNL     1       4.564 -10.146  -8.493  0.00  0.00    +0.155 C 
ATOM     14  N   UNL     1       4.522 -10.533  -7.062  0.00  0.00    -0.273 N 
ATOM     15  C   UNL     1       5.478 -11.444  -6.839  0.00  0.00    +0.248 C 
ATOM     16  O   UNL     1       5.862 -11.804  -5.743  0.00  0.00    -0.270 OA
ATOM     17  C   UNL     1       5.990 -11.943  -8.119  0.00  0.00    +0.042 A 
ATOM     18  C   UNL     1       5.433 -11.148  -9.173  0.00  0.00    -0.009 A 
ATOM     19  C   UNL     1       5.720 -11.372 -10.501  0.00  0.00    +0.006 A 
ATOM     20  C   UNL     1       6.606 -12.405 -10.792  0.00  0.00    +0.000 A 
ATOM     21  C   UNL     1       7.178 -13.174  -9.799  0.00  0.00    +0.001 A 
ATOM     22  C   UNL     1       6.882 -12.978  -8.405  0.00  0.00    +0.013 A 
ENDROOT
BRANCH   1  24
ATOM     23  N   UNL     1       2.821  -7.758  -5.312  0.00  0.00    -0.302 N 
ATOM     24  C   UNL     1       3.650  -8.479  -6.093  0.00  0.00    +0.235 C 
ATOM     25  O   UNL     1       4.490  -7.919  -6.765  0.00  0.00    -0.274 OA
ATOM     26  H   UNL     1       2.149  -8.206  -4.775  0.00  0.00    +0.150 HD
BRANCH  23  27
ATOM     27  C   UNL     1       2.936  -6.298  -5.274  0.00  0.00    +0.161 C 
BRANCH  27  29
ATOM     28  N   UNL     1       2.864  -4.634  -3.445  0.00  0.00    -0.314 N 
ATOM     29  C   UNL     1       2.394  -5.785  -3.965  0.00  0.00    +0.234 C 
ATOM     30  O   UNL     1       1.535  -6.409  -3.378  0.00  0.00    -0.274 OA
ATOM     31  H   UNL     1       3.597  -4.170  -3.879  0.00  0.00    +0.149 HD
BRANCH  28  32
ATOM     32  C   UNL     1       2.267  -4.083  -2.226  0.00  0.00    +0.104 C 
BRANCH  32  33
ATOM     33  C   UNL     1       2.979  -2.781  -1.853  0.00  0.00    +0.019 C 
BRANCH  33  34
ATOM     34  C   UNL     1       2.355  -2.205  -0.580  0.00  0.00    +0.002 C 
BRANCH  34  35
ATOM     35  C   UNL     1       3.067  -0.903  -0.207  0.00  0.00    -0.000 C 
BRANCH  35  37
ATOM     36  C   UNL     1       3.156   0.974   1.439  0.00  0.00    +0.004 C 
ATOM     37  C   UNL     1       2.444  -0.328   1.066  0.00  0.00    -0.003 C 
ENDBRANCH  35  37
ENDBRANCH  34  35
ENDBRANCH  33  34
ENDBRANCH  32  33
ENDBRANCH  28  32
ENDBRANCH  27  29
BRANCH  27  38
ATOM     38  C   UNL     1       2.135  -5.693  -6.429  0.00  0.00    +0.012 C 
ATOM     39  C   UNL     1       2.290  -4.171  -6.415  0.00  0.00    +0.009 C 
ATOM     40  C   UNL     1       2.658  -6.247  -7.756  0.00  0.00    +0.009 C 
ENDBRANCH  27  38
ENDBRANCH  23  27
ENDBRANCH   1  24
TORSDOF 9
