REMARK  Name = ZINC63572897
REMARK  3 active torsions:
REMARK  status: ('A' for Active; 'I' for Inactive)
REMARK    1  A    between atoms: C_1  and  C_2
REMARK    2  A    between atoms: C_5  and  C_8
REMARK    3  A    between atoms: N_26  and  C_27
REMARK                            x       y       z     vdW  Elec       q    Type
REMARK                         _______ _______ _______ _____ _____    ______ ____
ROOT
ATOM      1  C   UNL     1       0.447  -4.771   0.171  0.00  0.00    +0.134 C 
ATOM      2  C   UNL     1       1.816  -5.192   0.717  0.00  0.00    +0.131 C 
ATOM      3  C   UNL     1       1.966  -4.522   2.077  0.00  0.00    -0.035 C 
ATOM      4  C   UNL     1       3.088  -3.814   2.025  0.00  0.00    +0.001 A 
ATOM      5  C   UNL     1       3.790  -3.015   3.042  0.00  0.00    +0.030 A 
ATOM      6  C   UNL     1       4.934  -2.400   2.637  0.00  0.00    +0.042 A 
ATOM      7  C   UNL     1       5.442  -2.499   1.336  0.00  0.00    +0.022 A 
ATOM      8  C   UNL     1       4.864  -3.216   0.340  0.00  0.00    +0.027 A 
ATOM      9  C   UNL     1       3.657  -3.911   0.646  0.00  0.00    +0.043 A 
ATOM     10  N   UNL     1       2.911  -4.691  -0.116  0.00  0.00    -0.375 N 
ATOM     11 CL   UNL     1       5.807  -1.442   3.791  0.00  0.00    -0.084 Cl
ATOM     12  C   UNL     1       0.926  -4.651   3.163  0.00  0.00    +0.052 C 
ATOM     13  C   UNL     1      -0.429  -4.303   2.522  0.00  0.00    +0.114 C 
ATOM     14  N   UNL     1      -0.550  -4.991   1.232  0.00  0.00    -0.276 N 
ATOM     15  C   UNL     1      -1.581  -5.831   1.015  0.00  0.00    +0.307 C 
ATOM     16  O   UNL     1      -1.643  -6.462  -0.022  0.00  0.00    -0.252 OA
ATOM     17  N   UNL     1      -2.542  -5.973   1.949  0.00  0.00    -0.267 N 
ATOM     18  H   UNL     1      -2.508  -5.447   2.764  0.00  0.00    +0.156 HD
ATOM     19  H   UNL     1       3.050  -4.897  -1.053  0.00  0.00    +0.160 HD
ENDROOT
BRANCH   1  24
ATOM     20  C   UNL     1       0.558   0.819  -1.287  0.00  0.00    +0.044 C 
ATOM     21  C   UNL     1       0.529  -0.639  -0.907  0.00  0.00    -0.050 A 
ATOM     22  C   UNL     1       0.871  -1.026   0.375  0.00  0.00    +0.004 A 
ATOM     23  C   UNL     1       0.845  -2.363   0.724  0.00  0.00    +0.006 A 
ATOM     24  C   UNL     1       0.475  -3.314  -0.209  0.00  0.00    -0.025 A 
ATOM     25  C   UNL     1       0.131  -2.927  -1.491  0.00  0.00    +0.006 A 
ATOM     26  C   UNL     1       0.154  -1.589  -1.838  0.00  0.00    +0.004 A 
ENDBRANCH   1  24
BRANCH  17  27
ATOM     27  C   UNL     1      -3.591  -6.878   1.742  0.00  0.00    +0.070 A 
ATOM     28  C   UNL     1      -3.906  -7.296   0.457  0.00  0.00    +0.026 A 
ATOM     29  C   UNL     1      -4.941  -8.189   0.256  0.00  0.00    +0.002 A 
ATOM     30  C   UNL     1      -5.664  -8.666   1.334  0.00  0.00    +0.003 A 
ATOM     31  C   UNL     1      -5.354  -8.252   2.616  0.00  0.00    +0.040 A 
ATOM     32  C   UNL     1      -4.316  -7.363   2.825  0.00  0.00    +0.145 A 
ATOM     33  F   UNL     1      -4.009  -6.963   4.079  0.00  0.00    -0.204 F 
ENDBRANCH  17  27
TORSDOF 2
