REMARK  Name = ZINC12590487
REMARK  16 active torsions:
REMARK  status: ('A' for Active; 'I' for Inactive)
REMARK    1  A    between atoms: C_1  and  C_2
REMARK    2  A    between atoms: C_2  and  O_3
REMARK    3  A    between atoms: O_3  and  C_4
REMARK    4  A    between atoms: C_4  and  C_6
REMARK    5  A    between atoms: C_7  and  C_34
REMARK    6  A    between atoms: C_10  and  C_33
REMARK    7  A    between atoms: C_11  and  C_12
REMARK    8  A    between atoms: C_12  and  C_14
REMARK    9  A    between atoms: C_14  and  S_15
REMARK   10  A    between atoms: S_15  and  C_16
REMARK   11  A    between atoms: C_19  and  C_28
REMARK   12  A    between atoms: N_20  and  C_21
REMARK   13  A    between atoms: C_28  and  C_30
REMARK   14  A    between atoms: C_28  and  N_61
REMARK   15  A    between atoms: C_31  and  N_61
REMARK   16  A    between atoms: C_32  and  N_61
REMARK                            x       y       z     vdW  Elec       q    Type
REMARK                         _______ _______ _______ _____ _____    ______ ____
ROOT
ATOM      1  C   UNL     1       0.004   0.017  -0.001  0.00  0.00    +0.196 A 
ATOM      2  N   UNL     1      -0.018   1.329  -0.004  0.00  0.00    -0.122 NA
ATOM      3  N   UNL     1       1.183   1.788  -0.016  0.00  0.00    -0.135 NA
ATOM      4  C   UNL     1       2.038   0.805  -0.021  0.00  0.00    +0.125 A 
ATOM      5  N   UNL     1       1.319  -0.361  -0.011  0.00  0.00    -0.275 N 
ENDROOT
BRANCH   5   6
ATOM      6  C   UNL     1       1.825  -1.669  -0.013  0.00  0.00    +0.050 A 
ATOM      7  C   UNL     1       2.565  -2.130   1.068  0.00  0.00    +0.028 A 
ATOM      8  C   UNL     1       3.057  -3.421   1.066  0.00  0.00    +0.022 A 
ATOM      9  C   UNL     1       2.824  -4.250  -0.016  0.00  0.00    +0.041 A 
ATOM     10  C   UNL     1       2.092  -3.791  -1.097  0.00  0.00    +0.022 A 
ATOM     11  C   UNL     1       1.592  -2.503  -1.098  0.00  0.00    +0.028 A 
ATOM     12 CL   UNL     1       3.450  -5.869  -0.018  0.00  0.00    -0.084 Cl
ENDBRANCH   5   6
BRANCH   4  13
ATOM     13  C   UNL     1       3.540   0.928  -0.035  0.00  0.00    -0.003 C 
ATOM     14  C   UNL     1       4.031   1.345   1.353  0.00  0.00    -0.005 C 
BRANCH  13  17
ATOM     15  C   UNL     1       5.400   2.089  -1.063  0.00  0.00    -0.096 C 
ATOM     16  C   UNL     1       3.404   1.621  -2.351  0.00  0.00    -0.096 C 
ATOM     17  N   UNL     1       3.928   1.966  -1.013  0.00  0.00    +0.382 N 
ATOM     18  H   UNL     1       3.528   2.866  -0.720  0.00  0.00    -0.082 HD
ENDBRANCH  13  17
ENDBRANCH   4  13
BRANCH   1  19
ATOM     19  S   UNL     1      -1.394  -1.056   0.014  0.00  0.00    -0.078 S 
BRANCH  19  20
ATOM     20  C   UNL     1      -2.728   0.168   0.024  0.00  0.00    +0.157 C 
BRANCH  20  21
ATOM     21  C   UNL     1      -4.058  -0.540   0.037  0.00  0.00    +0.176 C 
ATOM     22  O   UNL     1      -4.104  -1.749  -0.057  0.00  0.00    -0.291 OA
BRANCH  21  28
ATOM     23  C   UNL     1      -6.159   0.718  -0.934  0.00  0.00    +0.090 A 
ATOM     24  C   UNL     1      -7.190   1.378  -0.332  0.00  0.00    +0.028 A 
ATOM     25  N   UNL     1      -7.010   1.334   1.010  0.00  0.00    -0.361 N 
ATOM     26  H   UNL     1      -7.608   1.736   1.660  0.00  0.00    +0.165 HD
ATOM     27  C   UNL     1      -5.888   0.655   1.321  0.00  0.00    +0.024 A 
ATOM     28  C   UNL     1      -5.296   0.231   0.164  0.00  0.00    +0.053 A 
ATOM     29  C   UNL     1      -5.372   0.404   2.715  0.00  0.00    +0.064 C 
ATOM     30  C   UNL     1      -8.335   2.052  -1.042  0.00  0.00    +0.064 C 
BRANCH  23  31
ATOM     31  C   UNL     1      -5.952   0.526  -2.376  0.00  0.00    +0.342 C 
ATOM     32  O   UNL     1      -6.420  -0.448  -2.933  0.00  0.00    -0.245 OA
BRANCH  31  33
ATOM     33  O   UNL     1      -5.242   1.430  -3.081  0.00  0.00    -0.461 OA
BRANCH  33  35
ATOM     34  C   UNL     1      -4.252   2.301  -5.128  0.00  0.00    +0.048 C 
ATOM     35  C   UNL     1      -5.078   1.176  -4.501  0.00  0.00    +0.229 C 
ENDBRANCH  33  35
ENDBRANCH  31  33
ENDBRANCH  23  31
ENDBRANCH  21  28
ENDBRANCH  20  21
ENDBRANCH  19  20
ENDBRANCH   1  19
TORSDOF 10
