REMARK  Name = ZINC14579109
REMARK  10 active torsions:
REMARK  status: ('A' for Active; 'I' for Inactive)
REMARK    1  A    between atoms: C_1  and  C_2
REMARK    2  A    between atoms: C_2  and  C_3
REMARK    3  A    between atoms: C_2  and  C_4
REMARK    4  A    between atoms: C_4  and  C_5
REMARK    5  A    between atoms: C_5  and  N_6
REMARK    6  A    between atoms: N_6  and  C_7
REMARK    7  A    between atoms: C_8  and  N_23
REMARK    8  A    between atoms: N_9  and  C_16
REMARK    9  A    between atoms: C_16  and  C_17
REMARK   10  A    between atoms: C_24  and  C_26
REMARK                            x       y       z     vdW  Elec       q    Type
REMARK                         _______ _______ _______ _____ _____    ______ ____
ROOT
ATOM      1  C   UNL     1      -4.100   6.518  -2.835  0.00  0.00    +0.140 A 
ATOM      2  C   UNL     1      -4.602   5.254  -3.070  0.00  0.00    +0.128 A 
ATOM      3  N   UNL     1      -5.388   4.655  -2.113  0.00  0.00    -0.276 N 
ATOM      4  C   UNL     1      -5.656   5.290  -0.958  0.00  0.00    +0.331 A 
ATOM      5  O   UNL     1      -6.350   4.741  -0.123  0.00  0.00    -0.246 OA
ATOM      6  N   UNL     1      -5.172   6.519  -0.709  0.00  0.00    -0.273 N 
ATOM      7  H   UNL     1      -5.387   6.969   0.158  0.00  0.00    +0.173 HD
ATOM      8  C   UNL     1      -4.401   7.152  -1.615  0.00  0.00    +0.277 A 
ATOM      9  O   UNL     1      -3.967   8.268  -1.379  0.00  0.00    -0.266 OA
ENDROOT
BRANCH   1  10
ATOM     10  N   UNL     1      -3.294   7.161  -3.798  0.00  0.00    -0.260 N 
ATOM     11  C   UNL     1      -2.072   7.617  -3.458  0.00  0.00    +0.252 C 
ATOM     12  O   UNL     1      -1.395   8.209  -4.277  0.00  0.00    -0.270 OA
BRANCH  11  13
ATOM     13  C   UNL     1      -1.555   7.397  -2.091  0.00  0.00    +0.056 A 
ATOM     14  C   UNL     1      -1.995   6.304  -1.342  0.00  0.00    +0.014 A 
ATOM     15  C   UNL     1      -1.505   6.103  -0.069  0.00  0.00    +0.001 A 
ATOM     16  C   UNL     1      -0.587   6.987   0.471  0.00  0.00    +0.001 A 
ATOM     17  C   UNL     1      -0.150   8.074  -0.262  0.00  0.00    +0.021 A 
ATOM     18  C   UNL     1      -0.629   8.286  -1.541  0.00  0.00    +0.053 A 
ATOM     19 CL   UNL     1      -0.080   9.652  -2.460  0.00  0.00    -0.083 Cl
ENDBRANCH  11  13
BRANCH  10  20
ATOM     20  C   UNL     1      -3.786   7.332  -5.167  0.00  0.00    +0.114 C 
BRANCH  20  21
ATOM     21  C   UNL     1      -4.415   8.719  -5.313  0.00  0.00    +0.022 C 
BRANCH  21  23
ATOM     22  C   UNL     1      -5.805  10.175  -6.793  0.00  0.00    +0.007 C 
ATOM     23  C   UNL     1      -5.043   8.851  -6.701  0.00  0.00    -0.016 C 
ATOM     24  C   UNL     1      -3.943   8.822  -7.764  0.00  0.00    +0.007 C 
ENDBRANCH  21  23
ENDBRANCH  20  21
ENDBRANCH  10  20
ENDBRANCH   1  10
BRANCH   2  25
ATOM     25  N   UNL     1      -4.323   4.604  -4.248  0.00  0.00    -0.343 N 
ATOM     26  H   UNL     1      -4.745   3.752  -4.444  0.00  0.00    +0.144 HD
ATOM     27  H   UNL     1      -3.704   4.995  -4.884  0.00  0.00    +0.144 HD
ENDBRANCH   2  25
BRANCH   3  28
ATOM     28  C   UNL     1      -5.931   3.316  -2.351  0.00  0.00    +0.163 C 
BRANCH  28  29
ATOM     29  C   UNL     1      -7.277   3.431  -3.018  0.00  0.00    -0.028 A 
ATOM     30  C   UNL     1      -8.424   3.513  -2.250  0.00  0.00    +0.005 A 
ATOM     31  C   UNL     1      -9.660   3.614  -2.862  0.00  0.00    +0.000 A 
ATOM     32  C   UNL     1      -9.748   3.643  -4.241  0.00  0.00    +0.000 A 
ATOM     33  C   UNL     1      -8.601   3.566  -5.009  0.00  0.00    +0.000 A 
ATOM     34  C   UNL     1      -7.365   3.460  -4.397  0.00  0.00    +0.005 A 
ENDBRANCH  28  29
ENDBRANCH   3  28
TORSDOF 8
