REMARK  Name = ZINC40725881
REMARK  3 active torsions:
REMARK  status: ('A' for Active; 'I' for Inactive)
REMARK    1  A    between atoms: C_1  and  C_2
REMARK    2  A    between atoms: N_10  and  C_11
REMARK    3  A    between atoms: C_11  and  C_16
REMARK                            x       y       z     vdW  Elec       q    Type
REMARK                         _______ _______ _______ _____ _____    ______ ____
ROOT
ATOM      1  C   UNL     1      -0.019   1.526   0.010  0.00  0.00    +0.009 C 
ATOM      2  C   UNL     1       0.002  -0.004   0.002  0.00  0.00    +0.005 C 
ATOM      3  C   UNL     1       0.776  -0.536  -1.233  0.00  0.00    +0.024 C 
ATOM      4  C   UNL     1       1.262  -1.917  -0.725  0.00  0.00    +0.109 C 
ATOM      5  N   UNL     1       1.593  -1.701   0.695  0.00  0.00    -0.285 N 
ATOM      6  C   UNL     1       0.825  -0.545   1.190  0.00  0.00    +0.112 C 
ATOM      7  C   UNL     1       2.453  -2.441   1.422  0.00  0.00    +0.303 C 
ATOM      8  O   UNL     1       2.650  -2.171   2.591  0.00  0.00    -0.253 OA
ATOM      9  N   UNL     1       3.095  -3.481   0.853  0.00  0.00    -0.283 N 
ATOM     10  H   UNL     1       2.938  -3.696  -0.080  0.00  0.00    +0.151 HD
ENDROOT
BRANCH   9  11
ATOM     11  C   UNL     1       4.030  -4.285   1.643  0.00  0.00    +0.137 C 
ATOM     12  C   UNL     1       5.251  -3.434   2.071  0.00  0.00    +0.037 C 
ATOM     13  C   UNL     1       6.140  -3.450   0.802  0.00  0.00    +0.003 C 
ATOM     14  C   UNL     1       5.979  -4.879   0.245  0.00  0.00    +0.003 C 
ATOM     15  C   UNL     1       4.637  -5.411   0.780  0.00  0.00    +0.037 C 
BRANCH  11  16
ATOM     16  C   UNL     1       3.338  -4.862   2.851  0.00  0.00    +0.379 C 
ATOM     17  O   UNL     1       2.154  -4.638   3.040  0.00  0.00    -0.244 OA
ATOM     18  O   UNL     1       3.961  -5.553   3.639  0.00  0.00    -0.244 OA
ENDBRANCH  11  16
ENDBRANCH   9  11
TORSDOF 2
