REMARK  Name = ZINC03521787
REMARK  7 active torsions:
REMARK  status: ('A' for Active; 'I' for Inactive)
REMARK    1  A    between atoms: C_1  and  C_2
REMARK    2  A    between atoms: C_2  and  N_3
REMARK    3  A    between atoms: C_7  and  C_9
REMARK    4  A    between atoms: C_9  and  C_11
REMARK    5  A    between atoms: C_9  and  S_12
REMARK    6  A    between atoms: S_12  and  C_13
REMARK    7  A    between atoms: N_17  and  C_28
REMARK                            x       y       z     vdW  Elec       q    Type
REMARK                         _______ _______ _______ _____ _____    ______ ____
ROOT
ATOM      1  C   UNL     1       2.785  -1.663   1.757  0.00  0.00    +0.172 A 
ATOM      2  N   UNL     1       4.061  -1.940   1.687  0.00  0.00    -0.202 NA
ATOM      3  C   UNL     1       4.859  -1.254   0.831  0.00  0.00    +0.190 A 
ATOM      4  N   UNL     1       6.132  -1.273   0.533  0.00  0.00    -0.143 NA
ATOM      5  N   UNL     1       6.431  -0.329  -0.453  0.00  0.00    -0.194 N 
ATOM      6  C   UNL     1       5.314   0.338  -0.819  0.00  0.00    +0.284 A 
ATOM      7  O   UNL     1       5.229   1.223  -1.655  0.00  0.00    -0.265 OA
ATOM      8  C   UNL     1       4.231  -0.215  -0.013  0.00  0.00    +0.106 A 
ATOM      9  C   UNL     1       2.877   0.019   0.103  0.00  0.00    +0.037 A 
ATOM     10  N   UNL     1       2.170  -0.688   1.000  0.00  0.00    -0.323 N 
ATOM     11  C   UNL     1       0.736  -0.488   1.250  0.00  0.00    +0.124 C 
ATOM     12  C   UNL     1       0.002  -0.004   0.002  0.00  0.00    +0.022 C 
ATOM     13  C   UNL     1      -0.019   1.528   0.010  0.00  0.00    +0.002 C 
ATOM     14  C   UNL     1       1.418   2.045  -0.001  0.00  0.00    +0.006 C 
ATOM     15  C   UNL     1       2.258   1.047  -0.802  0.00  0.00    +0.054 C 
ENDROOT
BRANCH   5  16
ATOM     16  C   UNL     1       7.705  -0.106  -0.986  0.00  0.00    +0.069 A 
ATOM     17  C   UNL     1       7.851   0.229  -2.326  0.00  0.00    +0.028 A 
ATOM     18  C   UNL     1       9.109   0.454  -2.847  0.00  0.00    +0.002 A 
ATOM     19  C   UNL     1      10.225   0.334  -2.039  0.00  0.00    +0.000 A 
ATOM     20  C   UNL     1      10.085  -0.004  -0.706  0.00  0.00    +0.002 A 
ATOM     21  C   UNL     1       8.828  -0.225  -0.177  0.00  0.00    +0.028 A 
ENDBRANCH   5  16
BRANCH   1  22
ATOM     22  S   UNL     1       1.795  -2.589   2.882  0.00  0.00    -0.075 S 
BRANCH  22  23
ATOM     23  C   UNL     1       3.055  -3.683   3.584  0.00  0.00    +0.137 C 
ATOM     24  C   UNL     1       3.592  -4.610   2.491  0.00  0.00    +0.029 C 
BRANCH  23  29
ATOM     25  N   UNL     1       3.463  -6.231   7.639  0.00  0.00    -0.299 N 
ATOM     26  C   UNL     1       2.682  -5.738   6.658  0.00  0.00    +0.306 C 
ATOM     27  O   UNL     1       1.487  -5.959   6.663  0.00  0.00    -0.252 OA
ATOM     28  N   UNL     1       3.227  -5.000   5.670  0.00  0.00    -0.239 N 
ATOM     29  C   UNL     1       2.446  -4.508   4.688  0.00  0.00    +0.233 C 
ATOM     30  O   UNL     1       1.254  -4.728   4.693  0.00  0.00    -0.274 OA
ATOM     31  H   UNL     1       4.417  -6.055   7.635  0.00  0.00    +0.150 HD
ATOM     32  H   UNL     1       4.181  -4.824   5.666  0.00  0.00    +0.159 HD
BRANCH  25  34
ATOM     33  C   UNL     1       3.966  -7.465   9.690  0.00  0.00    +0.024 C 
ATOM     34  C   UNL     1       2.871  -7.033   8.713  0.00  0.00    +0.102 C 
ENDBRANCH  25  34
ENDBRANCH  23  29
ENDBRANCH  22  23
ENDBRANCH   1  22
TORSDOF 5
