REMARK  Name = ZINC08490851
REMARK  9 active torsions:
REMARK  status: ('A' for Active; 'I' for Inactive)
REMARK    1  A    between atoms: C_1  and  C_2
REMARK    2  A    between atoms: C_6  and  C_8
REMARK    3  A    between atoms: N_10  and  CA_11
REMARK    4  A    between atoms: CA_11  and  CB_13
REMARK    5  A    between atoms: CA_11  and  C_14
REMARK    6  A    between atoms: N_16  and  CA_17
REMARK    7  A    between atoms: CA_17  and  CB_19
REMARK    8  A    between atoms: CA_17  and  C_20
REMARK    9  A    between atoms: C_20  and  O_21
REMARK                            x       y       z     vdW  Elec       q    Type
REMARK                         _______ _______ _______ _____ _____    ______ ____
ROOT
ATOM      1  C   UNK A   0      -2.947  -0.018   0.029  0.00  0.00    +0.068 C 
ATOM      2  C   UNK A   0      -2.513   1.425   0.033  0.00  0.00    +0.063 A 
ATOM      3  C   UNK A   0      -1.153   1.736   0.016  0.00  0.00    +0.069 A 
ATOM      4  C   UNK A   0      -0.771   3.090   0.025  0.00  0.00    +0.011 A 
ATOM      5  C   UNK A   1      -1.763   4.068   0.039  0.00  0.00    +0.043 A 
ATOM      6  C   UNK A   1      -3.095   3.667   0.050  0.00  0.00    +0.126 A 
ATOM      7  N   UNK A   1      -3.418   2.375   0.046  0.00  0.00    -0.245 NA
ATOM      8  C   UNK A   0       0.700   3.112   0.011  0.00  0.00    +0.008 A 
ATOM      9  C   UNK A   0       1.647   4.133   0.007  0.00  0.00    +0.010 A 
ATOM     10  C   UNK A   0       2.989   3.823  -0.007  0.00  0.00    +0.001 A 
ATOM     11  C   UNK A   0       3.400   2.499  -0.017  0.00  0.00    +0.002 A 
ATOM     12  C   UNK A   0       2.474   1.478  -0.013  0.00  0.00    +0.026 A 
ATOM     13  C   UNK A   0       1.114   1.770   0.001  0.00  0.00    +0.048 A 
ATOM     14  N   UNK A   0      -0.011   0.966   0.007  0.00  0.00    -0.353 N 
ATOM     15  H   UNK A   0      -0.088  -0.132   0.006  0.00  0.00    +0.166 HD
ENDROOT
BRANCH   6  16
ATOM     16  C   UNK A   1      -4.165   4.687   0.065  0.00  0.00    +0.263 C 
ATOM     17  O   UNK A   1      -3.879   5.869   0.069  0.00  0.00    -0.269 OA
ATOM     18  N   ALA A   2      -5.458   4.308   0.076  0.00  0.00    -0.299 N 
ATOM     19  H   ALA A   2      -5.718   3.239   0.073  0.00  0.00    +0.150 HD
BRANCH  18  20
ATOM     20  CA  ALA A   2      -6.519   5.319   0.091  0.00  0.00    +0.156 C 
ATOM     21  CB  ALA A   2      -6.815   5.769  -1.341  0.00  0.00    +0.038 C 
BRANCH  20  22
ATOM     22  C   ALA A   2      -7.765   4.730   0.701  0.00  0.00    +0.233 C 
ATOM     23  O   ALA A   2      -7.767   3.579   1.084  0.00  0.00    -0.274 OA
ATOM     24  N   ALA A   3      -8.877   5.482   0.820  0.00  0.00    -0.309 N 
ATOM     25  H   ALA A   3      -8.875   6.526   0.472  0.00  0.00    +0.149 HD
BRANCH  24  26
ATOM     26  CA  ALA A   3     -10.089   4.910   1.412  0.00  0.00    +0.095 C 
ATOM     27  CB  ALA A   3     -10.019   5.034   2.935  0.00  0.00    +0.030 C 
BRANCH  26  28
ATOM     28  C   ALA A   3     -11.315   5.665   0.894  0.00  0.00    +0.177 C 
BRANCH  28  29
ATOM     29  O   ALA A   3     -11.271   7.017   1.354  0.00  0.00    -0.393 OA
ATOM     30  H   ALA A   3     -12.074   7.717   1.081  0.00  0.00    +0.209 HD
ENDBRANCH  28  29
ENDBRANCH  26  28
ENDBRANCH  24  26
ENDBRANCH  20  22
ENDBRANCH  18  20
ENDBRANCH   6  16
TORSDOF 6
