REMARK  Name = ZINC39665626
REMARK  9 active torsions:
REMARK  status: ('A' for Active; 'I' for Inactive)
REMARK    1  A    between atoms: C_1  and  C_2
REMARK    2  A    between atoms: C_2  and  C_4
REMARK    3  A    between atoms: C_2  and  O_29
REMARK    4  A    between atoms: C_4  and  N_5
REMARK    5  A    between atoms: C_6  and  C_8
REMARK    6  A    between atoms: C_19  and  C_21
REMARK    7  A    between atoms: O_29  and  C_30
REMARK    8  A    between atoms: C_33  and  O_36
REMARK    9  A    between atoms: O_36  and  C_37
REMARK                            x       y       z     vdW  Elec       q    Type
REMARK                         _______ _______ _______ _____ _____    ______ ____
ROOT
ATOM      1  C   UNL     1       2.441  -7.418   1.039  0.00  0.00    +0.100 C 
ATOM      2  C   UNL     1       3.715  -6.692   0.549  0.00  0.00    +0.121 C 
ATOM      3  N   UNL     1       4.004  -5.691   1.603  0.00  0.00    -0.296 N 
ATOM      4  C   UNL     1       3.701  -6.394   2.873  0.00  0.00    +0.115 C 
ATOM      5  C   UNL     1       2.438  -7.223   2.565  0.00  0.00    -0.004 C 
ATOM      6  C   UNL     1       1.190  -6.460   2.997  0.00  0.00    -0.010 C 
ATOM      7  C   UNL     1       1.181  -6.328   4.523  0.00  0.00    -0.082 C 
ATOM      8  N   UNL     1       1.198  -7.664   5.131  0.00  0.00    +0.379 N 
ATOM      9  C   UNL     1       2.445  -8.356   4.785  0.00  0.00    -0.082 C 
ATOM     10  C   UNL     1       2.508  -8.573   3.271  0.00  0.00    -0.010 C 
ATOM     11  C   UNL     1       4.443  -4.427   1.443  0.00  0.00    +0.247 C 
ATOM     12  O   UNL     1       4.713  -3.749   2.416  0.00  0.00    -0.270 OA
ATOM     13  H   UNL     1       1.130  -7.576   6.134  0.00  0.00    -0.086 HD
ATOM     14  H   UNL     1       0.413  -8.198   4.790  0.00  0.00    -0.086 HD
ENDROOT
BRANCH  11  15
ATOM     15  C   UNL     1       4.597  -3.864   0.085  0.00  0.00    +0.040 A 
ATOM     16  C   UNL     1       3.470  -3.509  -0.658  0.00  0.00    +0.033 A 
ATOM     17  C   UNL     1       3.620  -2.983  -1.927  0.00  0.00    +0.043 A 
ATOM     18  C   UNL     1       4.886  -2.809  -2.461  0.00  0.00    +0.040 A 
ATOM     19  C   UNL     1       6.007  -3.159  -1.729  0.00  0.00    +0.043 A 
ATOM     20  C   UNL     1       5.870  -3.680  -0.457  0.00  0.00    +0.033 A 
ATOM     21 CL   UNL     1       7.589  -2.937  -2.408  0.00  0.00    -0.083 Cl
ATOM     22 CL   UNL     1       2.220  -2.542  -2.853  0.00  0.00    -0.083 Cl
ENDBRANCH  11  15
BRANCH   1  24
ATOM     23  N   UNL     1       0.085  -7.518   0.294  0.00  0.00    -0.312 N 
ATOM     24  C   UNL     1       1.214  -6.793   0.428  0.00  0.00    +0.218 C 
ATOM     25  O   UNL     1       1.241  -5.639   0.056  0.00  0.00    -0.275 OA
ATOM     26  H   UNL     1       0.082  -8.459   0.529  0.00  0.00    +0.149 HD
BRANCH  23  27
ATOM     27  C   UNL     1      -1.137  -6.884  -0.206  0.00  0.00    +0.148 C 
BRANCH  27  29
ATOM     28  C   UNL     1      -3.594  -7.188  -0.547  0.00  0.00    +0.053 C 
ATOM     29  C   UNL     1      -2.292  -7.886  -0.148  0.00  0.00    +0.187 C 
BRANCH  29  30
ATOM     30  O   UNL     1      -2.034  -8.964  -1.050  0.00  0.00    -0.488 OA
BRANCH  30  31
ATOM     31  C   UNL     1      -2.631 -10.155  -0.776  0.00  0.00    +0.121 A 
ATOM     32  C   UNL     1      -3.553 -10.247   0.255  0.00  0.00    +0.049 A 
ATOM     33  C   UNL     1      -4.160 -11.456   0.533  0.00  0.00    +0.049 A 
ATOM     34  C   UNL     1      -3.846 -12.578  -0.219  0.00  0.00    +0.120 A 
ATOM     35  C   UNL     1      -2.925 -12.486  -1.251  0.00  0.00    +0.049 A 
ATOM     36  C   UNL     1      -2.321 -11.275  -1.532  0.00  0.00    +0.049 A 
BRANCH  34  37
ATOM     37  O   UNL     1      -4.443 -13.769   0.055  0.00  0.00    -0.495 OA
ATOM     38  C   UNL     1      -4.073 -14.883  -0.760  0.00  0.00    +0.277 C 
ENDBRANCH  34  37
ENDBRANCH  30  31
ENDBRANCH  29  30
ENDBRANCH  27  29
ENDBRANCH  23  27
ENDBRANCH   1  24
TORSDOF 7
