REMARK  Name = ZINC09548693
REMARK  2 active torsions:
REMARK  status: ('A' for Active; 'I' for Inactive)
REMARK    1  A    between atoms: C_6  and  C_7
REMARK    2  A    between atoms: N_12  and  C_13
REMARK                            x       y       z     vdW  Elec       q    Type
REMARK                         _______ _______ _______ _____ _____    ______ ____
ROOT
ATOM      1  C   UNL     1      -1.294  -0.773   0.010  0.00  0.00    +0.104 C 
ATOM      2  C   UNL     1      -1.909  -0.779  -1.405  0.00  0.00    +0.029 C 
ATOM      3  C   UNL     1      -3.428  -0.632  -1.124  0.00  0.00    +0.021 C 
ATOM      4  C   UNL     1      -3.427   0.307   0.108  0.00  0.00    +0.106 C 
ATOM      5  N   UNL     1      -2.258  -0.117   0.906  0.00  0.00    -0.320 N 
ENDROOT
BRANCH   1  11
ATOM      6  C   UNL     1      -0.017   1.378   0.010  0.00  0.00    +0.009 A 
ATOM      7  C   UNL     1       1.170   2.091   0.002  0.00  0.00    +0.050 A 
ATOM      8  C   UNL     1       2.377   1.413  -0.013  0.00  0.00    +0.162 A 
ATOM      9  C   UNL     1       2.396   0.025  -0.020  0.00  0.00    +0.162 A 
ATOM     10  C   UNL     1       1.207  -0.684  -0.013  0.00  0.00    +0.055 A 
ATOM     11  C   UNL     1       0.002  -0.004   0.002  0.00  0.00    -0.023 A 
ATOM     12  O   UNL     1       3.591  -0.632  -0.034  0.00  0.00    -0.488 OA
ATOM     13  C   UNL     1       4.358  -0.510  -1.234  0.00  0.00    +0.232 C 
ATOM     14  C   UNL     1       5.186   0.764  -1.217  0.00  0.00    +0.082 C 
ATOM     15  C   UNL     1       4.323   2.016  -1.220  0.00  0.00    +0.232 C 
ATOM     16  O   UNL     1       3.554   2.104  -0.019  0.00  0.00    -0.488 OA
ENDBRANCH   1  11
BRANCH   5  17
ATOM     17  C   UNL     1      -2.095   0.071   2.277  0.00  0.00    +0.074 A 
ATOM     18  C   UNL     1      -1.492   1.225   2.779  0.00  0.00    +0.159 A 
ATOM     19  N   UNL     1      -1.351   1.378   4.079  0.00  0.00    -0.152 NA
ATOM     20  N   UNL     1      -1.750   0.497   4.921  0.00  0.00    -0.105 NA
ATOM     21  C   UNL     1      -2.334  -0.630   4.544  0.00  0.00    +0.308 A 
ATOM     22  O   UNL     1      -2.739  -1.532   5.475  0.00  0.00    -0.263 OA
ATOM     23  C   UNL     1      -2.535  -0.886   3.192  0.00  0.00    +0.131 A 
ATOM     24 CL   UNL     1      -3.302  -2.349   2.661  0.00  0.00    -0.076 Cl
ENDBRANCH   5  17
TORSDOF 2
