REMARK  Name = ZINC61687306
REMARK  7 active torsions:
REMARK  status: ('A' for Active; 'I' for Inactive)
REMARK    1  A    between atoms: C_1  and  C_2
REMARK    2  A    between atoms: C_6  and  C_8
REMARK    3  A    between atoms: C_10  and  C_18
REMARK    4  A    between atoms: C_11  and  C_15
REMARK    5  A    between atoms: C_12  and  N_14
REMARK    6  A    between atoms: C_15  and  C_16
REMARK    7  A    between atoms: C_15  and  C_17
REMARK                            x       y       z     vdW  Elec       q    Type
REMARK                         _______ _______ _______ _____ _____    ______ ____
ROOT
ATOM      1  C   UNL     1      -0.085  -2.968   2.374  0.00  0.00    +0.162 A 
ATOM      2  N   UNL     1      -0.190  -4.288   2.448  0.00  0.00    -0.232 NA
ATOM      3  C   UNL     1      -0.167  -4.907   3.618  0.00  0.00    +0.047 A 
ATOM      4  C   UNL     1      -0.033  -4.164   4.775  0.00  0.00    +0.016 A 
ATOM      5  C   UNL     1       0.076  -2.775   4.666  0.00  0.00    +0.124 A 
ATOM      6  N   UNL     1       0.051  -2.219   3.459  0.00  0.00    -0.213 NA
ATOM      7  C   UNL     1      -0.287  -6.408   3.686  0.00  0.00    +0.066 C 
ENDROOT
BRANCH   1  13
ATOM      8  C   UNL     1       0.093   1.173  -0.409  0.00  0.00    +0.044 C 
ATOM      9  C   UNL     1      -0.030  -0.325  -0.298  0.00  0.00    -0.050 A 
ATOM     10  C   UNL     1      -0.171  -1.092  -1.441  0.00  0.00    +0.003 A 
ATOM     11  C   UNL     1      -0.284  -2.467  -1.347  0.00  0.00    +0.001 A 
ATOM     12  C   UNL     1      -0.257  -3.082  -0.111  0.00  0.00    +0.011 A 
ATOM     13  C   UNL     1      -0.115  -2.313   1.043  0.00  0.00    +0.019 A 
ATOM     14  C   UNL     1       0.005  -0.928   0.942  0.00  0.00    +0.015 A 
ENDBRANCH   1  13
BRANCH   5  15
ATOM     15  N   UNL     1       0.212  -1.990   5.799  0.00  0.00    -0.343 N 
ATOM     16  H   UNL     1       0.333  -2.407   6.666  0.00  0.00    +0.144 HD
ATOM     17  H   UNL     1       0.187  -1.023   5.725  0.00  0.00    +0.144 HD
ENDBRANCH   5  15
BRANCH   4  18
ATOM     18  C   UNL     1      -0.004  -4.836   6.123  0.00  0.00    +0.018 C 
ATOM     19  C   UNL     1       1.343  -4.567   6.798  0.00  0.00    +0.012 C 
ATOM     20  C   UNL     1      -1.131  -4.278   6.995  0.00  0.00    +0.012 C 
ENDBRANCH   4  18
TORSDOF 3
