REMARK  Name = ZINC36205218
REMARK  18 active torsions:
REMARK  status: ('A' for Active; 'I' for Inactive)
REMARK    1  A    between atoms: C_1  and  C_2
REMARK    2  A    between atoms: C_5  and  C_9
REMARK    3  A    between atoms: C_7  and  C_8
REMARK    4  A    between atoms: C_18  and  C_20
REMARK    5  A    between atoms: C_20  and  N_21
REMARK    6  A    between atoms: N_21  and  C_22
REMARK    7  A    between atoms: N_21  and  C_32
REMARK    8  A    between atoms: C_22  and  C_23
REMARK    9  A    between atoms: C_23  and  C_25
REMARK   10  A    between atoms: C_23  and  O_31
REMARK   11  A    between atoms: C_25  and  O_26
REMARK   12  A    between atoms: O_26  and  C_27
REMARK   13  A    between atoms: C_27  and  C_28
REMARK   14  A    between atoms: C_27  and  C_29
REMARK   15  A    between atoms: C_27  and  C_30
REMARK   16  A    between atoms: C_32  and  C_33
REMARK   17  A    between atoms: C_33  and  C_34
REMARK   18  A    between atoms: C_33  and  C_35
REMARK                            x       y       z     vdW  Elec       q    Type
REMARK                         _______ _______ _______ _____ _____    ______ ____
ROOT
ATOM      1  C   UNL     1      -8.791  -7.885  -1.565  0.00  0.00    +0.004 A 
ATOM      2  C   UNL     1      -9.143  -8.948  -0.801  0.00  0.00    +0.056 A 
ATOM      3  S   UNL     1      -7.637  -9.896  -0.695  0.00  0.00    -0.076 S 
ATOM      4  C   UNL     1      -6.581  -8.854  -1.669  0.00  0.00    +0.116 A 
ATOM      5  C   UNL     1      -7.422  -7.799  -2.058  0.00  0.00    +0.080 A 
ATOM      6  C   UNL     1      -6.815  -6.792  -2.875  0.00  0.00    +0.260 A 
ATOM      7  O   UNL     1      -7.463  -5.833  -3.259  0.00  0.00    -0.267 OA
ATOM      8  N   UNL     1      -5.519  -6.919  -3.212  0.00  0.00    -0.312 N 
ATOM      9  H   UNL     1      -5.102  -6.240  -3.765  0.00  0.00    +0.170 HD
ATOM     10  C   UNL     1      -4.782  -7.979  -2.792  0.00  0.00    +0.094 A 
ATOM     11  N   UNL     1      -5.304  -8.909  -2.038  0.00  0.00    -0.229 NA
ENDROOT
BRANCH   1  16
ATOM     12  C   UNL     1     -12.638  -3.800  -2.857  0.00  0.00    +0.044 C 
ATOM     13  C   UNL     1     -11.631  -4.869  -2.519  0.00  0.00    -0.048 A 
ATOM     14  C   UNL     1     -10.392  -4.515  -2.015  0.00  0.00    +0.004 A 
ATOM     15  C   UNL     1      -9.466  -5.489  -1.704  0.00  0.00    +0.009 A 
ATOM     16  C   UNL     1      -9.781  -6.834  -1.897  0.00  0.00    -0.016 A 
ATOM     17  C   UNL     1     -11.031  -7.185  -2.405  0.00  0.00    +0.012 A 
ATOM     18  C   UNL     1     -11.951  -6.202  -2.708  0.00  0.00    -0.047 A 
ATOM     19  C   UNL     1     -13.305  -6.580  -3.250  0.00  0.00    +0.044 C 
ENDBRANCH   1  16
BRANCH  10  20
ATOM     20  C   UNL     1      -3.333  -8.080  -3.194  0.00  0.00    -0.003 C 
BRANCH  20  21
ATOM     21  N   UNL     1      -2.783  -9.361  -2.730  0.00  0.00    +0.386 N 
ATOM     22  H   UNL     1      -2.957  -9.463  -1.742  0.00  0.00    -0.081 HD
BRANCH  21  23
ATOM     23  C   UNL     1      -3.429 -10.462  -3.457  0.00  0.00    -0.044 C 
BRANCH  23  24
ATOM     24  C   UNL     1      -2.949 -11.799  -2.888  0.00  0.00    +0.124 C 
BRANCH  24  25
ATOM     25  O   UNL     1      -3.391 -11.927  -1.535  0.00  0.00    -0.391 OA
ATOM     26  H   UNL     1      -4.352 -11.902  -1.432  0.00  0.00    +0.210 HD
ENDBRANCH  24  25
BRANCH  24  27
ATOM     27  C   UNL     1      -3.523 -12.945  -3.723  0.00  0.00    +0.189 C 
BRANCH  27  28
ATOM     28  O   UNL     1      -2.983 -14.186  -3.265  0.00  0.00    -0.372 OA
BRANCH  28  29
ATOM     29  C   UNL     1      -3.458 -15.327  -3.983  0.00  0.00    +0.061 C 
ATOM     30  C   UNL     1      -3.086 -15.191  -5.460  0.00  0.00    +0.041 C 
ATOM     31  C   UNL     1      -2.817 -16.593  -3.410  0.00  0.00    +0.041 C 
ATOM     32  C   UNL     1      -4.979 -15.418  -3.846  0.00  0.00    +0.041 C 
ENDBRANCH  28  29
ENDBRANCH  27  28
ENDBRANCH  24  27
ENDBRANCH  23  24
ENDBRANCH  21  23
BRANCH  21  33
ATOM     33  C   UNL     1      -1.336  -9.392  -2.980  0.00  0.00    -0.075 C 
BRANCH  33  34
ATOM     34  C   UNL     1      -0.645  -8.342  -2.107  0.00  0.00    -0.034 C 
ATOM     35  C   UNL     1      -0.801  -8.722  -0.633  0.00  0.00    +0.005 C 
ATOM     36  C   UNL     1       0.841  -8.280  -2.463  0.00  0.00    +0.005 C 
ENDBRANCH  33  34
ENDBRANCH  21  33
ENDBRANCH  20  21
ENDBRANCH  10  20
TORSDOF 11
