REMARK  Name = ZINC02275692
REMARK  7 active torsions:
REMARK  status: ('A' for Active; 'I' for Inactive)
REMARK    1  A    between atoms: C_3  and  C_8
REMARK    2  A    between atoms: C_4  and  O_7
REMARK    3  A    between atoms: N_9  and  C_10
REMARK    4  A    between atoms: C_13  and  C_16
REMARK    5  A    between atoms: C_19  and  N_22
REMARK    6  A    between atoms: C_23  and  C_24
REMARK    7  A    between atoms: C_25  and  O_30
REMARK                            x       y       z     vdW  Elec       q    Type
REMARK                         _______ _______ _______ _____ _____    ______ ____
ROOT
ATOM      1  C   UNL     1       5.962   2.228  -0.044  0.00  0.00    +0.064 A 
ATOM      2  C   UNL     1       6.115   3.329  -0.892  0.00  0.00    +0.028 A 
ATOM      3  C   UNL     1       7.298   4.033  -0.898  0.00  0.00    +0.010 A 
ATOM      4  C   UNL     1       8.344   3.647  -0.059  0.00  0.00    -0.018 A 
ATOM      5  C   UNL     1       8.193   2.548   0.788  0.00  0.00    +0.010 A 
ATOM      6  C   UNL     1       7.009   1.846   0.800  0.00  0.00    +0.028 A 
ENDROOT
BRANCH   4   7
ATOM      7  C   UNL     1       9.617   4.405  -0.068  0.00  0.00    -0.018 A 
ATOM      8  C   UNL     1       9.767   5.507  -0.911  0.00  0.00    +0.010 A 
ATOM      9  C   UNL     1      10.949   6.212  -0.920  0.00  0.00    +0.028 A 
ATOM     10  C   UNL     1      12.000   5.823  -0.084  0.00  0.00    +0.064 A 
ATOM     11  C   UNL     1      11.849   4.719   0.760  0.00  0.00    +0.028 A 
ATOM     12  C   UNL     1      10.664   4.019   0.772  0.00  0.00    +0.010 A 
BRANCH  10  13
ATOM     13  N   UNL     1      13.175   6.522  -0.093  0.00  0.00    -0.255 NA
ATOM     14  C   UNL     1      13.752   6.841   1.033  0.00  0.00    +0.123 C 
BRANCH  14  15
ATOM     15  C   UNL     1      15.015   7.593   1.024  0.00  0.00    +0.034 A 
ATOM     16  C   UNL     1      15.602   7.974  -0.194  0.00  0.00    +0.125 A 
ATOM     17  C   UNL     1      16.793   8.682  -0.190  0.00  0.00    +0.046 A 
ATOM     18  C   UNL     1      17.400   9.010   1.007  0.00  0.00    +0.004 A 
ATOM     19  C   UNL     1      16.825   8.637   2.211  0.00  0.00    +0.001 A 
ATOM     20  C   UNL     1      15.638   7.938   2.228  0.00  0.00    +0.013 A 
BRANCH  16  21
ATOM     21  O   UNL     1      15.005   7.650  -1.369  0.00  0.00    -0.506 OA
ATOM     22  H   UNL     1      14.380   8.315  -1.689  0.00  0.00    +0.292 HD
ENDBRANCH  16  21
ENDBRANCH  14  15
ENDBRANCH  10  13
ENDBRANCH   4   7
BRANCH   1  24
ATOM     23  C   UNL     1       3.649   2.166  -0.022  0.00  0.00    +0.123 C 
ATOM     24  N   UNL     1       4.787   1.529  -0.036  0.00  0.00    -0.255 NA
BRANCH  23  27
ATOM     25  C   UNL     1      -0.017   1.381   0.010  0.00  0.00    +0.001 A 
ATOM     26  C   UNL     1       1.163   2.092   0.002  0.00  0.00    +0.013 A 
ATOM     27  C   UNL     1       2.386   1.414  -0.013  0.00  0.00    +0.034 A 
ATOM     28  C   UNL     1       2.400   0.010  -0.021  0.00  0.00    +0.125 A 
ATOM     29  C   UNL     1       1.203  -0.688  -0.013  0.00  0.00    +0.046 A 
ATOM     30  C   UNL     1       0.002  -0.004   0.002  0.00  0.00    +0.004 A 
BRANCH  28  31
ATOM     31  O   UNL     1       3.580  -0.660  -0.036  0.00  0.00    -0.506 OA
ATOM     32  H   UNL     1       3.930  -0.859   0.843  0.00  0.00    +0.292 HD
ENDBRANCH  28  31
ENDBRANCH  23  27
ENDBRANCH   1  24
TORSDOF 7
