REMARK  Name = ZINC36692413
REMARK  8 active torsions:
REMARK  status: ('A' for Active; 'I' for Inactive)
REMARK    1  A    between atoms: C_4  and  C_7
REMARK    2  A    between atoms: C_10  and  C_11
REMARK    3  A    between atoms: N_19  and  C_20
REMARK    4  A    between atoms: C_23  and  C_26
REMARK    5  A    between atoms: N_28  and  CA_29
REMARK    6  A    between atoms: CA_29  and  CB_31
REMARK    7  A    between atoms: CA_29  and  C_38
REMARK    8  A    between atoms: CB_31  and  CG_32
REMARK                            x       y       z     vdW  Elec       q    Type
REMARK                         _______ _______ _______ _____ _____    ______ ____
ROOT
ATOM      1  C   UNK A   0       2.904  -3.111  -0.147  0.00  0.00    +0.043 A 
ATOM      2  C   UNK A   0       1.568  -2.760  -0.307  0.00  0.00    +0.024 A 
ATOM      3  C   UNK A   0       0.599  -3.737  -0.358  0.00  0.00    +0.015 A 
ATOM      4  C   UNK A   0       0.960  -5.082  -0.249  0.00  0.00    +0.037 A 
ATOM      5  C   UNK A   0       2.304  -5.431  -0.089  0.00  0.00    +0.015 A 
ATOM      6  C   UNK A   0       3.268  -4.449  -0.044  0.00  0.00    +0.024 A 
ENDROOT
BRANCH   1  13
ATOM      7  C   UNK A   0       4.419  -1.567   1.048  0.00  0.00    +0.140 C 
ATOM      8  N   UNK A   0       5.319  -0.664   0.759  0.00  0.00    -0.226 NA
ATOM      9  C   UNK A   0       5.431  -0.556  -0.594  0.00  0.00    +0.130 C 
ATOM     10  C   UNK A   0       6.264   0.277  -1.285  0.00  0.00    +0.060 C 
ATOM     11  C   UNK A   0       4.469  -1.525  -1.161  0.00  0.00    +0.275 C 
ATOM     12  O   UNK A   0       4.253  -1.746  -2.338  0.00  0.00    -0.268 OA
ATOM     13  N   UNK A   0       3.884  -2.116  -0.096  0.00  0.00    -0.219 N 
BRANCH   7  17
ATOM     14  C   UNK A   0       3.304  -2.674   4.993  0.00  0.00    +0.000 A 
ATOM     15  C   UNK A   0       2.596  -3.171   3.913  0.00  0.00    +0.001 A 
ATOM     16  C   UNK A   0       2.953  -2.816   2.629  0.00  0.00    +0.011 A 
ATOM     17  C   UNK A   0       4.031  -1.952   2.420  0.00  0.00    +0.016 A 
ATOM     18  C   UNK A   0       4.739  -1.453   3.516  0.00  0.00    +0.011 A 
ATOM     19  C   UNK A   0       4.372  -1.817   4.794  0.00  0.00    +0.001 A 
ENDBRANCH   7  17
BRANCH  10  20
ATOM     20  C   UNK A   0       7.164   1.183  -0.561  0.00  0.00    +0.066 A 
ATOM     21  C   UNK A   0       8.011   2.038  -1.274  0.00  0.00    +0.028 A 
ATOM     22  C   UNK A   0       8.853   2.885  -0.575  0.00  0.00    +0.004 A 
ATOM     23  C   UNK A   0       8.823   2.854   0.812  0.00  0.00    +0.020 A 
ATOM     24  C   UNK A   0       7.959   1.982   1.456  0.00  0.00    +0.111 A 
ATOM     25  N   UNK A   0       7.165   1.188   0.771  0.00  0.00    -0.255 NA
ENDBRANCH  10  20
ENDBRANCH   1  13
BRANCH   4  26
ATOM     26  C   UNK A   0      -0.075  -6.133  -0.303  0.00  0.00    +0.245 C 
ATOM     27  O   UNK A   0      -1.244  -5.828  -0.441  0.00  0.00    -0.270 OA
ATOM     28  N   HIS A   1       0.275  -7.430  -0.198  0.00  0.00    -0.298 N 
ATOM     29  H   HIS A   1       1.207  -7.674  -0.087  0.00  0.00    +0.150 HD
BRANCH  28  30
ATOM     30  CA  HIS A   1      -0.753  -8.473  -0.251  0.00  0.00    +0.192 C 
BRANCH  30  31
ATOM     31  C   HIS A   1      -1.045  -8.818  -1.688  0.00  0.00    +0.376 C 
ATOM     32  O   HIS A   1      -0.170  -8.711  -2.531  0.00  0.00    -0.244 OA
ATOM     33  OXT HIS A   1      -2.157  -9.202  -2.009  0.00  0.00    -0.244 OA
ENDBRANCH  30  31
BRANCH  30  34
ATOM     34  CB  HIS A   1      -0.253  -9.720   0.481  0.00  0.00    +0.088 C 
BRANCH  34  35
ATOM     35  CG  HIS A   1      -0.078  -9.407   1.945  0.00  0.00    +0.035 A 
ATOM     36  CD2 HIS A   1       1.002  -8.847   2.522  0.00  0.00    +0.105 A 
ATOM     37  NE2 HIS A   1       0.760  -8.739   3.837  0.00  0.00    -0.352 N 
ATOM     38  CE1 HIS A   1      -0.429  -9.210   4.096  0.00  0.00    +0.171 A 
ATOM     39  ND1 HIS A   1      -0.988  -9.632   2.942  0.00  0.00    -0.350 N 
ATOM     40  HD1 HIS A   1      -1.870 -10.023   2.839  0.00  0.00    +0.166 HD
ATOM     41  HE2 HIS A   1       1.373  -8.368   4.492  0.00  0.00    +0.166 HD
ENDBRANCH  34  35
ENDBRANCH  30  34
ENDBRANCH  28  30
ENDBRANCH   4  26
TORSDOF 8
