REMARK  Name = ZINC33371580
REMARK  3 active torsions:
REMARK  status: ('A' for Active; 'I' for Inactive)
REMARK    1  A    between atoms: C_4  and  C_7
REMARK    2  A    between atoms: C_7  and  C_29
REMARK    3  A    between atoms: C_12  and  C_15
REMARK                            x       y       z     vdW  Elec       q    Type
REMARK                         _______ _______ _______ _____ _____    ______ ____
ROOT
ATOM      1  C   UNL     1       3.711  -0.707  -0.038  0.00  0.00    +0.159 C 
ATOM      2  C   UNL     1       3.582  -2.021  -0.836  0.00  0.00    +0.125 C 
ATOM      3  C   UNL     1       4.057  -1.664  -2.270  0.00  0.00    +0.111 C 
ATOM      4  C   UNL     1       4.414  -0.164  -2.207  0.00  0.00    +0.099 C 
ATOM      5  N   UNL     1       4.735   0.080  -0.771  0.00  0.00    -0.290 NA
ATOM      6  C   UNL     1       5.317  -2.484  -2.434  0.00  0.00    +0.225 C 
ATOM      7  O   UNL     1       6.017  -2.502  -3.424  0.00  0.00    -0.275 OA
ATOM      8  N   UNL     1       5.540  -3.185  -1.317  0.00  0.00    -0.256 N 
ATOM      9  C   UNL     1       4.617  -3.007  -0.343  0.00  0.00    +0.226 C 
ATOM     10  O   UNL     1       4.614  -3.541   0.745  0.00  0.00    -0.275 OA
ATOM     11  H   UNL     1       4.662   1.062  -0.551  0.00  0.00    +0.124 HD
ATOM     12  H   UNL     1       6.300  -3.778  -1.212  0.00  0.00    +0.157 HD
ENDROOT
BRANCH   4  13
ATOM     13  C   UNL     1       5.623   0.124  -3.058  0.00  0.00    -0.009 A 
ATOM     14  C   UNL     1       6.882   0.143  -2.487  0.00  0.00    +0.026 A 
ATOM     15  C   UNL     1       7.992   0.408  -3.268  0.00  0.00    +0.043 A 
ATOM     16  C   UNL     1       7.844   0.653  -4.622  0.00  0.00    +0.041 A 
ATOM     17  C   UNL     1       6.585   0.634  -5.194  0.00  0.00    +0.061 A 
ATOM     18  C   UNL     1       5.474   0.363  -4.412  0.00  0.00    +0.064 A 
ATOM     19 CL   UNL     1       3.894   0.332  -5.131  0.00  0.00    -0.082 Cl
ATOM     20 CL   UNL     1       6.398   0.942  -6.892  0.00  0.00    -0.082 Cl
ATOM     21 CL   UNL     1       9.573   0.433  -2.550  0.00  0.00    -0.083 Cl
ENDBRANCH   4  13
BRANCH   1  25
ATOM     22  C   UNL     1      -0.017   1.378   0.010  0.00  0.00    +0.000 A 
ATOM     23  C   UNL     1       1.171   2.086   0.002  0.00  0.00    +0.000 A 
ATOM     24  C   UNL     1       2.377   1.411  -0.013  0.00  0.00    +0.006 A 
ATOM     25  C   UNL     1       2.396   0.029  -0.020  0.00  0.00    -0.016 A 
ATOM     26  C   UNL     1       1.208  -0.679  -0.012  0.00  0.00    +0.006 A 
ATOM     27  C   UNL     1       0.002  -0.004   0.002  0.00  0.00    +0.000 A 
ENDBRANCH   1  25
BRANCH   1  28
ATOM     28  C   UNL     1       4.173  -0.988   1.369  0.00  0.00    +0.381 C 
ATOM     29  O   UNL     1       3.488  -1.672   2.111  0.00  0.00    -0.244 OA
ATOM     30  O   UNL     1       5.232  -0.532   1.766  0.00  0.00    -0.244 OA
ENDBRANCH   1  28
TORSDOF 3
