REMARK  Name = ZINC11719586
REMARK  9 active torsions:
REMARK  status: ('A' for Active; 'I' for Inactive)
REMARK    1  A    between atoms: C_1  and  C_2
REMARK    2  A    between atoms: C_2  and  C_4
REMARK    3  A    between atoms: C_2  and  N_53
REMARK    4  A    between atoms: N_6  and  C_7
REMARK    5  A    between atoms: C_10  and  O_13
REMARK    6  A    between atoms: O_13  and  C_14
REMARK    7  A    between atoms: C_17  and  N_20
REMARK    8  A    between atoms: N_20  and  S_21
REMARK    9  A    between atoms: S_21  and  C_24
REMARK                            x       y       z     vdW  Elec       q    Type
REMARK                         _______ _______ _______ _____ _____    ______ ____
ROOT
ATOM      1  C   UNL     1      -1.755   6.560   4.328  0.00  0.00    -0.076 C 
ATOM      2  C   UNL     1      -2.763   5.691   3.571  0.00  0.00    +0.002 C 
ATOM      3  C   UNL     1      -2.008   4.656   2.733  0.00  0.00    +0.073 C 
ATOM      4  C   UNL     1      -1.118   3.816   3.654  0.00  0.00    +0.002 C 
ATOM      5  C   UNL     1      -0.159   4.739   4.409  0.00  0.00    -0.076 C 
ATOM      6  N   UNL     1      -0.947   5.695   5.214  0.00  0.00    +0.387 N 
ATOM      7  H   UNL     1      -1.577   5.170   5.832  0.00  0.00    -0.081 HD
ENDROOT
BRANCH   6   9
ATOM      8  C   UNL     1       0.655   7.577   5.180  0.00  0.00    -0.004 C 
ATOM      9  C   UNL     1      -0.044   6.523   6.040  0.00  0.00    +0.016 C 
BRANCH   9  10
ATOM     10  C   UNL     1      -0.859   7.206   7.109  0.00  0.00    +0.203 C 
ATOM     11  O   UNL     1      -2.067   7.245   7.018  0.00  0.00    -0.277 OA
ATOM     12  N   UNL     1      -0.243   7.773   8.166  0.00  0.00    -0.287 N 
ATOM     13  H   UNL     1       0.725   7.810   8.201  0.00  0.00    +0.155 HD
BRANCH  12  14
ATOM     14  C   UNL     1      -1.003   8.310   9.213  0.00  0.00    +0.034 A 
ATOM     15  C   UNL     1      -0.544   9.423   9.905  0.00  0.00    +0.027 A 
ATOM     16  C   UNL     1      -1.296   9.954  10.934  0.00  0.00    +0.047 A 
ATOM     17  C   UNL     1      -2.504   9.370  11.285  0.00  0.00    +0.120 A 
ATOM     18  C   UNL     1      -2.961   8.255  10.598  0.00  0.00    +0.047 A 
ATOM     19  C   UNL     1      -2.213   7.725   9.564  0.00  0.00    +0.027 A 
BRANCH  17  20
ATOM     20  O   UNL     1      -3.241   9.890  12.302  0.00  0.00    -0.495 OA
ATOM     21  C   UNL     1      -2.710  11.039  12.966  0.00  0.00    +0.277 C 
ENDBRANCH  17  20
ENDBRANCH  12  14
ENDBRANCH   9  10
ENDBRANCH   6   9
BRANCH   3  22
ATOM     22  N   UNL     1      -2.968   3.784   2.051  0.00  0.00    -0.187 NA
ATOM     23  H   UNL     1      -3.800   3.543   2.488  0.00  0.00    +0.148 HD
BRANCH  22  24
ATOM     24  S   UNL     1      -2.632   3.209   0.535  0.00  0.00    +0.065 S 
ATOM     25  O   UNL     1      -2.221   4.327  -0.241  0.00  0.00    -0.153 OA
ATOM     26  O   UNL     1      -3.727   2.384   0.162  0.00  0.00    -0.153 OA
BRANCH  24  27
ATOM     27  C   UNL     1      -1.230   2.152   0.677  0.00  0.00    +0.142 A 
ATOM     28  C   UNL     1      -1.188   0.817   0.910  0.00  0.00    +0.036 A 
ATOM     29  C   UNL     1       0.041   0.189   0.985  0.00  0.00    +0.010 A 
ATOM     30  C   UNL     1       1.167   0.924   0.813  0.00  0.00    +0.047 A 
ATOM     31  S   UNL     1       0.503   2.559   0.542  0.00  0.00    -0.077 S 
ENDBRANCH  24  27
ENDBRANCH  22  24
ENDBRANCH   3  22
TORSDOF 7
