REMARK  Name = ZINC43209312
REMARK  4 active torsions:
REMARK  status: ('A' for Active; 'I' for Inactive)
REMARK    1  A    between atoms: C_1  and  N_2
REMARK    2  A    between atoms: C_7  and  C_19
REMARK    3  A    between atoms: N_9  and  C_15
REMARK    4  A    between atoms: C_15  and  C_16
REMARK                            x       y       z     vdW  Elec       q    Type
REMARK                         _______ _______ _______ _____ _____    ______ ____
ROOT
ATOM      1  C   UNL     1      -0.725   1.484  -0.385  0.00  0.00    +0.141 C 
ATOM      2  N   UNL     1      -0.502   0.041  -0.267  0.00  0.00    -0.243 N 
ATOM      3  C   UNL     1      -1.514  -0.886  -0.263  0.00  0.00    +0.230 C 
ATOM      4  O   UNL     1      -2.675  -0.714  -0.565  0.00  0.00    -0.275 OA
ATOM      5  C   UNL     1      -0.891  -2.113   0.177  0.00  0.00    +0.139 C 
ATOM      6  C   UNL     1      -1.126  -3.565   0.114  0.00  0.00    +0.131 C 
ATOM      7  N   UNL     1       0.253  -4.125   0.323  0.00  0.00    -0.170 NA
ATOM      8  O   UNL     1       1.186  -2.962   0.390  0.00  0.00    -0.282 OA
ATOM      9  C   UNL     1       0.550  -1.988  -0.459  0.00  0.00    +0.241 C 
ATOM     10  C   UNL     1       0.734  -0.526  -0.154  0.00  0.00    +0.253 C 
ATOM     11  O   UNL     1       1.770   0.033   0.135  0.00  0.00    -0.272 OA
ENDROOT
BRANCH   6  12
ATOM     12  C   UNL     1      -2.059  -4.005   1.213  0.00  0.00    -0.012 A 
ATOM     13  C   UNL     1      -2.611  -3.065   2.082  0.00  0.00    -0.011 A 
ATOM     14  C   UNL     1      -2.312  -1.691   1.955  0.00  0.00    +0.009 A 
ATOM     15  C   UNL     1      -2.868  -0.802   2.817  0.00  0.00    +0.001 A 
ATOM     16  C   UNL     1      -3.731  -1.209   3.835  0.00  0.00    +0.001 A 
ATOM     17  C   UNL     1      -4.060  -2.514   4.013  0.00  0.00    +0.010 A 
ATOM     18  C   UNL     1      -3.520  -3.492   3.151  0.00  0.00    +0.001 A 
ATOM     19  C   UNL     1      -3.836  -4.842   3.305  0.00  0.00    +0.056 A 
ATOM     20  C   UNL     1      -3.283  -5.782   2.436  0.00  0.00    +0.001 A 
ATOM     21  C   UNL     1      -2.380  -5.353   1.363  0.00  0.00    -0.011 A 
ATOM     22  C   UNL     1      -1.843  -6.330   0.497  0.00  0.00    +0.009 A 
ATOM     23  C   UNL     1      -2.177  -7.634   0.671  0.00  0.00    +0.001 A 
ATOM     24  C   UNL     1      -3.041  -8.042   1.688  0.00  0.00    +0.001 A 
ATOM     25  C   UNL     1      -3.581  -7.155   2.563  0.00  0.00    +0.010 A 
ATOM     26 CL   UNL     1      -4.911  -5.348   4.571  0.00  0.00    -0.082 Cl
ENDBRANCH   6  12
BRANCH   7  27
ATOM     27  C   UNL     1       0.316  -4.922   1.555  0.00  0.00    +0.210 C 
BRANCH  27  28
ATOM     28  C   UNL     1       1.692  -5.521   1.695  0.00  0.00    +0.227 C 
ATOM     29  O   UNL     1       2.536  -5.305   0.852  0.00  0.00    -0.275 OA
ATOM     30  N   UNL     1       1.984  -6.297   2.758  0.00  0.00    -0.328 N 
ATOM     31  H   UNL     1       1.309  -6.470   3.432  0.00  0.00    +0.145 HD
ATOM     32  H   UNL     1       2.869  -6.683   2.848  0.00  0.00    +0.145 HD
ENDBRANCH  27  28
ENDBRANCH   7  27
TORSDOF 3
