REMARK  Name = ZINC22061727
REMARK  14 active torsions:
REMARK  status: ('A' for Active; 'I' for Inactive)
REMARK    1  A    between atoms: C_1  and  C_2
REMARK    2  A    between atoms: C_2  and  C_4
REMARK    3  A    between atoms: C_2  and  C_15
REMARK    4  A    between atoms: C_4  and  C_5
REMARK    5  A    between atoms: C_5  and  C_6
REMARK    6  A    between atoms: C_6  and  O_7
REMARK    7  A    between atoms: O_7  and  C_8
REMARK    8  A    between atoms: C_8  and  C_10
REMARK    9  A    between atoms: C_10  and  C_11
REMARK   10  A    between atoms: C_11  and  C_12
REMARK   11  A    between atoms: C_21  and  C_43
REMARK   12  A    between atoms: C_22  and  O_42
REMARK   13  A    between atoms: C_29  and  O_41
REMARK   14  A    between atoms: C_34  and  C_40
REMARK                            x       y       z     vdW  Elec       q    Type
REMARK                         _______ _______ _______ _____ _____    ______ ____
ROOT
ATOM      1  C   UNL     1      -0.938   1.864   8.662  0.00  0.00    +0.001 C 
ATOM      2  C   UNL     1       0.125   1.479   9.711  0.00  0.00    +0.005 C 
ATOM      3  C   UNL     1      -0.496   0.300  10.595  0.00  0.00    +0.005 C 
ATOM      4  C   UNL     1      -1.649  -0.242   9.657  0.00  0.00    +0.003 C 
ATOM      5  C   UNL     1      -2.239   1.074   9.081  0.00  0.00    +0.000 C 
ATOM      6  C   UNL     1      -3.262   0.704   8.053  0.00  0.00    +0.121 C 
ATOM      7  C   UNL     1      -4.417   0.072   8.778  0.00  0.00    +0.036 C 
ATOM      8  C   UNL     1      -4.173  -0.564  10.043  0.00  0.00    +0.003 C 
ATOM      9  C   UNL     1      -2.670  -1.063  10.317  0.00  0.00    +0.025 C 
ATOM     10  C   UNL     1      -2.420  -1.247  11.795  0.00  0.00    +0.118 C 
ATOM     11  C   UNL     1      -3.728  -1.935  12.467  0.00  0.00    +0.036 C 
ATOM     12  C   UNL     1      -4.475  -2.670  11.364  0.00  0.00    +0.005 C 
ATOM     13  C   UNL     1      -5.133  -1.631  10.433  0.00  0.00    -0.025 C 
ATOM     14  C   UNL     1      -5.636  -2.385   9.244  0.00  0.00    +0.015 C 
ATOM     15  C   UNL     1      -6.707  -3.447   9.604  0.00  0.00    +0.075 C 
ATOM     16  C   UNL     1      -6.203  -4.276  10.731  0.00  0.00    +0.134 C 
ATOM     17  O   UNL     1      -6.337  -5.471  10.775  0.00  0.00    -0.297 OA
ATOM     18  C   UNL     1      -5.486  -3.684  11.912  0.00  0.00    +0.078 C 
ATOM     19  C   UNL     1      -6.320  -0.961  11.135  0.00  0.00    +0.012 C 
ATOM     20  C   UNL     1      -2.799   1.979  10.179  0.00  0.00    +0.014 C 
ENDROOT
BRANCH   1  22
ATOM     21  C   UNL     1       0.020  -0.047   7.376  0.00  0.00    +0.008 C 
ATOM     22  C   UNL     1      -0.467   1.400   7.287  0.00  0.00    -0.010 C 
BRANCH  22  23
ATOM     23  C   UNL     1       0.678   2.296   6.811  0.00  0.00    +0.007 C 
BRANCH  23  24
ATOM     24  C   UNL     1       1.050   1.928   5.373  0.00  0.00    +0.041 C 
BRANCH  24  25
ATOM     25  C   UNL     1       2.196   2.823   4.898  0.00  0.00    +0.232 C 
BRANCH  25  26
ATOM     26  O   UNL     1       2.548   2.474   3.533  0.00  0.00    -0.465 OA
BRANCH  26  27
ATOM     27  C   UNL     1       3.544   3.171   2.963  0.00  0.00    +0.308 C 
ATOM     28  O   UNL     1       4.102   4.045   3.584  0.00  0.00    -0.251 OA
BRANCH  27  29
ATOM     29  C   UNL     1       3.965   2.865   1.549  0.00  0.00    +0.132 C 
BRANCH  29  30
ATOM     30  C   UNL     1       5.110   3.796   1.145  0.00  0.00    +0.136 C 
BRANCH  30  31
ATOM     31  C   UNL     1       5.531   3.490  -0.269  0.00  0.00    +0.357 C 
ATOM     32  O   UNL     1       4.973   2.616  -0.890  0.00  0.00    -0.246 OA
ATOM     33  O   UNL     1       6.527   4.187  -0.839  0.00  0.00    -0.246 OA
ENDBRANCH  30  31
ENDBRANCH  29  30
ENDBRANCH  27  29
ENDBRANCH  26  27
ENDBRANCH  25  26
ENDBRANCH  24  25
ENDBRANCH  23  24
ENDBRANCH  22  23
ENDBRANCH   1  22
BRANCH  10  34
ATOM     34  O   UNL     1      -1.343  -2.144  11.896  0.00  0.00    -0.391 OA
ATOM     35  H   UNL     1      -0.966  -2.442  12.886  0.00  0.00    +0.210 HD
ENDBRANCH  10  34
BRANCH   6  36
ATOM     36  O   UNL     1      -2.709  -0.099   7.059  0.00  0.00    -0.391 OA
ATOM     37  H   UNL     1      -3.336  -0.456   6.228  0.00  0.00    +0.210 HD
ENDBRANCH   6  36
TORSDOF 11
