REMARK  Name = ZINC39687001
REMARK  7 active torsions:
REMARK  status: ('A' for Active; 'I' for Inactive)
REMARK    1  A    between atoms: C_1  and  C_2
REMARK    2  A    between atoms: C_4  and  C_9
REMARK    3  A    between atoms: C_13  and  C_22
REMARK    4  A    between atoms: N_24  and  C_25
REMARK    5  A    between atoms: C_25  and  C_27
REMARK    6  A    between atoms: C_25  and  C_28
REMARK    7  A    between atoms: C_28  and  C_29
REMARK                            x       y       z     vdW  Elec       q    Type
REMARK                         _______ _______ _______ _____ _____    ______ ____
ROOT
ATOM      1  C   UNL     1       0.027  -2.818  -2.487  0.00  0.00    +0.247 C 
ATOM      2  O   UNL     1      -0.095  -2.216  -3.535  0.00  0.00    -0.270 OA
ATOM      3  N   UNL     1       0.148  -4.161  -2.491  0.00  0.00    -0.296 N 
ATOM      4  C   UNL     1       0.177  -5.074  -1.325  0.00  0.00    +0.121 C 
ATOM      5  C   UNL     1      -0.645  -6.304  -1.770  0.00  0.00    +0.100 C 
ATOM      6  C   UNL     1      -0.572  -6.288  -3.307  0.00  0.00    -0.004 C 
ATOM      7  C   UNL     1       0.273  -5.058  -3.665  0.00  0.00    +0.115 C 
ATOM      8  C   UNL     1      -1.971  -6.151  -3.900  0.00  0.00    -0.010 C 
ATOM      9  C   UNL     1      -1.878  -6.196  -5.428  0.00  0.00    -0.082 C 
ATOM     10  N   UNL     1      -1.270  -7.464  -5.846  0.00  0.00    +0.379 N 
ATOM     11  C   UNL     1       0.109  -7.547  -5.348  0.00  0.00    -0.082 C 
ATOM     12  C   UNL     1       0.100  -7.559  -3.817  0.00  0.00    -0.010 C 
ATOM     13  H   UNL     1      -1.807  -8.233  -5.474  0.00  0.00    -0.086 HD
ATOM     14  H   UNL     1      -1.265  -7.518  -6.854  0.00  0.00    -0.086 HD
ENDROOT
BRANCH   1  18
ATOM     15  C   UNL     1      -1.207   1.208   0.189  0.00  0.00    +0.045 C 
ATOM     16  C   UNL     1      -0.548  -0.143   0.085  0.00  0.00    -0.036 A 
ATOM     17  C   UNL     1      -0.567  -0.828  -1.112  0.00  0.00    +0.017 A 
ATOM     18  C   UNL     1       0.045  -2.079  -1.207  0.00  0.00    +0.037 A 
ATOM     19  C   UNL     1       0.672  -2.630  -0.088  0.00  0.00    +0.014 A 
ATOM     20  C   UNL     1       0.685  -1.935   1.103  0.00  0.00    +0.016 A 
ATOM     21  C   UNL     1       0.081  -0.692   1.190  0.00  0.00    +0.021 A 
ATOM     22 BR   UNL     1       0.109   0.257   2.825  0.00  0.00    -0.050 Br
ENDBRANCH   1  18
BRANCH   5  23
ATOM     23  C   UNL     1      -2.074  -6.175  -1.309  0.00  0.00    +0.218 C 
ATOM     24  O   UNL     1      -2.604  -5.085  -1.274  0.00  0.00    -0.275 OA
ATOM     25  N   UNL     1      -2.762  -7.272  -0.935  0.00  0.00    -0.312 N 
ATOM     26  H   UNL     1      -2.338  -8.144  -0.963  0.00  0.00    +0.149 HD
BRANCH  25  27
ATOM     27  C   UNL     1      -4.151  -7.147  -0.486  0.00  0.00    +0.074 C 
ATOM     28  C   UNL     1      -4.177  -6.802   1.004  0.00  0.00    +0.028 C 
BRANCH  27  29
ATOM     29  C   UNL     1      -4.882  -8.471  -0.716  0.00  0.00    +0.060 C 
BRANCH  29  30
ATOM     30  C   UNL     1      -4.964  -8.750  -2.195  0.00  0.00    -0.010 A 
ATOM     31  C   UNL     1      -6.090  -8.379  -2.907  0.00  0.00    +0.006 A 
ATOM     32  C   UNL     1      -6.165  -8.634  -4.263  0.00  0.00    +0.000 A 
ATOM     33  C   UNL     1      -5.116  -9.261  -4.909  0.00  0.00    +0.003 A 
ATOM     34  C   UNL     1      -3.990  -9.632  -4.200  0.00  0.00    +0.038 A 
ATOM     35  C   UNL     1      -3.911  -9.372  -2.842  0.00  0.00    +0.127 A 
ATOM     36  F   UNL     1      -2.808  -9.731  -2.148  0.00  0.00    -0.205 F 
ENDBRANCH  29  30
ENDBRANCH  27  29
ENDBRANCH  25  27
ENDBRANCH   5  23
TORSDOF 5
