REMARK  Name = ZINC33810156
REMARK  9 active torsions:
REMARK  status: ('A' for Active; 'I' for Inactive)
REMARK    1  A    between atoms: C_1  and  C_2
REMARK    2  A    between atoms: C_2  and  C_3
REMARK    3  A    between atoms: C_3  and  S_4
REMARK    4  A    between atoms: S_4  and  C_5
REMARK    5  A    between atoms: C_12  and  C_22
REMARK    6  A    between atoms: C_26  and  O_30
REMARK    7  A    between atoms: C_27  and  O_28
REMARK    8  A    between atoms: O_28  and  C_29
REMARK    9  A    between atoms: O_30  and  C_31
REMARK                            x       y       z     vdW  Elec       q    Type
REMARK                         _______ _______ _______ _____ _____    ______ ____
ROOT
ATOM      1  C   UNL     1       6.537  -0.306   2.555  0.00  0.00    +0.171 A 
ATOM      2  N   UNL     1       6.648   0.612   1.554  0.00  0.00    -0.208 NA
ATOM      3  C   UNL     1       5.789   0.571   0.488  0.00  0.00    +0.135 A 
ATOM      4  C   UNL     1       4.829  -0.392   0.441  0.00  0.00    +0.069 A 
ATOM      5  C   UNL     1       4.750  -1.326   1.497  0.00  0.00    +0.258 A 
ATOM      6  O   UNL     1       3.899  -2.204   1.478  0.00  0.00    -0.267 OA
ATOM      7  N   UNL     1       5.614  -1.244   2.521  0.00  0.00    -0.302 N 
ATOM      8  C   UNL     1       3.866  -0.466  -0.707  0.00  0.00    +0.096 C 
ATOM      9  C   UNL     1       4.366   0.318  -1.893  0.00  0.00    +0.024 C 
ATOM     10  C   UNL     1       5.338   1.243  -1.754  0.00  0.00    +0.017 C 
ATOM     11  N   UNL     1       5.896   1.491  -0.529  0.00  0.00    -0.302 N 
ATOM     12  C   UNL     1       5.841   2.027  -2.942  0.00  0.00    +0.051 C 
ATOM     13  C   UNL     1       4.710   2.203  -3.958  0.00  0.00    +0.014 C 
ATOM     14  C   UNL     1       4.214   0.815  -4.375  0.00  0.00    +0.080 C 
ATOM     15  C   UNL     1       3.787   0.058  -3.148  0.00  0.00    +0.162 C 
ATOM     16  O   UNL     1       2.925  -0.794  -3.242  0.00  0.00    -0.292 OA
ATOM     17  H   UNL     1       6.434   2.436  -0.362  0.00  0.00    +0.153 HD
ATOM     18  H   UNL     1       5.542  -1.976   3.339  0.00  0.00    +0.171 HD
ENDROOT
BRANCH   8  19
ATOM     19  C   UNL     1       2.535   0.092  -0.271  0.00  0.00    +0.010 A 
ATOM     20  C   UNL     1       1.371  -0.603  -0.546  0.00  0.00    +0.008 A 
ATOM     21  C   UNL     1       0.150  -0.094  -0.148  0.00  0.00    +0.004 A 
ATOM     22  C   UNL     1       0.086   1.111   0.527  0.00  0.00    +0.049 A 
ATOM     23  C   UNL     1       1.248   1.812   0.805  0.00  0.00    +0.162 A 
ATOM     24  C   UNL     1       2.478   1.300   0.404  0.00  0.00    +0.166 A 
BRANCH  24  25
ATOM     25  O   UNL     1       3.622   1.983   0.675  0.00  0.00    -0.491 OA
ATOM     26  C   UNL     1       4.078   1.974   2.030  0.00  0.00    +0.277 C 
ENDBRANCH  24  25
BRANCH  23  27
ATOM     27  O   UNL     1       1.187   2.997   1.469  0.00  0.00    -0.491 OA
ATOM     28  C   UNL     1      -0.110   3.461   1.850  0.00  0.00    +0.277 C 
ENDBRANCH  23  27
ENDBRANCH   8  19
BRANCH   1  29
ATOM     29  S   UNL     1       7.649  -0.237   3.921  0.00  0.00    -0.088 S 
BRANCH  29  30
ATOM     30  C   UNL     1       7.047  -1.642   4.889  0.00  0.00    +0.077 C 
BRANCH  30  32
ATOM     31  C   UNL     1       7.377  -2.971   6.979  0.00  0.00    +0.004 C 
ATOM     32  C   UNL     1       7.886  -1.783   6.160  0.00  0.00    +0.008 C 
ENDBRANCH  30  32
ENDBRANCH  29  30
ENDBRANCH   1  29
TORSDOF 6
