REMARK  Name = ZINC11391779
REMARK  8 active torsions:
REMARK  status: ('A' for Active; 'I' for Inactive)
REMARK    1  A    between atoms: C_4  and  C_7
REMARK    2  A    between atoms: C_8  and  C_9
REMARK    3  A    between atoms: C_9  and  N_10
REMARK    4  A    between atoms: N_10  and  C_11
REMARK    5  A    between atoms: C_21  and  C_23
REMARK    6  A    between atoms: C_23  and  S_24
REMARK    7  A    between atoms: S_24  and  C_25
REMARK    8  A    between atoms: C_29  and  N_31
REMARK                            x       y       z     vdW  Elec       q    Type
REMARK                         _______ _______ _______ _____ _____    ______ ____
ROOT
ATOM      1  N   UNL     1       3.663  -0.664   0.168  0.00  0.00    -0.267 N 
ATOM      2  C   UNL     1       4.778   0.020  -0.156  0.00  0.00    +0.230 C 
ATOM      3  O   UNL     1       5.790  -0.578  -0.454  0.00  0.00    -0.274 OA
ENDROOT
BRANCH   1   4
ATOM      4  C   UNL     1       2.469   0.023   0.422  0.00  0.00    +0.040 A 
ATOM      5  C   UNL     1       1.925   0.023   1.700  0.00  0.00    +0.027 A 
ATOM      6  C   UNL     1       0.747   0.700   1.950  0.00  0.00    +0.051 A 
ATOM      7  C   UNL     1       0.104   1.382   0.928  0.00  0.00    +0.162 A 
ATOM      8  C   UNL     1       0.648   1.387  -0.352  0.00  0.00    +0.164 A 
ATOM      9  C   UNL     1       1.829   0.706  -0.603  0.00  0.00    +0.073 A 
ATOM     10  O   UNL     1       0.036   2.058  -1.366  0.00  0.00    -0.485 OA
ATOM     11  C   UNL     1      -1.336   2.416  -1.166  0.00  0.00    +0.270 C 
ATOM     12  C   UNL     1      -1.475   3.021   0.237  0.00  0.00    +0.270 C 
ATOM     13  O   UNL     1      -1.060   2.037   1.192  0.00  0.00    -0.485 OA
ENDBRANCH   1   4
BRANCH   1  14
ATOM     14  C   UNL     1       3.699  -2.126   0.255  0.00  0.00    +0.141 C 
BRANCH  14  16
ATOM     15  C   UNL     1       4.202  -3.574  -1.662  0.00  0.00    +0.005 C 
ATOM     16  C   UNL     1       3.367  -2.717  -1.091  0.00  0.00    -0.007 C 
BRANCH  15  20
ATOM     17  C   UNL     1       3.266  -5.241  -5.455  0.00  0.00    +0.000 A 
ATOM     18  C   UNL     1       4.443  -5.594  -4.819  0.00  0.00    +0.001 A 
ATOM     19  C   UNL     1       4.753  -5.056  -3.586  0.00  0.00    +0.008 A 
ATOM     20  C   UNL     1       3.876  -4.154  -2.982  0.00  0.00    -0.025 A 
ATOM     21  C   UNL     1       2.688  -3.807  -3.627  0.00  0.00    +0.008 A 
ATOM     22  C   UNL     1       2.393  -4.347  -4.861  0.00  0.00    +0.001 A 
ENDBRANCH  15  20
ENDBRANCH  14  16
ENDBRANCH   1  14
BRANCH   2  23
ATOM     23  C   UNL     1       4.767   1.527  -0.147  0.00  0.00    +0.173 C 
BRANCH  23  24
ATOM     24  S   UNL     1       6.440   2.144  -0.459  0.00  0.00    -0.077 S 
BRANCH  24  25
ATOM     25  C   UNL     1       6.143   3.879  -0.396  0.00  0.00    +0.192 A 
ATOM     26  N   UNL     1       4.912   4.315  -0.167  0.00  0.00    -0.207 NA
ATOM     27  C   UNL     1       4.652   5.619  -0.107  0.00  0.00    +0.122 A 
ATOM     28  C   UNL     1       5.689   6.527  -0.298  0.00  0.00    +0.086 A 
ATOM     29  C   UNL     1       6.967   6.032  -0.541  0.00  0.00    +0.122 A 
ATOM     30  N   UNL     1       7.154   4.715  -0.583  0.00  0.00    -0.207 NA
ATOM     31  N   UNL     1       3.363   6.067   0.138  0.00  0.00    -0.343 N 
ATOM     32  H   UNL     1       3.179   7.019   0.177  0.00  0.00    +0.144 HD
ATOM     33  H   UNL     1       2.644   5.429   0.271  0.00  0.00    +0.144 HD
BRANCH  29  34
ATOM     34  N   UNL     1       8.030   6.899  -0.738  0.00  0.00    -0.343 N 
ATOM     35  H   UNL     1       8.918   6.546  -0.906  0.00  0.00    +0.144 HD
ATOM     36  H   UNL     1       7.887   7.857  -0.706  0.00  0.00    +0.144 HD
ENDBRANCH  29  34
ENDBRANCH  24  25
ENDBRANCH  23  24
ENDBRANCH   2  23
TORSDOF 8
