REMARK  Name = ZINC10245156
REMARK  10 active torsions:
REMARK  status: ('A' for Active; 'I' for Inactive)
REMARK    1  A    between atoms: C_1  and  C_2
REMARK    2  A    between atoms: C_5  and  O_29
REMARK    3  A    between atoms: C_6  and  N_8
REMARK    4  A    between atoms: C_22  and  S_23
REMARK    5  A    between atoms: S_23  and  C_24
REMARK    6  A    between atoms: C_24  and  C_25
REMARK    7  A    between atoms: C_25  and  C_26
REMARK    8  A    between atoms: C_26  and  C_27
REMARK    9  A    between atoms: C_26  and  C_28
REMARK   10  A    between atoms: O_29  and  C_30
REMARK                            x       y       z     vdW  Elec       q    Type
REMARK                         _______ _______ _______ _____ _____    ______ ____
ROOT
ATOM      1  N   UNL     1       2.693   5.960   0.011  0.00  0.00    -0.251 N 
ATOM      2  C   UNL     1       3.496   4.874  -0.004  0.00  0.00    +0.283 A 
ATOM      3  O   UNL     1       4.709   4.998  -0.015  0.00  0.00    -0.265 OA
ATOM      4  C   UNL     1       2.902   3.595  -0.006  0.00  0.00    +0.132 A 
ATOM      5  C   UNL     1       1.511   3.507   0.007  0.00  0.00    +0.104 A 
ATOM      6  C   UNL     1       1.184   2.074   0.002  0.00  0.00    +0.026 A 
ATOM      7  C   UNL     1      -0.017   1.362   0.009  0.00  0.00    +0.012 A 
ATOM      8  C   UNL     1       0.002  -0.004   0.002  0.00  0.00    +0.001 A 
ATOM      9  C   UNL     1       1.208  -0.691  -0.013  0.00  0.00    +0.002 A 
ATOM     10  C   UNL     1       2.404  -0.009  -0.021  0.00  0.00    +0.026 A 
ATOM     11  C   UNL     1       2.408   1.384  -0.014  0.00  0.00    +0.049 A 
ATOM     12  N   UNL     1       3.427   2.312  -0.018  0.00  0.00    -0.349 N 
ATOM     13  H   UNL     1       4.374   2.099  -0.029  0.00  0.00    +0.166 HD
ATOM     14  N   UNL     1       0.770   4.627   0.022  0.00  0.00    -0.221 NA
ATOM     15  C   UNL     1       1.335   5.813   0.024  0.00  0.00    +0.177 A 
ENDROOT
BRANCH   1  21
ATOM     16  C   UNL     1       4.368   9.852  -2.484  0.00  0.00    +0.044 C 
ATOM     17  C   UNL     1       4.079   9.154  -1.181  0.00  0.00    -0.048 A 
ATOM     18  C   UNL     1       4.369   9.781   0.018  0.00  0.00    +0.007 A 
ATOM     19  C   UNL     1       4.105   9.145   1.216  0.00  0.00    +0.048 A 
ATOM     20  C   UNL     1       3.543   7.878   1.220  0.00  0.00    +0.144 A 
ATOM     21  C   UNL     1       3.256   7.244   0.013  0.00  0.00    +0.094 A 
ATOM     22  C   UNL     1       3.524   7.888  -1.185  0.00  0.00    +0.033 A 
BRANCH  20  23
ATOM     23  O   UNL     1       3.277   7.254   2.398  0.00  0.00    -0.493 OA
ATOM     24  C   UNL     1       3.598   7.965   3.596  0.00  0.00    +0.277 C 
ENDBRANCH  20  23
ENDBRANCH   1  21
BRANCH  15  25
ATOM     25  S   UNL     1       0.316   7.250   0.044  0.00  0.00    -0.087 S 
BRANCH  25  26
ATOM     26  C   UNL     1      -1.320   6.475   0.055  0.00  0.00    +0.077 C 
BRANCH  26  27
ATOM     27  C   UNL     1      -2.399   7.561   0.073  0.00  0.00    +0.014 C 
BRANCH  27  28
ATOM     28  C   UNL     1      -3.781   6.905   0.083  0.00  0.00    -0.016 C 
ATOM     29  C   UNL     1      -3.968   6.127   1.387  0.00  0.00    +0.007 C 
ATOM     30  C   UNL     1      -4.859   7.986  -0.025  0.00  0.00    +0.007 C 
ENDBRANCH  27  28
ENDBRANCH  26  27
ENDBRANCH  25  26
ENDBRANCH  15  25
TORSDOF 6
