REMARK  Name = ZINC15946694
REMARK  11 active torsions:
REMARK  status: ('A' for Active; 'I' for Inactive)
REMARK    1  A    between atoms: C_1  and  C_2
REMARK    2  A    between atoms: C_7  and  C_8
REMARK    3  A    between atoms: C_7  and  N_72
REMARK    4  A    between atoms: N_10  and  C_11
REMARK    5  A    between atoms: C_12  and  C_25
REMARK    6  A    between atoms: C_17  and  C_21
REMARK    7  A    between atoms: C_21  and  C_22
REMARK    8  A    between atoms: C_21  and  C_23
REMARK    9  A    between atoms: C_21  and  C_24
REMARK   10  A    between atoms: N_27  and  C_28
REMARK   11  A    between atoms: C_32  and  N_34
REMARK                            x       y       z     vdW  Elec       q    Type
REMARK                         _______ _______ _______ _____ _____    ______ ____
ROOT
ATOM      1  C   UNL     1      -1.359   8.010  -1.403  0.00  0.00    +0.084 A 
ATOM      2  C   UNL     1      -1.594   7.391  -0.183  0.00  0.00    +0.069 A 
ATOM      3  C   UNL     1      -1.554   8.221   1.009  0.00  0.00    -0.023 A 
ATOM      4  C   UNL     1      -1.292   9.528   0.792  0.00  0.00    -0.004 A 
ATOM      5  S   UNL     1      -1.100   9.666  -0.963  0.00  0.00    -0.077 S 
ATOM      6  C   UNL     1      -1.188  10.612   1.820  0.00  0.00    +0.046 C 
ATOM      7  C   UNL     1      -1.054   9.956   3.202  0.00  0.00    -0.000 C 
ATOM      8  C   UNL     1      -2.123   8.868   3.337  0.00  0.00    +0.009 C 
ATOM      9  C   UNL     1      -1.786   7.691   2.419  0.00  0.00    +0.037 C 
ENDROOT
BRANCH   1  12
ATOM     10  C   UNL     1      -1.088   8.208  -3.747  0.00  0.00    +0.201 C 
ATOM     11  O   UNL     1      -0.883   9.396  -3.613  0.00  0.00    -0.278 OA
ATOM     12  N   UNL     1      -1.337   7.441  -2.667  0.00  0.00    -0.281 N 
ATOM     13  H   UNL     1      -1.501   6.491  -2.774  0.00  0.00    +0.155 HD
BRANCH  10  14
ATOM     14  C   UNL     1      -1.065   7.589  -5.121  0.00  0.00    +0.019 C 
BRANCH  14  21
ATOM     15  C   UNL     1      -1.250  11.297  -9.467  0.00  0.00    +0.007 C 
ATOM     16  C   UNL     1      -1.557  10.134  -8.522  0.00  0.00    -0.018 C 
ATOM     17  C   UNL     1      -1.859  10.678  -7.123  0.00  0.00    -0.016 C 
ATOM     18  C   UNL     1      -2.105   9.508  -6.168  0.00  0.00    -0.078 C 
ATOM     19  C   UNL     1      -0.636   8.074  -7.454  0.00  0.00    -0.078 C 
ATOM     20  C   UNL     1      -0.345   9.201  -8.448  0.00  0.00    -0.016 C 
ATOM     21  N   UNL     1      -0.894   8.662  -6.123  0.00  0.00    +0.385 N 
ATOM     22  H   UNL     1      -0.091   9.244  -5.854  0.00  0.00    -0.081 HD
ENDBRANCH  14  21
ENDBRANCH  10  14
ENDBRANCH   1  12
BRANCH   7  23
ATOM     23  C   UNL     1      -1.256  11.011   4.292  0.00  0.00    -0.035 C 
ATOM     24  C   UNL     1      -1.139  10.352   5.668  0.00  0.00    +0.011 C 
ATOM     25  C   UNL     1      -0.188  12.097   4.154  0.00  0.00    +0.011 C 
ATOM     26  C   UNL     1      -2.644  11.639   4.144  0.00  0.00    +0.011 C 
ENDBRANCH   7  23
BRANCH   2  27
ATOM     27  C   UNL     1      -1.867   5.954  -0.099  0.00  0.00    +0.251 C 
ATOM     28  O   UNL     1      -3.012   5.547  -0.163  0.00  0.00    -0.270 OA
ATOM     29  N   UNL     1      -0.849   5.082   0.047  0.00  0.00    -0.281 N 
ATOM     30  H   UNL     1       0.055   5.409   0.173  0.00  0.00    +0.155 HD
BRANCH  29  31
ATOM     31  C   UNL     1      -1.097   3.706   0.018  0.00  0.00    +0.036 A 
ATOM     32  C   UNL     1      -2.111   3.199  -0.785  0.00  0.00    +0.023 A 
ATOM     33  C   UNL     1      -2.349   1.839  -0.817  0.00  0.00    +0.004 A 
ATOM     34  C   UNL     1      -1.587   0.983  -0.042  0.00  0.00    +0.033 A 
ATOM     35  C   UNL     1      -0.578   1.485   0.758  0.00  0.00    +0.128 A 
ATOM     36  C   UNL     1      -0.330   2.844   0.790  0.00  0.00    +0.056 A 
BRANCH  35  37
ATOM     37  N   UNL     1       0.239   0.565   1.581  0.00  0.00    +0.056 N 
ATOM     38  O   UNL     1       0.022  -0.633   1.554  0.00  0.00    -0.126 OA
ATOM     39  O   UNL     1       1.129   1.007   2.287  0.00  0.00    -0.126 OA
ENDBRANCH  35  37
ENDBRANCH  29  31
ENDBRANCH   2  27
TORSDOF 7
