REMARK  Name = ZINC43984775
REMARK  3 active torsions:
REMARK  status: ('A' for Active; 'I' for Inactive)
REMARK    1  A    between atoms: C_1  and  N_2
REMARK    2  A    between atoms: N_2  and  C_3
REMARK    3  A    between atoms: C_9  and  N_11
REMARK                            x       y       z     vdW  Elec       q    Type
REMARK                         _______ _______ _______ _____ _____    ______ ____
ROOT
ATOM      1  C   UNL     1       0.698  -0.497  -0.972  0.00  0.00    -0.054 C 
ATOM      2  C   UNL     1       2.133   0.033  -0.983  0.00  0.00    -0.009 C 
ATOM      3  C   UNL     1       2.938  -0.652   0.123  0.00  0.00    +0.063 C 
ATOM      4  C   UNL     1       2.946  -2.163  -0.114  0.00  0.00    +0.171 C 
ATOM      5  C   UNL     1       1.512  -2.696  -0.109  0.00  0.00    +0.082 C 
ATOM      6  C   UNL     1       0.710  -2.008  -1.215  0.00  0.00    +0.048 C 
ATOM      7  O   UNL     1       3.699  -2.807   0.927  0.00  0.00    -0.346 OA
ATOM      8  C   UNL     1       4.372  -3.907   0.269  0.00  0.00    +0.191 C 
ATOM      9  C   UNL     1       4.701  -3.293  -1.115  0.00  0.00    +0.191 C 
ATOM     10  O   UNL     1       3.562  -2.449  -1.376  0.00  0.00    -0.346 OA
ENDROOT
BRANCH   6  11
ATOM     11  N   UNL     1      -0.668  -2.516  -1.208  0.00  0.00    -0.293 NA
ATOM     12  C   UNL     1      -1.564  -1.629  -1.982  0.00  0.00    +0.113 C 
ATOM     13  C   UNL     1      -2.986  -2.179  -2.034  0.00  0.00    +0.175 C 
ATOM     14  O   UNL     1      -3.007  -3.557  -2.449  0.00  0.00    -0.374 OA
ATOM     15  C   UNL     1      -2.195  -4.349  -1.601  0.00  0.00    +0.135 C 
ATOM     16  C   UNL     1      -0.736  -3.848  -1.789  0.00  0.00    +0.086 C 
ATOM     17  C   UNL     1       0.097  -4.938  -1.123  0.00  0.00    +0.021 C 
ATOM     18  C   UNL     1      -0.728  -6.239  -1.279  0.00  0.00    +0.004 C 
ATOM     19  C   UNL     1      -2.076  -5.835  -1.952  0.00  0.00    +0.033 C 
ENDBRANCH   6  11
BRANCH   1  21
ATOM     20  C   UNL     1      -0.059   1.236   0.503  0.00  0.00    -0.100 C 
ATOM     21  N   UNL     1       0.082  -0.216   0.332  0.00  0.00    +0.380 N 
ATOM     22  H   UNL     1       0.666  -0.586   1.066  0.00  0.00    -0.086 HD
ATOM     23  H   UNL     1      -0.828  -0.650   0.374  0.00  0.00    -0.086 HD
ENDBRANCH   1  21
TORSDOF 2
