REMARK  Name = ZINC09491389
REMARK  8 active torsions:
REMARK  status: ('A' for Active; 'I' for Inactive)
REMARK    1  A    between atoms: C_1  and  C_2
REMARK    2  A    between atoms: C_5  and  N_9
REMARK    3  A    between atoms: C_6  and  C_8
REMARK    4  A    between atoms: C_10  and  C_29
REMARK    5  A    between atoms: C_13  and  S_14
REMARK    6  A    between atoms: S_14  and  C_15
REMARK    7  A    between atoms: C_15  and  C_16
REMARK    8  A    between atoms: C_29  and  C_30
REMARK                            x       y       z     vdW  Elec       q    Type
REMARK                         _______ _______ _______ _____ _____    ______ ____
ROOT
ATOM      1  N   UNL     1       3.663   3.398  -2.199  0.00  0.00    -0.274 N 
ATOM      2  C   UNL     1       2.869   4.201  -1.424  0.00  0.00    +0.143 A 
ATOM      3  N   UNL     1       2.547   5.238  -2.144  0.00  0.00    -0.133 NA
ATOM      4  N   UNL     1       3.073   5.146  -3.313  0.00  0.00    -0.122 NA
ATOM      5  C   UNL     1       3.766   4.035  -3.405  0.00  0.00    +0.197 A 
ENDROOT
BRANCH   1  10
ATOM      6  C   UNL     1       6.025  -1.547  -0.719  0.00  0.00    +0.044 C 
ATOM      7  C   UNL     1       5.398  -0.234  -1.112  0.00  0.00    -0.050 A 
ATOM      8  C   UNL     1       4.140  -0.214  -1.686  0.00  0.00    +0.005 A 
ATOM      9  C   UNL     1       3.560   0.988  -2.041  0.00  0.00    +0.027 A 
ATOM     10  C   UNL     1       4.247   2.176  -1.834  0.00  0.00    +0.053 A 
ATOM     11  C   UNL     1       5.510   2.154  -1.259  0.00  0.00    -0.026 A 
ATOM     12  C   UNL     1       6.082   0.949  -0.900  0.00  0.00    +0.008 A 
ATOM     13  C   UNL     1       6.256   3.442  -1.025  0.00  0.00    +0.046 C 
ENDBRANCH   1  10
BRANCH   5  14
ATOM     14  S   UNL     1       4.666   3.476  -4.813  0.00  0.00    -0.076 S 
BRANCH  14  15
ATOM     15  C   UNL     1       4.328   4.833  -5.962  0.00  0.00    +0.173 C 
BRANCH  15  16
ATOM     16  C   UNL     1       5.018   4.563  -7.275  0.00  0.00    +0.231 C 
ATOM     17  O   UNL     1       5.673   3.553  -7.419  0.00  0.00    -0.274 OA
ATOM     18  N   UNL     1       4.906   5.445  -8.288  0.00  0.00    -0.260 N 
ATOM     19  C   UNL     1       4.112   6.674  -8.141  0.00  0.00    +0.209 C 
ATOM     20  C   UNL     1       3.319   6.905  -9.397  0.00  0.00    +0.235 C 
ATOM     21  O   UNL     1       2.260   7.492  -9.336  0.00  0.00    -0.274 OA
ATOM     22  N   UNL     1       3.768   6.464 -10.587  0.00  0.00    -0.283 N 
ATOM     23  C   UNL     1       4.962   5.740 -10.678  0.00  0.00    +0.055 A 
ATOM     24  C   UNL     1       5.539   5.216  -9.520  0.00  0.00    +0.058 A 
ATOM     25  C   UNL     1       6.712   4.488  -9.596  0.00  0.00    +0.025 A 
ATOM     26  C   UNL     1       7.315   4.283 -10.825  0.00  0.00    +0.002 A 
ATOM     27  C   UNL     1       6.747   4.804 -11.973  0.00  0.00    +0.002 A 
ATOM     28  C   UNL     1       5.573   5.532 -11.904  0.00  0.00    +0.025 A 
ATOM     29  H   UNL     1       3.257   6.650 -11.391  0.00  0.00    +0.155 HD
ENDBRANCH  15  16
ENDBRANCH  14  15
ENDBRANCH   5  14
BRANCH   2  30
ATOM     30  C   UNL     1       2.451   3.937  -0.001  0.00  0.00    +0.111 C 
BRANCH  30  31
ATOM     31  C   UNL     1       1.156   3.165   0.008  0.00  0.00    -0.040 A 
ATOM     32  C   UNL     1       1.175   1.783   0.000  0.00  0.00    +0.004 A 
ATOM     33  C   UNL     1      -0.013   1.076   0.008  0.00  0.00    +0.000 A 
ATOM     34  C   UNL     1      -1.219   1.751   0.017  0.00  0.00    +0.000 A 
ATOM     35  C   UNL     1      -1.238   3.133   0.030  0.00  0.00    +0.000 A 
ATOM     36  C   UNL     1      -0.050   3.840   0.023  0.00  0.00    +0.004 A 
ENDBRANCH  30  31
ENDBRANCH   2  30
TORSDOF 6
