REMARK  Name = ZINC39422060
REMARK  14 active torsions:
REMARK  status: ('A' for Active; 'I' for Inactive)
REMARK    1  A    between atoms: C_1  and  C_2
REMARK    2  A    between atoms: C_2  and  C_35
REMARK    3  A    between atoms: C_4  and  N_10
REMARK    4  A    between atoms: C_6  and  C_8
REMARK    5  A    between atoms: C_6  and  C_9
REMARK    6  A    between atoms: N_10  and  C_11
REMARK    7  A    between atoms: N_10  and  C_21
REMARK    8  A    between atoms: C_11  and  C_12
REMARK    9  A    between atoms: C_15  and  N_18
REMARK   10  A    between atoms: N_18  and  C_19
REMARK   11  A    between atoms: N_18  and  C_20
REMARK   12  A    between atoms: C_21  and  N_23
REMARK   13  A    between atoms: N_23  and  C_24
REMARK   14  A    between atoms: C_27  and  C_31
REMARK                            x       y       z     vdW  Elec       q    Type
REMARK                         _______ _______ _______ _____ _____    ______ ____
ROOT
ATOM      1  N   UNL     1      -2.860  -2.431   0.174  0.00  0.00    -0.305 N 
ENDROOT
BRANCH   1   5
ATOM      2  C   UNL     1       1.818  -3.922   0.219  0.00  0.00    -0.010 C 
ATOM      3  C   UNL     1       0.928  -2.657   0.210  0.00  0.00    -0.072 C 
ATOM      4  C   UNL     1      -0.520  -3.118   0.337  0.00  0.00    +0.009 C 
ATOM      5  C   UNL     1      -1.475  -1.953   0.077  0.00  0.00    +0.073 C 
ATOM      6  C   UNL     1      -1.219  -1.434  -1.338  0.00  0.00    +0.009 C 
ATOM      7  C   UNL     1       0.224  -0.960  -1.477  0.00  0.00    -0.072 C 
ATOM      8  N   UNL     1       1.197  -1.937  -1.022  0.00  0.00    +0.386 N 
ATOM      9  C   UNL     1       0.401   0.380  -0.755  0.00  0.00    -0.010 C 
ATOM     10  C   UNL     1       0.483  -0.703  -2.980  0.00  0.00    -0.010 C 
ATOM     11  C   UNL     1       1.317  -1.826   1.437  0.00  0.00    -0.010 C 
ATOM     12  H   UNL     1       2.103  -1.468  -0.929  0.00  0.00    -0.084 HD
ATOM     13  H   UNL     1       1.335  -2.624  -1.771  0.00  0.00    -0.084 HD
ENDBRANCH   1   5
BRANCH   1  14
ATOM     14  C   UNL     1      -3.655  -1.993   1.170  0.00  0.00    +0.138 C 
ATOM     15  S   UNL     1      -5.238  -2.622   1.341  0.00  0.00    -0.018 S 
BRANCH  14  16
ATOM     16  N   UNL     1      -3.204  -1.060   2.032  0.00  0.00    -0.296 N 
ATOM     17  H   UNL     1      -2.890  -1.323   2.911  0.00  0.00    +0.154 HD
BRANCH  16  18
ATOM     18  C   UNL     1      -3.189   0.289   1.659  0.00  0.00    +0.051 A 
ATOM     19  C   UNL     1      -3.743   0.682   0.448  0.00  0.00    +0.025 A 
ATOM     20  C   UNL     1      -3.726   2.013   0.082  0.00  0.00    +0.014 A 
ATOM     21  C   UNL     1      -3.159   2.956   0.920  0.00  0.00    +0.056 A 
ATOM     22  C   UNL     1      -2.606   2.569   2.127  0.00  0.00    +0.034 A 
ATOM     23  C   UNL     1      -2.625   1.238   2.502  0.00  0.00    +0.063 A 
ATOM     24 CL   UNL     1      -1.938   0.754   4.021  0.00  0.00    -0.082 Cl
BRANCH  21  25
ATOM     25  C   UNL     1      -3.143   4.408   0.517  0.00  0.00    +0.417 C 
ATOM     26  F   UNL     1      -4.304   5.034   0.983  0.00  0.00    -0.166 F 
ATOM     27  F   UNL     1      -2.022   5.033   1.072  0.00  0.00    -0.166 F 
ATOM     28  F   UNL     1      -3.089   4.504  -0.877  0.00  0.00    -0.166 F 
ENDBRANCH  21  25
ENDBRANCH  16  18
ENDBRANCH  14  16
ENDBRANCH   1  14
BRANCH   1  29
ATOM     29  C   UNL     1      -3.377  -3.383  -0.811  0.00  0.00    +0.142 C 
BRANCH  29  30
ATOM     30  C   UNL     1      -3.181  -4.788  -0.303  0.00  0.00    -0.030 A 
ATOM     31  C   UNL     1      -2.082  -5.523  -0.712  0.00  0.00    +0.007 A 
ATOM     32  C   UNL     1      -1.899  -6.811  -0.248  0.00  0.00    +0.023 A 
ATOM     33  C   UNL     1      -2.820  -7.368   0.630  0.00  0.00    +0.029 A 
ATOM     34  C   UNL     1      -3.922  -6.628   1.039  0.00  0.00    +0.023 A 
ATOM     35  C   UNL     1      -4.096  -5.338   0.576  0.00  0.00    +0.007 A 
BRANCH  33  36
ATOM     36  N   UNL     1      -2.639  -8.671   1.101  0.00  0.00    -0.336 N 
ATOM     37  C   UNL     1      -1.476  -9.450   0.669  0.00  0.00    +0.129 C 
ATOM     38  C   UNL     1      -3.611  -9.257   2.027  0.00  0.00    +0.129 C 
ENDBRANCH  33  36
ENDBRANCH  29  30
ENDBRANCH   1  29
TORSDOF 8
