REMARK  Name = ZINC03267065
REMARK  8 active torsions:
REMARK  status: ('A' for Active; 'I' for Inactive)
REMARK    1  A    between atoms: C_2  and  C_3
REMARK    2  A    between atoms: C_3  and  N_4
REMARK    3  A    between atoms: C_13  and  S_14
REMARK    4  A    between atoms: S_14  and  C_15
REMARK    5  A    between atoms: C_15  and  C_16
REMARK    6  A    between atoms: N_18  and  C_19
REMARK    7  A    between atoms: C_20  and  C_30
REMARK    8  A    between atoms: C_22  and  C_24
REMARK                            x       y       z     vdW  Elec       q    Type
REMARK                         _______ _______ _______ _____ _____    ______ ____
ROOT
ATOM      1  C   UNL     1       4.101   7.146  -0.003  0.00  0.00    +0.228 C 
ATOM      2  O   UNL     1       5.308   7.265  -0.015  0.00  0.00    -0.275 OA
ATOM      3  N   UNL     1       3.316   8.241   0.010  0.00  0.00    -0.279 N 
ATOM      4  H   UNL     1       2.350   8.146   0.019  0.00  0.00    +0.155 HD
ENDROOT
BRANCH   3   5
ATOM      5  C   UNL     1       3.887   9.502   0.010  0.00  0.00    +0.084 A 
ATOM      6  C   UNL     1       3.252  10.743   0.017  0.00  0.00    +0.066 A 
ATOM      7  C   UNL     1       4.058  11.882   0.019  0.00  0.00    +0.031 A 
ATOM      8  C   UNL     1       5.407  11.703   0.004  0.00  0.00    +0.022 A 
ATOM      9  S   UNL     1       5.567   9.927  -0.005  0.00  0.00    -0.073 S 
BRANCH   8  10
ATOM     10  C   UNL     1       6.473  12.726  -0.002  0.00  0.00    -0.011 A 
ATOM     11  C   UNL     1       6.144  14.082   0.002  0.00  0.00    +0.009 A 
ATOM     12  C   UNL     1       7.144  15.032   0.003  0.00  0.00    +0.001 A 
ATOM     13  C   UNL     1       8.472  14.642  -0.013  0.00  0.00    +0.000 A 
ATOM     14  C   UNL     1       8.805  13.300  -0.023  0.00  0.00    +0.001 A 
ATOM     15  C   UNL     1       7.815  12.339  -0.017  0.00  0.00    +0.009 A 
ENDBRANCH   8  10
BRANCH   6  16
ATOM     16  C   UNL     1       1.789  10.847   0.025  0.00  0.00    +0.244 C 
ATOM     17  O   UNL     1       1.107   9.839   0.026  0.00  0.00    -0.270 OA
ATOM     18  N   UNL     1       1.200  12.059   0.031  0.00  0.00    -0.325 N 
ATOM     19  H   UNL     1       1.744  12.863   0.030  0.00  0.00    +0.145 HD
ATOM     20  H   UNL     1       0.233  12.128   0.036  0.00  0.00    +0.145 HD
ENDBRANCH   6  16
ENDBRANCH   3   5
BRANCH   1  21
ATOM     21  C   UNL     1       3.479   5.773  -0.003  0.00  0.00    +0.173 C 
BRANCH  21  22
ATOM     22  S   UNL     1       4.785   4.519  -0.022  0.00  0.00    -0.078 S 
BRANCH  22  32
ATOM     23  N   UNL     1       4.416   1.836  -0.031  0.00  0.00    -0.283 N 
ATOM     24  C   UNL     1       3.700   0.696  -0.030  0.00  0.00    +0.263 A 
ATOM     25  O   UNL     1       4.260  -0.387  -0.041  0.00  0.00    -0.267 OA
ATOM     26  C   UNL     1       2.272   0.775  -0.016  0.00  0.00    +0.076 A 
ATOM     27  C   UNL     1       1.303  -0.334  -0.013  0.00  0.00    -0.023 A 
ATOM     28  C   UNL     1       0.002  -0.004   0.002  0.00  0.00    -0.004 A 
ATOM     29  S   UNL     1      -0.022   1.774   0.012  0.00  0.00    -0.073 S 
ATOM     30  C   UNL     1       1.727   2.067  -0.003  0.00  0.00    +0.117 A 
ATOM     31  N   UNL     1       2.489   3.155  -0.006  0.00  0.00    -0.216 NA
ATOM     32  C   UNL     1       3.804   3.055  -0.019  0.00  0.00    +0.173 A 
ATOM     33  C   UNL     1      -0.892  -1.215   0.007  0.00  0.00    +0.043 C 
ATOM     34  C   UNL     1       0.034  -2.377   0.430  0.00  0.00    +0.010 C 
ATOM     35  C   UNL     1       1.413  -1.862  -0.026  0.00  0.00    +0.037 C 
BRANCH  23  36
ATOM     36  C   UNL     1       5.879   1.766  -0.045  0.00  0.00    +0.154 C 
BRANCH  36  38
ATOM     37  C   UNL     1       7.238   2.640  -1.876  0.00  0.00    +0.005 C 
ATOM     38  C   UNL     1       6.367   1.749  -1.471  0.00  0.00    -0.013 C 
ENDBRANCH  36  38
ENDBRANCH  23  36
ENDBRANCH  22  32
ENDBRANCH  21  22
ENDBRANCH   1  21
TORSDOF 8
