REMARK  Name = ZINC02435762
REMARK  8 active torsions:
REMARK  status: ('A' for Active; 'I' for Inactive)
REMARK    1  A    between atoms: C_1  and  C_2
REMARK    2  A    between atoms: N_8  and  C_9
REMARK    3  A    between atoms: C_9  and  C_10
REMARK    4  A    between atoms: C_19  and  C_29
REMARK    5  A    between atoms: C_21  and  C_25
REMARK    6  A    between atoms: C_22  and  N_24
REMARK    7  A    between atoms: C_25  and  O_27
REMARK    8  A    between atoms: O_27  and  C_28
REMARK                            x       y       z     vdW  Elec       q    Type
REMARK                         _______ _______ _______ _____ _____    ______ ____
ROOT
ATOM      1  C   UNL     1      -2.597   1.816  -0.133  0.00  0.00    +0.064 C 
ATOM      2  C   UNL     1      -1.999   2.053   1.230  0.00  0.00    +0.023 A 
ATOM      3  C   UNL     1      -2.585   2.932   2.071  0.00  0.00    +0.068 A 
ATOM      4  C   UNL     1      -2.027   3.162   3.345  0.00  0.00    +0.141 A 
ATOM      5  C   UNL     1      -0.889   2.474   3.709  0.00  0.00    +0.071 A 
ATOM      6  C   UNL     1      -0.318   1.568   2.806  0.00  0.00    +0.259 A 
ATOM      7  O   UNL     1       0.690   0.952   3.115  0.00  0.00    -0.267 OA
ATOM      8  N   UNL     1      -0.880   1.375   1.598  0.00  0.00    -0.308 N 
ATOM      9  C   UNL     1      -0.260   2.688   5.059  0.00  0.00    +0.100 C 
ATOM     10  C   UNL     1      -0.783   3.953   5.680  0.00  0.00    +0.105 C 
ATOM     11  C   UNL     1      -1.910   4.550   5.216  0.00  0.00    +0.195 C 
ATOM     12  O   UNL     1      -2.608   4.044   4.186  0.00  0.00    -0.441 OA
ENDROOT
BRANCH   9  13
ATOM     13  C   UNL     1      -0.587   1.520   5.953  0.00  0.00    -0.034 A 
ATOM     14  C   UNL     1       0.431   0.750   6.485  0.00  0.00    +0.004 A 
ATOM     15  C   UNL     1       0.131  -0.321   7.305  0.00  0.00    +0.002 A 
ATOM     16  C   UNL     1      -1.187  -0.624   7.594  0.00  0.00    +0.020 A 
ATOM     17  C   UNL     1      -2.205   0.146   7.062  0.00  0.00    +0.041 A 
ATOM     18  C   UNL     1      -1.905   1.222   6.245  0.00  0.00    +0.024 A 
ATOM     19 CL   UNL     1      -3.860  -0.233   7.423  0.00  0.00    -0.084 Cl
ENDBRANCH   9  13
BRANCH  11  20
ATOM     20  N   UNL     1      -2.348   5.700   5.815  0.00  0.00    -0.329 N 
ATOM     21  H   UNL     1      -3.296   5.837   5.967  0.00  0.00    +0.145 HD
ATOM     22  H   UNL     1      -1.710   6.378   6.087  0.00  0.00    +0.145 HD
ENDBRANCH  11  20
BRANCH  10  23
ATOM     23  C   UNL     1      -0.094   4.527   6.759  0.00  0.00    +0.341 C 
ATOM     24  O   UNL     1      -0.564   5.490   7.338  0.00  0.00    -0.245 OA
BRANCH  23  25
ATOM     25  O   UNL     1       1.089   4.011   7.156  0.00  0.00    -0.465 OA
ATOM     26  C   UNL     1       1.736   4.645   8.261  0.00  0.00    +0.280 C 
ENDBRANCH  23  25
ENDBRANCH  10  23
BRANCH   8  27
ATOM     27  C   UNL     1      -0.273   0.424   0.664  0.00  0.00    +0.160 C 
BRANCH  27  28
ATOM     28  C   UNL     1      -0.892  -0.936   0.859  0.00  0.00    -0.024 A 
ATOM     29  C   UNL     1      -2.014  -1.293   0.133  0.00  0.00    +0.009 A 
ATOM     30  C   UNL     1      -2.585  -2.540   0.308  0.00  0.00    +0.050 A 
ATOM     31  C   UNL     1      -2.034  -3.435   1.211  0.00  0.00    +0.166 A 
ATOM     32  C   UNL     1      -0.905  -3.075   1.941  0.00  0.00    +0.167 A 
ATOM     33  C   UNL     1      -0.335  -1.825   1.758  0.00  0.00    +0.055 A 
ATOM     34  O   UNL     1      -0.559  -4.117   2.753  0.00  0.00    -0.453 OA
ATOM     35  C   UNL     1      -1.724  -4.961   2.811  0.00  0.00    +0.466 C 
ATOM     36  O   UNL     1      -2.397  -4.702   1.565  0.00  0.00    -0.453 OA
ENDBRANCH  27  28
ENDBRANCH   8  27
TORSDOF 6
