REMARK  Name = ZINC38550256
REMARK  6 active torsions:
REMARK  status: ('A' for Active; 'I' for Inactive)
REMARK    1  A    between atoms: C_1  and  O_2
REMARK    2  A    between atoms: O_2  and  C_3
REMARK    3  A    between atoms: C_3  and  C_5
REMARK    4  A    between atoms: C_7  and  N_16
REMARK    5  A    between atoms: C_17  and  C_19
REMARK    6  A    between atoms: C_19  and  N_20
REMARK                            x       y       z     vdW  Elec       q    Type
REMARK                         _______ _______ _______ _____ _____    ______ ____
ROOT
ATOM      1  N   UNL     1      -2.040  -2.488  -1.235  0.00  0.00    -0.288 N 
ATOM      2  C   UNL     1      -3.048  -3.141  -1.845  0.00  0.00    +0.200 C 
ATOM      3  O   UNL     1      -2.811  -3.921  -2.743  0.00  0.00    -0.278 OA
ATOM      4  H   UNL     1      -2.221  -1.927  -0.464  0.00  0.00    +0.155 HD
ENDROOT
BRANCH   1   6
ATOM      5  C   UNL     1      -0.278  -3.556  -2.780  0.00  0.00    +0.234 C 
ATOM      6  C   UNL     1      -0.765  -2.616  -1.699  0.00  0.00    +0.053 C 
ATOM      7  C   UNL     1       0.351  -1.913  -1.281  0.00  0.00    +0.019 A 
ATOM      8  C   UNL     1       0.534  -0.903  -0.306  0.00  0.00    +0.026 A 
ATOM      9  C   UNL     1       1.769  -0.380  -0.103  0.00  0.00    +0.019 A 
ATOM     10  C   UNL     1       2.878  -0.815  -0.835  0.00  0.00    +0.017 A 
ATOM     11  C   UNL     1       2.777  -1.777  -1.783  0.00  0.00    +0.027 A 
ATOM     12  C   UNL     1       1.518  -2.372  -2.054  0.00  0.00    +0.045 A 
ATOM     13  N   UNL     1       1.162  -3.310  -2.912  0.00  0.00    -0.367 N 
ATOM     14 BR   UNL     1       1.996   0.968   1.203  0.00  0.00    -0.050 Br
ATOM     15  H   UNL     1       1.756  -3.764  -3.529  0.00  0.00    +0.161 HD
BRANCH   5  16
ATOM     16  C   UNL     1      -0.525  -4.986  -2.374  0.00  0.00    +0.335 C 
ATOM     17  O   UNL     1       0.191  -5.515  -1.557  0.00  0.00    -0.248 OA
BRANCH  16  19
ATOM     18  C   UNL     1      -1.716  -7.024  -2.490  0.00  0.00    +0.280 C 
ATOM     19  O   UNL     1      -1.541  -5.673  -2.921  0.00  0.00    -0.466 OA
ENDBRANCH  16  19
ENDBRANCH   5  16
ENDBRANCH   1   6
BRANCH   2  20
ATOM     20  C   UNL     1      -4.472  -2.902  -1.413  0.00  0.00    +0.019 C 
BRANCH  20  21
ATOM     21  N   UNL     1      -5.376  -3.725  -2.226  0.00  0.00    +0.386 N 
ATOM     22  C   UNL     1      -6.745  -3.590  -1.722  0.00  0.00    -0.073 C 
ATOM     23  C   UNL     1      -7.718  -4.427  -2.539  0.00  0.00    -0.007 C 
ATOM     24  C   UNL     1      -7.643  -4.051  -4.022  0.00  0.00    +0.011 C 
ATOM     25  C   UNL     1      -6.186  -4.229  -4.467  0.00  0.00    +0.020 C 
ATOM     26  C   UNL     1      -5.314  -3.282  -3.627  0.00  0.00    -0.069 C 
ATOM     27  C   UNL     1      -5.751  -5.647  -4.173  0.00  0.00    +0.023 A 
ATOM     28  C   UNL     1      -4.793  -6.188  -4.972  0.00  0.00    +0.022 A 
ATOM     29  C   UNL     1      -4.297  -7.472  -4.719  0.00  0.00    +0.007 A 
ATOM     30  C   UNL     1      -4.773  -8.161  -3.642  0.00  0.00    +0.070 A 
ATOM     31  C   UNL     1      -5.758  -7.572  -2.836  0.00  0.00    +0.251 A 
ATOM     32  O   UNL     1      -6.146  -8.153  -1.835  0.00  0.00    -0.268 OA
ATOM     33  N   UNL     1      -6.283  -6.364  -3.157  0.00  0.00    -0.312 N 
ATOM     34  C   UNL     1      -7.443  -5.914  -2.393  0.00  0.00    +0.126 C 
ATOM     35  H   UNL     1      -5.093  -4.692  -2.168  0.00  0.00    -0.081 HD
ENDBRANCH  20  21
ENDBRANCH   2  20
TORSDOF 5
