REMARK  Name = ZINC02573641
REMARK  6 active torsions:
REMARK  status: ('A' for Active; 'I' for Inactive)
REMARK    1  A    between atoms: C_1  and  C_2
REMARK    2  A    between atoms: C_2  and  C_30
REMARK    3  A    between atoms: C_6  and  C_20
REMARK    4  A    between atoms: C_8  and  C_18
REMARK    5  A    between atoms: C_9  and  N_17
REMARK    6  A    between atoms: N_10  and  C_11
REMARK                            x       y       z     vdW  Elec       q    Type
REMARK                         _______ _______ _______ _____ _____    ______ ____
ROOT
ATOM      1  C   UNL     1       2.021   2.097  -3.689  0.00  0.00    +0.011 C 
ATOM      2  C   UNL     1       3.335   2.259  -2.922  0.00  0.00    -0.023 C 
ATOM      3  C   UNL     1       3.042   2.703  -1.488  0.00  0.00    +0.058 C 
ATOM      4  C   UNL     1       2.217   1.649  -0.789  0.00  0.00    +0.025 C 
ATOM      5  C   UNL     1       2.342   0.344  -1.109  0.00  0.00    +0.025 C 
ATOM      6  C   UNL     1       1.528  -0.709  -0.400  0.00  0.00    +0.097 C 
ATOM      7  C   UNL     1       0.347  -0.101   0.297  0.00  0.00    +0.077 C 
ATOM      8  C   UNL     1       0.295   1.231   0.559  0.00  0.00    +0.107 C 
ATOM      9  N   UNL     1       1.333   2.050   0.177  0.00  0.00    -0.260 N 
ATOM     10  C   UNL     1       3.234  -0.074  -2.112  0.00  0.00    +0.162 C 
ATOM     11  O   UNL     1       3.330  -1.258  -2.368  0.00  0.00    -0.292 OA
ATOM     12  C   UNL     1       4.071   0.916  -2.874  0.00  0.00    +0.086 C 
ATOM     13  C   UNL     1       4.210   3.305  -3.616  0.00  0.00    +0.011 C 
ENDROOT
BRANCH   6  14
ATOM     14  C   UNL     1       2.397  -1.405   0.615  0.00  0.00    -0.035 A 
ATOM     15  C   UNL     1       2.956  -0.687   1.655  0.00  0.00    +0.006 A 
ATOM     16  C   UNL     1       3.748  -1.326   2.590  0.00  0.00    +0.020 A 
ATOM     17  C   UNL     1       3.991  -2.684   2.478  0.00  0.00    +0.041 A 
ATOM     18  C   UNL     1       3.435  -3.401   1.433  0.00  0.00    +0.020 A 
ATOM     19  C   UNL     1       2.639  -2.762   0.503  0.00  0.00    +0.006 A 
ATOM     20 CL   UNL     1       4.992  -3.486   3.647  0.00  0.00    -0.084 Cl
ENDBRANCH   6  14
BRANCH   9  21
ATOM     21  C   UNL     1       1.486   3.304   0.782  0.00  0.00    +0.040 A 
ATOM     22  C   UNL     1       0.818   4.409   0.271  0.00  0.00    +0.024 A 
ATOM     23  C   UNL     1       0.968   5.643   0.872  0.00  0.00    +0.002 A 
ATOM     24  C   UNL     1       1.790   5.781   1.976  0.00  0.00    +0.000 A 
ATOM     25  C   UNL     1       2.460   4.684   2.484  0.00  0.00    +0.002 A 
ATOM     26  C   UNL     1       2.311   3.446   1.890  0.00  0.00    +0.024 A 
ENDBRANCH   9  21
BRANCH   8  27
ATOM     27  N   UNL     1      -0.798   1.762   1.201  0.00  0.00    -0.345 N 
ATOM     28  H   UNL     1      -1.487   1.175   1.550  0.00  0.00    +0.144 HD
ATOM     29  H   UNL     1      -0.880   2.723   1.306  0.00  0.00    +0.144 HD
ENDBRANCH   8  27
BRANCH   7  30
ATOM     30  C   UNL     1      -0.745  -0.939   0.694  0.00  0.00    +0.099 C 
ATOM     31  N   UNL     1      -1.610  -1.604   1.009  0.00  0.00    -0.191 NA
ENDBRANCH   7  30
TORSDOF 4
