REMARK  Name = ZINC40796793
REMARK  5 active torsions:
REMARK  status: ('A' for Active; 'I' for Inactive)
REMARK    1  A    between atoms: C_4  and  C_7
REMARK    2  A    between atoms: C_7  and  N_8
REMARK    3  A    between atoms: C_16  and  N_33
REMARK    4  A    between atoms: C_17  and  O_21
REMARK    5  A    between atoms: O_21  and  C_22
REMARK                            x       y       z     vdW  Elec       q    Type
REMARK                         _______ _______ _______ _____ _____    ______ ____
ROOT
ATOM      1  N   UNL     1       4.007  -0.865   1.445  0.00  0.00    -0.264 N 
ATOM      2  C   UNL     1       2.624  -0.865   1.602  0.00  0.00    +0.127 A 
ATOM      3  C   UNL     1       1.854  -1.808   0.931  0.00  0.00    +0.044 A 
ATOM      4  C   UNL     1       0.480  -1.796   1.096  0.00  0.00    +0.005 A 
ATOM      5  C   UNL     1      -0.078  -0.837   1.930  0.00  0.00    +0.020 A 
ATOM      6  C   UNL     1       0.747   0.070   2.566  0.00  0.00    +0.113 A 
ATOM      7  N   UNL     1       2.054   0.031   2.393  0.00  0.00    -0.240 NA
ATOM      8  C   UNL     1       4.798  -0.046   2.243  0.00  0.00    +0.155 A 
ATOM      9  C   UNL     1       5.370  -0.540   3.419  0.00  0.00    +0.128 A 
ATOM     10  C   UNL     1       6.155   0.323   4.182  0.00  0.00    +0.246 A 
ATOM     11  N   UNL     1       6.328   1.574   3.766  0.00  0.00    -0.199 NA
ATOM     12  C   UNL     1       5.771   2.001   2.652  0.00  0.00    +0.227 A 
ATOM     13  N   UNL     1       5.026   1.218   1.898  0.00  0.00    -0.218 NA
ENDROOT
BRANCH   9  14
ATOM     14  N   UNL     1       5.161  -1.868   3.820  0.00  0.00    -0.351 N 
ATOM     15  H   UNL     1       4.676  -2.479   3.242  0.00  0.00    +0.143 HD
ATOM     16  H   UNL     1       5.500  -2.176   4.675  0.00  0.00    +0.143 HD
ENDBRANCH   9  14
BRANCH   1  17
ATOM     17  C   UNL     1       4.629  -1.729   0.438  0.00  0.00    +0.149 C 
BRANCH  17  21
ATOM     18  C   UNL     1       4.927   0.383  -3.264  0.00  0.00    +0.000 A 
ATOM     19  C   UNL     1       5.958   0.449  -2.345  0.00  0.00    +0.000 A 
ATOM     20  C   UNL     1       5.862  -0.235  -1.147  0.00  0.00    +0.005 A 
ATOM     21  C   UNL     1       4.734  -0.983  -0.868  0.00  0.00    -0.030 A 
ATOM     22  C   UNL     1       3.702  -1.048  -1.785  0.00  0.00    +0.005 A 
ATOM     23  C   UNL     1       3.799  -0.366  -2.984  0.00  0.00    +0.000 A 
ENDBRANCH  17  21
ENDBRANCH   1  17
BRANCH  10  24
ATOM     24  O   UNL     1       6.733  -0.107   5.332  0.00  0.00    -0.434 OA
BRANCH  24  25
ATOM     25  C   UNL     1       7.572   0.742   5.980  0.00  0.00    +0.156 A 
ATOM     26  C   UNL     1       8.928   0.683   5.753  0.00  0.00    +0.049 A 
ATOM     27  C   UNL     1       9.800   1.547   6.410  0.00  0.00    +0.019 A 
ATOM     28  C   UNL     1       9.335   2.474   7.294  0.00  0.00    +0.027 A 
ATOM     29  C   UNL     1       7.957   2.564   7.551  0.00  0.00    +0.018 A 
ATOM     30  C   UNL     1       7.059   1.694   6.885  0.00  0.00    +0.114 A 
ATOM     31  N   UNL     1       5.747   1.782   7.123  0.00  0.00    -0.251 NA
ATOM     32  C   UNL     1       5.264   2.664   7.963  0.00  0.00    +0.111 A 
ATOM     33  C   UNL     1       6.091   3.553   8.648  0.00  0.00    +0.020 A 
ATOM     34  C   UNL     1       7.443   3.510   8.458  0.00  0.00    +0.013 A 
ATOM     35 BR   UNL     1      10.541   3.635   8.173  0.00  0.00    -0.050 Br
ENDBRANCH  24  25
ENDBRANCH  10  24
TORSDOF 5
