REMARK  Name = ZINC12204618
REMARK  8 active torsions:
REMARK  status: ('A' for Active; 'I' for Inactive)
REMARK    1  A    between atoms: C_1  and  C_2
REMARK    2  A    between atoms: C_2  and  C_3
REMARK    3  A    between atoms: C_11  and  C_31
REMARK    4  A    between atoms: C_12  and  C_13
REMARK    5  A    between atoms: C_13  and  C_14
REMARK    6  A    between atoms: N_16  and  C_17
REMARK    7  A    between atoms: C_24  and  C_30
REMARK    8  A    between atoms: C_27  and  C_29
REMARK                            x       y       z     vdW  Elec       q    Type
REMARK                         _______ _______ _______ _____ _____    ______ ____
ROOT
ATOM      1  C   UNL     1      -3.732   3.994   0.172  0.00  0.00    +0.222 C 
ATOM      2  O   UNL     1      -3.869   2.792   0.079  0.00  0.00    -0.275 OA
ATOM      3  N   UNL     1      -2.502   4.522   0.326  0.00  0.00    -0.285 N 
ATOM      4  H   UNL     1      -2.398   5.475   0.471  0.00  0.00    +0.155 HD
ENDROOT
BRANCH   3   5
ATOM      5  C   UNL     1      -1.373   3.694   0.277  0.00  0.00    +0.034 A 
ATOM      6  C   UNL     1      -1.355   2.588  -0.564  0.00  0.00    +0.025 A 
ATOM      7  C   UNL     1      -0.246   1.771  -0.609  0.00  0.00    +0.025 A 
ATOM      8  C   UNL     1       0.870   2.052   0.182  0.00  0.00    +0.040 A 
ATOM      9  C   UNL     1       0.847   3.159   1.015  0.00  0.00    -0.022 A 
ATOM     10  C   UNL     1      -0.266   3.976   1.065  0.00  0.00    +0.028 A 
ATOM     11  C   UNL     1       2.165   3.235   1.752  0.00  0.00    +0.059 C 
ATOM     12  C   UNL     1       2.965   2.026   1.242  0.00  0.00    +0.083 C 
ATOM     13  N   UNL     1       2.084   1.360   0.279  0.00  0.00    -0.268 N 
ATOM     14  C   UNL     1       2.395   0.245  -0.411  0.00  0.00    +0.217 C 
ATOM     15  O   UNL     1       1.560  -0.288  -1.111  0.00  0.00    -0.276 OA
ATOM     16  C   UNL     1       3.781  -0.339  -0.315  0.00  0.00    +0.109 C 
ATOM     17  C   UNL     1       3.298   1.083   2.400  0.00  0.00    +0.029 C 
ENDBRANCH   3   5
BRANCH   1  18
ATOM     18  C   UNL     1      -4.938   4.896   0.115  0.00  0.00    +0.133 C 
BRANCH  18  28
ATOM     19  C   UNL     1      -8.712   2.370  -2.012  0.00  0.00    -0.024 A 
ATOM     20  C   UNL     1      -8.377   2.597  -3.329  0.00  0.00    +0.005 A 
ATOM     21  C   UNL     1      -7.256   3.348  -3.654  0.00  0.00    +0.001 A 
ATOM     22  C   UNL     1      -6.465   3.876  -2.672  0.00  0.00    +0.010 A 
ATOM     23  C   UNL     1      -6.790   3.663  -1.332  0.00  0.00    +0.004 A 
ATOM     24  C   UNL     1      -7.922   2.898  -0.997  0.00  0.00    +0.050 A 
ATOM     25  N   UNL     1      -7.989   2.852   0.378  0.00  0.00    -0.358 N 
ATOM     26  H   UNL     1      -8.674   2.392   0.887  0.00  0.00    +0.166 HD
ATOM     27  C   UNL     1      -6.944   3.551   0.918  0.00  0.00    +0.018 A 
ATOM     28  C   UNL     1      -6.181   4.063  -0.061  0.00  0.00    -0.011 A 
ATOM     29  C   UNL     1      -6.687   3.721   2.393  0.00  0.00    +0.063 C 
BRANCH  19  31
ATOM     30  C   UNL     1     -11.121   2.486  -1.434  0.00  0.00    +0.009 C 
ATOM     31  C   UNL     1      -9.932   1.553  -1.673  0.00  0.00    +0.034 C 
ENDBRANCH  19  31
ENDBRANCH  18  28
ENDBRANCH   1  18
TORSDOF 4
