REMARK  Name = ZINC10048459
REMARK  12 active torsions:
REMARK  status: ('A' for Active; 'I' for Inactive)
REMARK    1  A    between atoms: C_1  and  C_2
REMARK    2  A    between atoms: C_6  and  N_9
REMARK    3  A    between atoms: C_7  and  C_8
REMARK    4  A    between atoms: C_10  and  C_37
REMARK    5  A    between atoms: N_19  and  C_24
REMARK    6  A    between atoms: N_22  and  C_23
REMARK    7  A    between atoms: C_24  and  C_25
REMARK    8  A    between atoms: C_25  and  C_27
REMARK    9  A    between atoms: C_25  and  C_28
REMARK   10  A    between atoms: C_28  and  N_29
REMARK   11  A    between atoms: N_29  and  C_30
REMARK   12  A    between atoms: C_35  and  N_36
REMARK                            x       y       z     vdW  Elec       q    Type
REMARK                         _______ _______ _______ _____ _____    ______ ____
ROOT
ATOM      1  N   UNL     1      -4.628   2.298   0.057  0.00  0.00    -0.282 N 
ATOM      2  C   UNL     1      -4.684   0.916   0.049  0.00  0.00    +0.040 A 
ATOM      3  C   UNL     1      -3.439   0.450   0.035  0.00  0.00    +0.116 A 
ATOM      4  N   UNL     1      -2.570   1.527   0.034  0.00  0.00    -0.277 N 
ATOM      5  C   UNL     1      -3.305   2.663   0.047  0.00  0.00    +0.223 A 
ATOM      6  N   UNL     1      -2.493   3.710   0.046  0.00  0.00    -0.193 NA
ATOM      7  C   UNL     1      -1.227   3.301   0.032  0.00  0.00    +0.170 A 
ATOM      8  C   UNL     1      -1.236   1.907   0.018  0.00  0.00    +0.157 A 
ATOM      9  C   UNL     1      -0.015   1.215   0.009  0.00  0.00    +0.283 A 
ATOM     10  O   UNL     1       0.002  -0.004   0.002  0.00  0.00    -0.265 OA
ATOM     11  N   UNL     1       1.140   1.912   0.001  0.00  0.00    -0.259 N 
ATOM     12  C   UNL     1       1.140   3.256   0.009  0.00  0.00    +0.333 A 
ATOM     13  O   UNL     1       2.201   3.849   0.003  0.00  0.00    -0.246 OA
ATOM     14  N   UNL     1      -0.007   3.961   0.024  0.00  0.00    -0.279 N 
ATOM     15  C   UNL     1       0.034   5.425   0.033  0.00  0.00    +0.155 C 
ATOM     16  C   UNL     1      -5.940   0.083   0.056  0.00  0.00    +0.065 C 
ENDROOT
BRANCH   1  22
ATOM     17  C   UNL     1      -7.919   4.915   2.607  0.00  0.00    +0.044 C 
ATOM     18  C   UNL     1      -7.339   4.453   1.295  0.00  0.00    -0.046 A 
ATOM     19  C   UNL     1      -7.890   4.891   0.104  0.00  0.00    +0.004 A 
ATOM     20  C   UNL     1      -7.361   4.470  -1.102  0.00  0.00    +0.002 A 
ATOM     21  C   UNL     1      -6.277   3.614  -1.121  0.00  0.00    +0.026 A 
ATOM     22  C   UNL     1      -5.724   3.169   0.073  0.00  0.00    +0.053 A 
ATOM     23  C   UNL     1      -6.258   3.594   1.283  0.00  0.00    -0.024 A 
ATOM     24  C   UNL     1      -5.658   3.118   2.581  0.00  0.00    +0.046 C 
ENDBRANCH   1  22
BRANCH  11  25
ATOM     25  C   UNL     1       2.416   1.192  -0.015  0.00  0.00    +0.134 C 
BRANCH  25  26
ATOM     26  C   UNL     1       2.847   0.949  -1.463  0.00  0.00    +0.023 C 
ATOM     27  C   UNL     1       3.130   2.290  -2.142  0.00  0.00    +0.011 C 
BRANCH  26  28
ATOM     28  C   UNL     1       4.113   0.090  -1.481  0.00  0.00    +0.106 C 
BRANCH  28  29
ATOM     29  N   UNL     1       4.457  -0.242  -2.866  0.00  0.00    -0.342 N 
ATOM     30  H   UNL     1       3.904   0.081  -3.594  0.00  0.00    +0.146 HD
BRANCH  29  31
ATOM     31  C   UNL     1       5.585  -1.025  -3.138  0.00  0.00    +0.048 A 
ATOM     32  C   UNL     1       6.381  -1.483  -2.099  0.00  0.00    +0.025 A 
ATOM     33  C   UNL     1       7.492  -2.261  -2.370  0.00  0.00    +0.002 A 
ATOM     34  C   UNL     1       7.819  -2.575  -3.676  0.00  0.00    +0.002 A 
ATOM     35  C   UNL     1       7.034  -2.119  -4.718  0.00  0.00    +0.024 A 
ATOM     36  C   UNL     1       5.915  -1.343  -4.455  0.00  0.00    +0.046 A 
BRANCH  36  37
ATOM     37  N   UNL     1       5.119  -0.879  -5.510  0.00  0.00    -0.357 N 
ATOM     38  H   UNL     1       4.337  -0.336  -5.324  0.00  0.00    +0.142 HD
ATOM     39  H   UNL     1       5.350  -1.101  -6.426  0.00  0.00    +0.142 HD
ENDBRANCH  36  37
ENDBRANCH  29  31
ENDBRANCH  28  29
ENDBRANCH  26  28
ENDBRANCH  25  26
ENDBRANCH  11  25
TORSDOF 7
