REMARK  Name = ZINC63526537
REMARK  9 active torsions:
REMARK  status: ('A' for Active; 'I' for Inactive)
REMARK    1  A    between atoms: C_1  and  O_2
REMARK    2  A    between atoms: O_2  and  C_3
REMARK    3  A    between atoms: C_9  and  C_12
REMARK    4  A    between atoms: C_12  and  C_13
REMARK    5  A    between atoms: C_13  and  N_14
REMARK    6  A    between atoms: N_14  and  C_15
REMARK    7  A    between atoms: N_20  and  C_23
REMARK    8  A    between atoms: C_26  and  O_29
REMARK    9  A    between atoms: O_29  and  C_30
REMARK                            x       y       z     vdW  Elec       q    Type
REMARK                         _______ _______ _______ _____ _____    ______ ____
ROOT
ATOM      1  C   UNL     1       2.870  -7.189  -0.912  0.00  0.00    +0.026 C 
ATOM      2  C   UNL     1       2.435  -8.442  -1.699  0.00  0.00    +0.090 C 
ATOM      3  C   UNL     1       2.501  -7.995  -3.143  0.00  0.00    +0.225 C 
ATOM      4  O   UNL     1       2.235  -8.684  -4.104  0.00  0.00    -0.275 OA
ATOM      5  N   UNL     1       2.901  -6.718  -3.191  0.00  0.00    -0.212 N 
ATOM      6  C   UNL     1       3.139  -6.164  -1.992  0.00  0.00    +0.213 C 
ATOM      7  O   UNL     1       3.509  -5.025  -1.802  0.00  0.00    -0.277 OA
ENDROOT
BRANCH   5   8
ATOM      8  C   UNL     1       3.059  -6.016  -4.396  0.00  0.00    +0.044 A 
ATOM      9  C   UNL     1       3.353  -4.660  -4.376  0.00  0.00    +0.027 A 
ATOM     10  C   UNL     1       3.509  -3.970  -5.561  0.00  0.00    +0.048 A 
ATOM     11  C   UNL     1       3.372  -4.632  -6.773  0.00  0.00    +0.129 A 
ATOM     12  C   UNL     1       3.078  -5.988  -6.793  0.00  0.00    +0.048 A 
ATOM     13  C   UNL     1       2.928  -6.680  -5.608  0.00  0.00    +0.027 A 
BRANCH  11  14
ATOM     14  O   UNL     1       3.525  -3.952  -7.940  0.00  0.00    -0.456 OA
BRANCH  14  15
ATOM     15  C   UNL     1       3.917  -2.653  -7.875  0.00  0.00    +0.128 A 
ATOM     16  C   UNL     1       5.239  -2.340  -7.590  0.00  0.00    +0.046 A 
ATOM     17  C   UNL     1       5.635  -1.018  -7.525  0.00  0.00    +0.004 A 
ATOM     18  C   UNL     1       4.716  -0.008  -7.743  0.00  0.00    +0.000 A 
ATOM     19  C   UNL     1       3.399  -0.318  -8.026  0.00  0.00    +0.004 A 
ATOM     20  C   UNL     1       2.999  -1.638  -8.098  0.00  0.00    +0.046 A 
ENDBRANCH  14  15
ENDBRANCH  11  14
ENDBRANCH   5   8
BRANCH   1  21
ATOM     21  N   UNL     1       1.790  -6.735  -0.025  0.00  0.00    +0.387 N 
ATOM     22  H   UNL     1       1.529  -7.485   0.598  0.00  0.00    -0.085 HD
ATOM     23  H   UNL     1       0.992  -6.465  -0.579  0.00  0.00    -0.085 HD
BRANCH  21  24
ATOM     24  C   UNL     1       2.254  -5.584   0.761  0.00  0.00    -0.077 C 
BRANCH  24  25
ATOM     25  C   UNL     1       1.129  -5.111   1.684  0.00  0.00    +0.014 C 
BRANCH  25  32
ATOM     26  C   UNL     1       0.740  -0.577   1.062  0.00  0.00    +0.121 A 
ATOM     27  C   UNL     1       1.336   0.203   2.069  0.00  0.00    +0.047 A 
ATOM     28  C   UNL     1       1.970  -0.341   3.130  0.00  0.00    +0.029 A 
ATOM     29  C   UNL     1       2.053  -1.799   3.260  0.00  0.00    +0.043 A 
ATOM     30  N   UNL     1       2.599  -2.568   4.169  0.00  0.00    -0.380 N 
ATOM     31  C   UNL     1       2.379  -3.969   3.789  0.00  0.00    +0.144 C 
ATOM     32  C   UNL     1       1.605  -3.930   2.491  0.00  0.00    -0.043 C 
ATOM     33  C   UNL     1       1.425  -2.622   2.200  0.00  0.00    +0.002 A 
ATOM     34  C   UNL     1       0.757  -1.931   1.091  0.00  0.00    +0.055 A 
ATOM     35  H   UNL     1       3.069  -2.263   4.960  0.00  0.00    +0.160 HD
BRANCH  26  37
ATOM     36  C   UNL     1       0.127   1.478   0.036  0.00  0.00    +0.277 C 
ATOM     37  O   UNL     1       0.121   0.049   0.027  0.00  0.00    -0.495 OA
ENDBRANCH  26  37
ENDBRANCH  25  32
ENDBRANCH  24  25
ENDBRANCH  21  24
ENDBRANCH   1  21
TORSDOF 8
