REMARK  Name = ZINC09712191
REMARK  11 active torsions:
REMARK  status: ('A' for Active; 'I' for Inactive)
REMARK    1  A    between atoms: C_1  and  C_2
REMARK    2  A    between atoms: C_2  and  C_3
REMARK    3  A    between atoms: C_3  and  C_4
REMARK    4  A    between atoms: C_4  and  N_5
REMARK    5  A    between atoms: C_9  and  S_29
REMARK    6  A    between atoms: C_13  and  S_14
REMARK    7  A    between atoms: S_14  and  C_15
REMARK    8  A    between atoms: C_15  and  C_16
REMARK    9  A    between atoms: N_18  and  C_19
REMARK   10  A    between atoms: N_23  and  C_24
REMARK   11  A    between atoms: S_29  and  N_32
REMARK                            x       y       z     vdW  Elec       q    Type
REMARK                         _______ _______ _______ _____ _____    ______ ____
ROOT
ATOM      1  N   UNL     1       1.263   1.788  -0.000  0.00  0.00    -0.319 N 
ATOM      2  C   UNL     1       2.113   0.694  -0.014  0.00  0.00    +0.070 A 
ATOM      3  C   UNL     1       3.492   0.548  -0.029  0.00  0.00    +0.030 A 
ATOM      4  C   UNL     1       4.049  -0.714  -0.042  0.00  0.00    +0.030 A 
ATOM      5  C   UNL     1       3.239  -1.840  -0.041  0.00  0.00    +0.107 A 
ATOM      6  C   UNL     1       1.868  -1.714  -0.025  0.00  0.00    +0.058 A 
ATOM      7  C   UNL     1       1.288  -0.443  -0.013  0.00  0.00    +0.092 A 
ATOM      8  N   UNL     1       0.002  -0.004   0.002  0.00  0.00    -0.222 NA
ATOM      9  C   UNL     1      -0.016   1.306   0.009  0.00  0.00    +0.170 A 
ENDROOT
BRANCH   5  10
ATOM     10  S   UNL     1       3.970  -3.443  -0.057  0.00  0.00    +0.056 S 
ATOM     11  O   UNL     1       3.000  -4.326  -0.604  0.00  0.00    -0.153 OA
ATOM     12  O   UNL     1       5.266  -3.293  -0.620  0.00  0.00    -0.153 OA
BRANCH  10  13
ATOM     13  N   UNL     1       4.188  -3.898   1.520  0.00  0.00    -0.204 NA
ATOM     14  H   UNL     1       3.922  -3.302   2.238  0.00  0.00    +0.144 HD
ATOM     15  H   UNL     1       4.583  -4.760   1.726  0.00  0.00    +0.144 HD
ENDBRANCH  10  13
ENDBRANCH   5  10
BRANCH   1  16
ATOM     16  C   UNL     1       1.661   3.197   0.003  0.00  0.00    +0.124 C 
BRANCH  16  17
ATOM     17  C   UNL     1       1.814   3.681   1.446  0.00  0.00    +0.021 C 
BRANCH  17  19
ATOM     18  C   UNL     1       2.382   5.637   2.894  0.00  0.00    +0.004 C 
ATOM     19  C   UNL     1       2.229   5.153   1.450  0.00  0.00    -0.002 C 
ENDBRANCH  17  19
ENDBRANCH  16  17
ENDBRANCH   1  16
BRANCH   9  20
ATOM     20  S   UNL     1      -1.471   2.299   0.022  0.00  0.00    -0.078 S 
BRANCH  20  21
ATOM     21  C   UNL     1      -2.735   1.004   0.022  0.00  0.00    +0.173 C 
BRANCH  21  22
ATOM     22  C   UNL     1      -4.103   1.637   0.032  0.00  0.00    +0.229 C 
ATOM     23  O   UNL     1      -4.212   2.845   0.039  0.00  0.00    -0.275 OA
ATOM     24  N   UNL     1      -5.205   0.860   0.034  0.00  0.00    -0.270 N 
ATOM     25  H   UNL     1      -5.117  -0.106   0.029  0.00  0.00    +0.156 HD
BRANCH  24  26
ATOM     26  C   UNL     1      -6.471   1.446   0.043  0.00  0.00    +0.123 A 
ATOM     27  C   UNL     1      -6.739   2.780   0.051  0.00  0.00    +0.065 A 
ATOM     28  C   UNL     1      -8.128   2.937   0.058  0.00  0.00    +0.136 A 
ATOM     29  N   UNL     1      -8.676   1.749   0.055  0.00  0.00    -0.178 NA
ATOM     30  N   UNL     1      -7.654   0.791   0.041  0.00  0.00    -0.247 N 
BRANCH  30  31
ATOM     31  C   UNL     1      -7.835  -0.662   0.028  0.00  0.00    +0.109 C 
ATOM     32  C   UNL     1      -8.668  -1.081  -1.201  0.00  0.00    +0.027 C 
ATOM     33  C   UNL     1      -9.555  -2.240  -0.682  0.00  0.00    +0.002 C 
ATOM     34  C   UNL     1      -9.917  -1.778   0.752  0.00  0.00    +0.002 C 
ATOM     35  C   UNL     1      -8.629  -1.106   1.269  0.00  0.00    +0.027 C 
ENDBRANCH  30  31
ENDBRANCH  24  26
ENDBRANCH  21  22
ENDBRANCH  20  21
ENDBRANCH   9  20
TORSDOF 10
