REMARK  Name = ZINC18203859
REMARK  7 active torsions:
REMARK  status: ('A' for Active; 'I' for Inactive)
REMARK    1  A    between atoms: C_1  and  C_2
REMARK    2  A    between atoms: C_5  and  N_8
REMARK    3  A    between atoms: C_9  and  O_10
REMARK    4  A    between atoms: C_11  and  C_12
REMARK    5  A    between atoms: N_13  and  C_14
REMARK    6  A    between atoms: C_16  and  N_21
REMARK    7  A    between atoms: C_24  and  C_26
REMARK                            x       y       z     vdW  Elec       q    Type
REMARK                         _______ _______ _______ _____ _____    ______ ____
ROOT
ATOM      1  N   UNL     1       0.059  -4.172  -0.021  0.00  0.00    -0.200 N 
ATOM      2  C   UNL     1       0.699  -4.958   0.873  0.00  0.00    +0.225 A 
ATOM      3  C   UNL     1       0.461  -6.277   0.502  0.00  0.00    +0.077 A 
ATOM      4  C   UNL     1      -0.351  -6.242  -0.657  0.00  0.00    +0.073 A 
ATOM      5  N   UNL     1      -0.586  -4.993  -0.952  0.00  0.00    -0.168 NA
ATOM      6  C   UNL     1      -0.862  -7.439  -1.415  0.00  0.00    +0.068 C 
ENDROOT
BRANCH   1  11
ATOM      7  C   UNL     1      -0.018   1.503   0.010  0.00  0.00    +0.044 C 
ATOM      8  C   UNL     1       0.002  -0.004   0.002  0.00  0.00    -0.050 A 
ATOM      9  C   UNL     1       0.006  -0.688  -1.200  0.00  0.00    +0.005 A 
ATOM     10  C   UNL     1       0.025  -2.068  -1.211  0.00  0.00    +0.028 A 
ATOM     11  C   UNL     1       0.041  -2.771  -0.013  0.00  0.00    +0.069 A 
ATOM     12  C   UNL     1       0.037  -2.082   1.192  0.00  0.00    +0.028 A 
ATOM     13  C   UNL     1       0.023  -0.700   1.196  0.00  0.00    +0.005 A 
ENDBRANCH   1  11
BRANCH   2  14
ATOM     14  O   UNL     1       1.433  -4.539   1.931  0.00  0.00    -0.492 OA
ATOM     15  H   UNL     1       0.923  -4.431   2.745  0.00  0.00    +0.294 HD
ENDBRANCH   2  14
BRANCH   3  16
ATOM     16  C   UNL     1       0.958  -7.477   1.182  0.00  0.00    +0.126 C 
ATOM     17  N   UNL     1       1.703  -7.362   2.249  0.00  0.00    -0.253 NA
BRANCH  17  18
ATOM     18  C   UNL     1       2.166  -8.483   2.884  0.00  0.00    +0.084 A 
ATOM     19  C   UNL     1       2.616  -9.576   2.140  0.00  0.00    +0.062 A 
ATOM     20  C   UNL     1       3.082 -10.701   2.787  0.00  0.00    +0.128 A 
ATOM     21  C   UNL     1       3.103 -10.750   4.170  0.00  0.00    +0.034 A 
ATOM     22  C   UNL     1       2.660  -9.672   4.914  0.00  0.00    +0.024 A 
ATOM     23  C   UNL     1       2.197  -8.536   4.280  0.00  0.00    +0.066 A 
ATOM     24 CL   UNL     1       1.647  -7.180   5.215  0.00  0.00    -0.081 Cl
BRANCH  20  25
ATOM     25  N   UNL     1       3.558 -11.861   2.000  0.00  0.00    +0.056 N 
ATOM     26  O   UNL     1       3.540 -11.820   0.791  0.00  0.00    -0.126 OA
ATOM     27  O   UNL     1       3.967 -12.848   2.565  0.00  0.00    -0.126 OA
ENDBRANCH  20  25
ENDBRANCH  17  18
ENDBRANCH   3  16
TORSDOF 5
