REMARK  Name = ZINC17015818
REMARK  5 active torsions:
REMARK  status: ('A' for Active; 'I' for Inactive)
REMARK    1  A    between atoms: C_1  and  C_2
REMARK    2  A    between atoms: C_8  and  C_24
REMARK    3  A    between atoms: C_8  and  C_25
REMARK    4  A    between atoms: C_10  and  C_22
REMARK    5  A    between atoms: C_10  and  C_23
REMARK                            x       y       z     vdW  Elec       q    Type
REMARK                         _______ _______ _______ _____ _____    ______ ____
ROOT
ATOM      1  C   UNL     1       5.507   5.588  -0.046  0.00  0.00    +0.044 C 
ATOM      2  C   UNL     1       5.224   4.110   0.039  0.00  0.00    -0.049 A 
ATOM      3  C   UNL     1       3.904   3.692   0.167  0.00  0.00    +0.014 A 
ATOM      4  C   UNL     1       3.684   2.318   0.242  0.00  0.00    +0.010 A 
ATOM      5  C   UNL     1       4.772   1.437   0.188  0.00  0.00    +0.049 A 
ATOM      6  C   UNL     1       6.090   1.866   0.066  0.00  0.00    -0.015 A 
ATOM      7  C   UNL     1       6.293   3.225  -0.001  0.00  0.00    +0.009 A 
ATOM      8  C   UNL     1       7.149   0.805   0.020  0.00  0.00    +0.022 C 
ATOM      9  C   UNL     1       6.565  -0.482  -0.570  0.00  0.00    +0.041 C 
ATOM     10  C   UNL     1       5.345  -0.973   0.218  0.00  0.00    +0.038 C 
ATOM     11  N   UNL     1       4.356   0.117   0.268  0.00  0.00    -0.261 N 
ATOM     12  C   UNL     1       3.022   0.070   0.383  0.00  0.00    +0.253 C 
ATOM     13  O   UNL     1       2.350  -0.939   0.478  0.00  0.00    -0.270 OA
ATOM     14  C   UNL     1       2.502   1.466   0.377  0.00  0.00    +0.065 C 
ATOM     15  C   UNL     1       1.186   1.869   0.471  0.00  0.00    +0.092 C 
ATOM     16  C   UNL     1      -0.051   1.051   0.604  0.00  0.00    +0.258 C 
ATOM     17  O   UNL     1      -0.015  -0.163   0.644  0.00  0.00    -0.269 OA
ATOM     18  N   UNL     1      -1.190   1.719   0.669  0.00  0.00    -0.243 N 
ATOM     19  C   UNL     1      -1.223   3.066   0.630  0.00  0.00    +0.283 C 
ATOM     20  O   UNL     1      -2.193   3.798   0.685  0.00  0.00    -0.262 OA
ATOM     21  S   UNL     1       0.496   3.519   0.471  0.00  0.00    -0.025 S 
ATOM     22  C   UNL     1       5.766  -1.352   1.639  0.00  0.00    +0.032 C 
ATOM     23  C   UNL     1       4.735  -2.190  -0.481  0.00  0.00    +0.032 C 
ATOM     24  C   UNL     1       7.656   0.531   1.438  0.00  0.00    +0.021 C 
ATOM     25  H   UNL     1      -2.142   1.175   0.758  0.00  0.00    +0.159 HD
ENDROOT
BRANCH   8  26
ATOM     26  C   UNL     1       8.294   1.277  -0.839  0.00  0.00    -0.037 A 
ATOM     27  C   UNL     1       8.058   1.700  -2.134  0.00  0.00    +0.004 A 
ATOM     28  C   UNL     1       9.107   2.137  -2.920  0.00  0.00    +0.000 A 
ATOM     29  C   UNL     1      10.394   2.141  -2.416  0.00  0.00    +0.000 A 
ATOM     30  C   UNL     1      10.631   1.713  -1.123  0.00  0.00    +0.000 A 
ATOM     31  C   UNL     1       9.581   1.280  -0.335  0.00  0.00    +0.004 A 
ENDBRANCH   8  26
TORSDOF 1
