REMARK  Name = ZINC05545314
REMARK  11 active torsions:
REMARK  status: ('A' for Active; 'I' for Inactive)
REMARK    1  A    between atoms: C_1  and  C_2
REMARK    2  A    between atoms: C_3  and  C_28
REMARK    3  A    between atoms: C_4  and  C_20
REMARK    4  A    between atoms: C_6  and  C_9
REMARK    5  A    between atoms: N_11  and  C_12
REMARK    6  A    between atoms: C_17  and  O_18
REMARK    7  A    between atoms: O_18  and  C_19
REMARK    8  A    between atoms: C_21  and  C_22
REMARK    9  A    between atoms: N_30  and  C_31
REMARK   10  A    between atoms: C_36  and  O_37
REMARK   11  A    between atoms: O_37  and  C_38
REMARK                            x       y       z     vdW  Elec       q    Type
REMARK                         _______ _______ _______ _____ _____    ______ ____
ROOT
ATOM      1  C   UNL     1       1.901   0.304  -0.012  0.00  0.00    +0.061 C 
ATOM      2  C   UNL     1       2.046   1.803  -0.064  0.00  0.00    +0.014 C 
ATOM      3  C   UNL     1       0.948   2.575  -0.105  0.00  0.00    +0.043 C 
ATOM      4  C   UNL     1       1.045   4.072  -0.173  0.00  0.00    +0.084 C 
ATOM      5  C   UNL     1       2.422   4.533   0.217  0.00  0.00    +0.040 C 
ATOM      6  C   UNL     1       3.462   3.684   0.247  0.00  0.00    +0.081 C 
ATOM      7  N   UNL     1       3.296   2.361  -0.067  0.00  0.00    -0.323 N 
ATOM      8  H   UNL     1       4.173   1.748  -0.322  0.00  0.00    +0.151 HD
ENDROOT
BRANCH   5   9
ATOM      9  C   UNL     1       2.628   5.893   0.555  0.00  0.00    +0.246 C 
ATOM     10  O   UNL     1       3.739   6.280   0.869  0.00  0.00    -0.270 OA
ATOM     11  N   UNL     1       1.595   6.758   0.530  0.00  0.00    -0.279 N 
ATOM     12  H   UNL     1       0.608   6.425   0.178  0.00  0.00    +0.155 HD
BRANCH  11  13
ATOM     13  C   UNL     1       1.779   8.081   0.951  0.00  0.00    +0.076 A 
ATOM     14  C   UNL     1       2.986   8.724   0.717  0.00  0.00    +0.027 A 
ATOM     15  C   UNL     1       3.162  10.032   1.129  0.00  0.00    +0.002 A 
ATOM     16  C   UNL     1       2.143  10.698   1.784  0.00  0.00    +0.004 A 
ATOM     17  C   UNL     1       0.940  10.061   2.026  0.00  0.00    +0.047 A 
ATOM     18  C   UNL     1       0.752   8.752   1.612  0.00  0.00    +0.141 A 
BRANCH  18  19
ATOM     19  O   UNL     1      -0.430   8.125   1.849  0.00  0.00    -0.493 OA
ATOM     20  C   UNL     1      -1.437   8.876   2.531  0.00  0.00    +0.277 C 
ENDBRANCH  18  19
ENDBRANCH  11  13
ENDBRANCH   5   9
BRANCH   3  21
ATOM     21  C   UNL     1      -0.329   1.963  -0.092  0.00  0.00    +0.247 C 
ATOM     22  O   UNL     1      -0.968   1.910   0.944  0.00  0.00    -0.270 OA
ATOM     23  N   UNL     1      -0.836   1.435  -1.224  0.00  0.00    -0.279 N 
ATOM     24  H   UNL     1      -0.223   1.401  -2.137  0.00  0.00    +0.155 HD
BRANCH  23  25
ATOM     25  C   UNL     1      -2.142   0.931  -1.238  0.00  0.00    +0.076 A 
ATOM     26  C   UNL     1      -3.127   1.529  -0.465  0.00  0.00    +0.027 A 
ATOM     27  C   UNL     1      -4.417   1.034  -0.485  0.00  0.00    +0.002 A 
ATOM     28  C   UNL     1      -4.727  -0.065  -1.266  0.00  0.00    +0.004 A 
ATOM     29  C   UNL     1      -3.750  -0.669  -2.034  0.00  0.00    +0.047 A 
ATOM     30  C   UNL     1      -2.456  -0.175  -2.024  0.00  0.00    +0.141 A 
BRANCH  30  31
ATOM     31  O   UNL     1      -1.493  -0.769  -2.780  0.00  0.00    -0.493 OA
ATOM     32  C   UNL     1      -1.887  -1.899  -3.561  0.00  0.00    +0.277 C 
ENDBRANCH  30  31
ENDBRANCH  23  25
ENDBRANCH   3  21
BRANCH   4  33
ATOM     33  C   UNL     1       0.744   4.527  -1.578  0.00  0.00    -0.013 C 
ATOM     34  C   UNL     1      -0.274   5.345  -1.806  0.00  0.00    +0.004 C 
BRANCH  34  35
ATOM     35  C   UNL     1      -0.569   5.790  -3.184  0.00  0.00    -0.025 A 
ATOM     36  C   UNL     1       0.225   5.356  -4.246  0.00  0.00    +0.008 A 
ATOM     37  C   UNL     1      -0.059   5.771  -5.531  0.00  0.00    +0.001 A 
ATOM     38  C   UNL     1      -1.121   6.625  -5.766  0.00  0.00    +0.000 A 
ATOM     39  C   UNL     1      -1.909   7.064  -4.717  0.00  0.00    +0.001 A 
ATOM     40  C   UNL     1      -1.639   6.651  -3.428  0.00  0.00    +0.008 A 
ENDBRANCH  34  35
ENDBRANCH   4  33
TORSDOF 8
