REMARK  Name = ZINC36304172
REMARK  14 active torsions:
REMARK  status: ('A' for Active; 'I' for Inactive)
REMARK    1  A    between atoms: C_1  and  C_2
REMARK    2  A    between atoms: C_2  and  C_3
REMARK    3  A    between atoms: C_3  and  N_4
REMARK    4  A    between atoms: N_4  and  C_5
REMARK    5  A    between atoms: N_4  and  C_27
REMARK    6  A    between atoms: C_5  and  C_6
REMARK    7  A    between atoms: C_7  and  C_26
REMARK    8  A    between atoms: N_9  and  C_20
REMARK    9  A    between atoms: C_10  and  O_11
REMARK   10  A    between atoms: O_11  and  C_12
REMARK   11  A    between atoms: C_27  and  C_28
REMARK   12  A    between atoms: C_28  and  C_30
REMARK   13  A    between atoms: C_28  and  O_37
REMARK   14  A    between atoms: C_30  and  C_31
REMARK                            x       y       z     vdW  Elec       q    Type
REMARK                         _______ _______ _______ _____ _____    ______ ____
ROOT
ATOM      1  C   UNL     1       2.812  -1.865  -1.783  0.00  0.00    +0.021 A 
ATOM      2  C   UNL     1       3.404  -0.639  -2.104  0.00  0.00    +0.065 A 
ATOM      3  N   UNL     1       4.509  -0.520  -1.414  0.00  0.00    -0.168 NA
ATOM      4  N   UNL     1       4.664  -1.668  -0.626  0.00  0.00    -0.200 N 
ATOM      5  C   UNL     1       3.601  -2.483  -0.865  0.00  0.00    +0.225 A 
ATOM      6  C   UNL     1       2.861   0.373  -3.079  0.00  0.00    +0.068 C 
ENDROOT
BRANCH   4   7
ATOM      7  C   UNL     1       5.722  -1.928   0.256  0.00  0.00    +0.069 A 
ATOM      8  C   UNL     1       5.472  -2.517   1.488  0.00  0.00    +0.028 A 
ATOM      9  C   UNL     1       6.517  -2.772   2.355  0.00  0.00    +0.002 A 
ATOM     10  C   UNL     1       7.811  -2.442   1.996  0.00  0.00    +0.000 A 
ATOM     11  C   UNL     1       8.063  -1.855   0.770  0.00  0.00    +0.002 A 
ATOM     12  C   UNL     1       7.023  -1.602  -0.103  0.00  0.00    +0.028 A 
ENDBRANCH   4   7
BRANCH   1  13
ATOM     13  C   UNL     1       1.523  -2.402  -2.350  0.00  0.00    -0.036 C 
BRANCH  13  14
ATOM     14  N   UNL     1       0.399  -1.962  -1.514  0.00  0.00    +0.384 N 
ATOM     15  H   UNL     1       0.563  -2.238  -0.557  0.00  0.00    -0.081 HD
BRANCH  14  16
ATOM     16  C   UNL     1       0.276  -0.500  -1.589  0.00  0.00    -0.079 C 
BRANCH  16  18
ATOM     17  C   UNL     1      -0.852   1.499  -0.602  0.00  0.00    +0.002 C 
ATOM     18  C   UNL     1      -0.818  -0.031  -0.627  0.00  0.00    -0.022 C 
ENDBRANCH  16  18
ENDBRANCH  14  16
BRANCH  14  19
ATOM     19  C   UNL     1      -0.843  -2.583  -1.996  0.00  0.00    -0.046 C 
BRANCH  19  20
ATOM     20  C   UNL     1      -0.777  -4.095  -1.771  0.00  0.00    +0.102 C 
BRANCH  20  21
ATOM     21  O   UNL     1      -0.711  -4.365  -0.369  0.00  0.00    -0.393 OA
ATOM     22  H   UNL     1      -1.503  -4.102   0.120  0.00  0.00    +0.210 HD
ENDBRANCH  20  21
BRANCH  20  23
ATOM     23  C   UNL     1      -2.027  -4.753  -2.358  0.00  0.00    +0.064 C 
BRANCH  23  24
ATOM     24  C   UNL     1      -1.907  -6.251  -2.247  0.00  0.00    -0.045 A 
ATOM     25  C   UNL     1      -1.321  -6.975  -3.268  0.00  0.00    +0.004 A 
ATOM     26  C   UNL     1      -1.210  -8.349  -3.165  0.00  0.00    +0.000 A 
ATOM     27  C   UNL     1      -1.685  -8.999  -2.041  0.00  0.00    +0.000 A 
ATOM     28  C   UNL     1      -2.270  -8.274  -1.020  0.00  0.00    +0.000 A 
ATOM     29  C   UNL     1      -2.377  -6.900  -1.120  0.00  0.00    +0.004 A 
ENDBRANCH  23  24
ENDBRANCH  20  23
ENDBRANCH  19  20
ENDBRANCH  14  19
ENDBRANCH  13  14
ENDBRANCH   1  13
BRANCH   5  30
ATOM     30  O   UNL     1       3.373  -3.692  -0.293  0.00  0.00    -0.435 OA
BRANCH  30  31
ATOM     31  C   UNL     1       3.964  -4.783  -0.850  0.00  0.00    +0.166 A 
ATOM     32  C   UNL     1       4.854  -4.630  -1.901  0.00  0.00    +0.052 A 
ATOM     33  C   UNL     1       5.455  -5.739  -2.466  0.00  0.00    +0.042 A 
ATOM     34  C   UNL     1       5.168  -7.004  -1.982  0.00  0.00    +0.126 A 
ATOM     35  C   UNL     1       4.279  -7.161  -0.932  0.00  0.00    +0.080 A 
ATOM     36  C   UNL     1       3.681  -6.053  -0.361  0.00  0.00    +0.168 A 
ATOM     37  F   UNL     1       2.817  -6.205   0.667  0.00  0.00    -0.202 F 
ATOM     38  F   UNL     1       5.757  -8.087  -2.535  0.00  0.00    -0.205 F 
ENDBRANCH  30  31
ENDBRANCH   5  30
TORSDOF 12
