REMARK  Name = ZINC25691937
REMARK  9 active torsions:
REMARK  status: ('A' for Active; 'I' for Inactive)
REMARK    1  A    between atoms: C_1  and  C_2
REMARK    2  A    between atoms: C_2  and  C_36
REMARK    3  A    between atoms: C_6  and  N_27
REMARK    4  A    between atoms: C_8  and  C_14
REMARK    5  A    between atoms: C_14  and  C_16
REMARK    6  A    between atoms: C_14  and  O_26
REMARK    7  A    between atoms: C_16  and  N_17
REMARK    8  A    between atoms: C_18  and  C_20
REMARK    9  A    between atoms: C_28  and  C_30
REMARK                            x       y       z     vdW  Elec       q    Type
REMARK                         _______ _______ _______ _____ _____    ______ ____
ROOT
ATOM      1  C   UNL     1      -0.754   1.943  -1.230  0.00  0.00    +0.074 C 
ATOM      2  C   UNL     1      -0.017   1.432   0.010  0.00  0.00    +0.168 C 
ATOM      3  O   UNL     1       0.002  -0.004   0.002  0.00  0.00    -0.339 OA
ATOM      4  C   UNL     1       1.283  -0.370   0.556  0.00  0.00    +0.200 C 
ATOM      5  C   UNL     1       1.815  -1.613  -0.186  0.00  0.00    +0.138 C 
ATOM      6  C   UNL     1       2.623  -1.048  -1.368  0.00  0.00    +0.174 C 
ATOM      7  O   UNL     1       2.483   0.380  -1.339  0.00  0.00    -0.341 OA
ATOM      8  C   UNL     1       2.205   0.769   0.019  0.00  0.00    +0.285 C 
ATOM      9  O   UNL     1       1.332   1.913  -0.000  0.00  0.00    -0.318 OA
ATOM     10  C   UNL     1      -0.731   1.929   1.269  0.00  0.00    +0.074 C 
ENDROOT
BRANCH   5  11
ATOM     11  N   UNL     1       2.682  -2.401   0.693  0.00  0.00    -0.303 N 
ATOM     12  C   UNL     1       2.846  -3.721   0.472  0.00  0.00    +0.244 C 
ATOM     13  O   UNL     1       2.275  -4.257  -0.457  0.00  0.00    -0.270 OA
ATOM     14  H   UNL     1       3.199  -1.916   1.534  0.00  0.00    +0.149 HD
BRANCH  12  15
ATOM     15  C   UNL     1       3.721  -4.516   1.360  0.00  0.00    +0.037 A 
ATOM     16  C   UNL     1       4.383  -3.902   2.425  0.00  0.00    +0.013 A 
ATOM     17  C   UNL     1       5.194  -4.651   3.252  0.00  0.00    +0.001 A 
ATOM     18  C   UNL     1       5.361  -6.005   3.023  0.00  0.00    +0.000 A 
ATOM     19  C   UNL     1       4.712  -6.618   1.966  0.00  0.00    +0.001 A 
ATOM     20  C   UNL     1       3.893  -5.882   1.134  0.00  0.00    +0.013 A 
ENDBRANCH  12  15
ENDBRANCH   5  11
BRANCH   6  21
ATOM     21  C   UNL     1       2.070  -1.597  -2.685  0.00  0.00    +0.162 C 
BRANCH  21  22
ATOM     22  O   UNL     1       0.669  -1.327  -2.764  0.00  0.00    -0.388 OA
ATOM     23  H   UNL     1       0.095  -1.649  -3.645  0.00  0.00    +0.210 HD
ENDBRANCH  21  22
BRANCH  21  24
ATOM     24  C   UNL     1       2.785  -0.923  -3.858  0.00  0.00    +0.138 C 
BRANCH  24  25
ATOM     25  N   UNL     1       2.257  -1.449  -5.120  0.00  0.00    -0.309 N 
ATOM     26  C   UNL     1       2.741  -0.998  -6.294  0.00  0.00    +0.244 C 
ATOM     27  O   UNL     1       3.617  -0.155  -6.306  0.00  0.00    -0.270 OA
ATOM     28  H   UNL     1       1.464  -2.212  -5.108  0.00  0.00    +0.149 HD
BRANCH  26  29
ATOM     29  C   UNL     1       2.207  -1.528  -7.566  0.00  0.00    +0.037 A 
ATOM     30  C   UNL     1       1.206  -2.500  -7.555  0.00  0.00    +0.013 A 
ATOM     31  C   UNL     1       0.709  -2.988  -8.746  0.00  0.00    +0.001 A 
ATOM     32  C   UNL     1       1.209  -2.523  -9.950  0.00  0.00    +0.000 A 
ATOM     33  C   UNL     1       2.205  -1.562  -9.968  0.00  0.00    +0.001 A 
ATOM     34  C   UNL     1       2.707  -1.063  -8.784  0.00  0.00    +0.013 A 
ENDBRANCH  26  29
ENDBRANCH  24  25
ENDBRANCH  21  24
ENDBRANCH   6  21
TORSDOF 7
