REMARK  Name = ZINC36500027
REMARK  14 active torsions:
REMARK  status: ('A' for Active; 'I' for Inactive)
REMARK    1  A    between atoms: C_1  and  C_2
REMARK    2  A    between atoms: C_2  and  C_3
REMARK    3  A    between atoms: C_3  and  C_4
REMARK    4  A    between atoms: C_5  and  C_6
REMARK    5  A    between atoms: C_6  and  C_8
REMARK    6  A    between atoms: C_6  and  N_22
REMARK    7  A    between atoms: N_10  and  C_11
REMARK    8  A    between atoms: C_11  and  S_12
REMARK    9  A    between atoms: S_12  and  C_15
REMARK   10  A    between atoms: C_18  and  C_21
REMARK   11  A    between atoms: N_22  and  C_23
REMARK   12  A    between atoms: C_23  and  C_24
REMARK   13  A    between atoms: C_29  and  C_31
REMARK   14  A    between atoms: C_32  and  C_33
REMARK                            x       y       z     vdW  Elec       q    Type
REMARK                         _______ _______ _______ _____ _____    ______ ____
ROOT
ATOM      1  C   UNL     1       0.619  -4.409  -2.227  0.00  0.00    +0.186 C 
ENDROOT
BRANCH   1   2
ATOM      2  C   UNL     1       1.704  -4.807  -3.195  0.00  0.00    +0.239 C 
ATOM      3  O   UNL     1       2.761  -5.233  -2.779  0.00  0.00    -0.273 OA
ATOM      4  N   UNL     1       1.500  -4.690  -4.522  0.00  0.00    -0.294 N 
ATOM      5  H   UNL     1       0.655  -4.350  -4.854  0.00  0.00    +0.150 HD
BRANCH   4   6
ATOM      6  C   UNL     1       2.554  -5.077  -5.462  0.00  0.00    +0.278 C 
BRANCH   6   7
ATOM      7  S   UNL     1       2.280  -6.785  -6.008  0.00  0.00    +0.013 S 
ATOM      8  O   UNL     1       3.259  -7.155  -6.970  0.00  0.00    -0.168 OA
ATOM      9  O   UNL     1       2.012  -7.620  -4.890  0.00  0.00    -0.168 OA
BRANCH   7  10
ATOM     10  C   UNL     1       0.765  -6.736  -6.906  0.00  0.00    +0.090 A 
ATOM     11  C   UNL     1      -0.435  -6.936  -6.249  0.00  0.00    +0.027 A 
ATOM     12  C   UNL     1      -1.624  -6.897  -6.954  0.00  0.00    +0.005 A 
ATOM     13  C   UNL     1      -1.613  -6.657  -8.315  0.00  0.00    -0.050 A 
ATOM     14  C   UNL     1      -0.413  -6.456  -8.972  0.00  0.00    +0.005 A 
ATOM     15  C   UNL     1       0.775  -6.491  -8.267  0.00  0.00    +0.027 A 
ATOM     16  C   UNL     1      -2.909  -6.616  -9.083  0.00  0.00    +0.044 C 
ENDBRANCH   7  10
ENDBRANCH   6   7
ENDBRANCH   4   6
ENDBRANCH   1   2
BRANCH   1  17
ATOM     17  N   UNL     1       1.084  -4.629  -0.856  0.00  0.00    -0.269 N 
ATOM     18  C   UNL     1       2.199  -4.013  -0.414  0.00  0.00    +0.293 C 
ATOM     19  O   UNL     1       2.820  -3.274  -1.156  0.00  0.00    -0.260 OA
BRANCH  18  20
ATOM     20  C   UNL     1       2.652  -4.228   0.927  0.00  0.00    -0.003 C 
ATOM     21  C   UNL     1       3.024  -4.404   2.026  0.00  0.00    -0.057 C 
BRANCH  21  22
ATOM     22  C   UNL     1       3.478  -4.619   3.367  0.00  0.00    +0.025 A 
ATOM     23  C   UNL     1       2.771  -5.472   4.220  0.00  0.00    +0.017 A 
ATOM     24  C   UNL     1       3.214  -5.674   5.510  0.00  0.00    +0.001 A 
ATOM     25  C   UNL     1       4.356  -5.035   5.961  0.00  0.00    +0.000 A 
ATOM     26  C   UNL     1       5.062  -4.190   5.123  0.00  0.00    +0.001 A 
ATOM     27  C   UNL     1       4.635  -3.982   3.828  0.00  0.00    +0.017 A 
ENDBRANCH  21  22
ENDBRANCH  18  20
BRANCH  17  28
ATOM     28  C   UNL     1       0.336  -5.518   0.037  0.00  0.00    +0.184 C 
BRANCH  28  29
ATOM     29  C   UNL     1       0.768  -6.942  -0.196  0.00  0.00    +0.122 A 
ATOM     30  C   UNL     1       1.703  -7.606   0.508  0.00  0.00    +0.046 A 
ATOM     31  C   UNL     1       1.788  -8.904  -0.046  0.00  0.00    +0.041 A 
ATOM     32  C   UNL     1       0.900  -8.956  -1.055  0.00  0.00    +0.195 A 
ATOM     33  O   UNL     1       0.281  -7.767  -1.138  0.00  0.00    -0.466 OA
ENDBRANCH  28  29
ENDBRANCH  17  28
ENDBRANCH   1  17
BRANCH   1  35
ATOM     34  C   UNL     1       0.325  -2.132  -1.396  0.00  0.00    -0.029 C 
ATOM     35  C   UNL     1       0.287  -2.951  -2.418  0.00  0.00    +0.000 C 
BRANCH  34  36
ATOM     36  C   UNL     1       0.121  -0.654  -1.608  0.00  0.00    +0.027 C 
BRANCH  36  38
ATOM     37  C   UNL     1      -1.138   1.359  -0.830  0.00  0.00    +0.004 C 
ATOM     38  C   UNL     1      -1.006  -0.159  -0.698  0.00  0.00    +0.001 C 
ENDBRANCH  36  38
ENDBRANCH  34  36
ENDBRANCH   1  35
TORSDOF 12
