REMARK  Name = ZINC09994594
REMARK  8 active torsions:
REMARK  status: ('A' for Active; 'I' for Inactive)
REMARK    1  A    between atoms: C_1  and  C_2
REMARK    2  A    between atoms: C_2  and  C_27
REMARK    3  A    between atoms: C_9  and  N_26
REMARK    4  A    between atoms: C_10  and  C_24
REMARK    5  A    between atoms: C_11  and  C_14
REMARK    6  A    between atoms: C_16  and  O_22
REMARK    7  A    between atoms: C_17  and  O_21
REMARK    8  A    between atoms: O_22  and  C_23
REMARK                            x       y       z     vdW  Elec       q    Type
REMARK                         _______ _______ _______ _____ _____    ______ ____
ROOT
ATOM      1  C   UNL     1       3.560   2.187  -1.103  0.00  0.00    +0.012 C 
ATOM      2  C   UNL     1       2.224   1.450  -0.995  0.00  0.00    -0.021 C 
ATOM      3  C   UNL     1       2.467   0.024  -0.505  0.00  0.00    +0.081 C 
ATOM      4  C   UNL     1       1.170  -0.689  -0.244  0.00  0.00    +0.112 C 
ATOM      5  C   UNL     1       0.002  -0.004   0.002  0.00  0.00    +0.076 C 
ATOM      6  C   UNL     1      -0.018   1.458   0.010  0.00  0.00    +0.169 C 
ATOM      7  O   UNL     1      -1.065   2.072   0.018  0.00  0.00    -0.292 OA
ATOM      8  C   UNL     1       1.314   2.181   0.001  0.00  0.00    +0.086 C 
ATOM      9  C   UNL     1      -1.239  -0.765   0.251  0.00  0.00    +0.056 C 
ATOM     10  C   UNL     1      -1.118  -2.083   0.614  0.00  0.00    +0.095 C 
ATOM     11  C   UNL     1       0.266  -2.677   0.724  0.00  0.00    +0.246 C 
ATOM     12  O   UNL     1       1.144  -2.037  -0.241  0.00  0.00    -0.482 OA
ATOM     13  C   UNL     1       1.551   1.410  -2.369  0.00  0.00    +0.012 C 
ENDROOT
BRANCH  11  14
ATOM     14  C   UNL     1       0.203  -4.156   0.443  0.00  0.00    +0.003 A 
ATOM     15  C   UNL     1       0.093  -5.053   1.490  0.00  0.00    +0.057 A 
ATOM     16  C   UNL     1       0.034  -6.413   1.233  0.00  0.00    +0.163 A 
ATOM     17  C   UNL     1       0.085  -6.873  -0.079  0.00  0.00    +0.172 A 
ATOM     18  C   UNL     1       0.195  -5.970  -1.124  0.00  0.00    +0.059 A 
ATOM     19  C   UNL     1       0.248  -4.612  -0.861  0.00  0.00    +0.025 A 
ATOM     20  I   UNL     1       0.273  -6.657  -3.101  0.00  0.00    -0.040 I 
BRANCH  17  21
ATOM     21  O   UNL     1       0.027  -8.208  -0.336  0.00  0.00    -0.503 OA
ATOM     22  H   UNL     1       0.067  -8.571  -1.373  0.00  0.00    +0.292 HD
ENDBRANCH  17  21
BRANCH  16  23
ATOM     23  O   UNL     1      -0.075  -7.296   2.262  0.00  0.00    -0.491 OA
ATOM     24  C   UNL     1      -0.122  -6.752   3.582  0.00  0.00    +0.277 C 
ENDBRANCH  16  23
ENDBRANCH  11  14
BRANCH   9  25
ATOM     25  N   UNL     1      -2.477  -0.172   0.123  0.00  0.00    -0.356 N 
ATOM     26  H   UNL     1      -3.389  -0.756   0.313  0.00  0.00    +0.142 HD
ATOM     27  H   UNL     1      -2.553   0.886  -0.168  0.00  0.00    +0.142 HD
ENDBRANCH   9  25
BRANCH  10  28
ATOM     28  C   UNL     1      -2.278  -2.878   0.882  0.00  0.00    +0.101 C 
ATOM     29  N   UNL     1      -3.199  -3.509   1.095  0.00  0.00    -0.191 NA
ENDBRANCH  10  28
TORSDOF 5
