REMARK  Name = ZINC49193060
REMARK  11 active torsions:
REMARK  status: ('A' for Active; 'I' for Inactive)
REMARK    1  A    between atoms: C_1  and  C_2
REMARK    2  A    between atoms: C_2  and  C_3
REMARK    3  A    between atoms: C_2  and  C_4
REMARK    4  A    between atoms: C_4  and  C_6
REMARK    5  A    between atoms: C_4  and  N_10
REMARK    6  A    between atoms: C_6  and  N_7
REMARK    7  A    between atoms: N_7  and  C_8
REMARK    8  A    between atoms: N_7  and  C_9
REMARK    9  A    between atoms: N_10  and  S_11
REMARK   10  A    between atoms: S_11  and  C_14
REMARK   11  A    between atoms: C_19  and  N_20
REMARK                            x       y       z     vdW  Elec       q    Type
REMARK                         _______ _______ _______ _____ _____    ______ ____
ROOT
ATOM      1  S   UNL     1      -2.038  -2.611   1.452  0.00  0.00    +0.060 S 
ATOM      2  O   UNL     1      -2.286  -4.010   1.476  0.00  0.00    -0.153 OA
ATOM      3  O   UNL     1      -0.895  -2.030   2.064  0.00  0.00    -0.153 OA
ENDROOT
BRANCH   1   4
ATOM      4  C   UNL     1      -3.445  -1.837   2.175  0.00  0.00    +0.127 A 
ATOM      5  C   UNL     1      -3.280  -0.877   3.154  0.00  0.00    +0.045 A 
ATOM      6  C   UNL     1      -4.384  -0.269   3.723  0.00  0.00    +0.020 A 
ATOM      7  C   UNL     1      -5.658  -0.620   3.313  0.00  0.00    +0.017 A 
ATOM      8  C   UNL     1      -5.830  -1.579   2.335  0.00  0.00    +0.026 A 
ATOM      9  C   UNL     1      -4.723  -2.187   1.758  0.00  0.00    +0.051 A 
ATOM     10 BR   UNL     1      -4.153   1.044   5.064  0.00  0.00    -0.050 Br
BRANCH   9  11
ATOM     11  N   UNL     1      -4.894  -3.154   0.763  0.00  0.00    -0.356 N 
ATOM     12  H   UNL     1      -4.124  -3.627   0.409  0.00  0.00    +0.142 HD
ATOM     13  H   UNL     1      -5.781  -3.351   0.426  0.00  0.00    +0.142 HD
ENDBRANCH   9  11
ENDBRANCH   1   4
BRANCH   1  14
ATOM     14  N   UNL     1      -1.998  -2.165  -0.142  0.00  0.00    -0.188 NA
ATOM     15  H   UNL     1      -2.146  -2.827  -0.836  0.00  0.00    +0.148 HD
BRANCH  14  16
ATOM     16  C   UNL     1      -1.741  -0.769  -0.506  0.00  0.00    +0.063 C 
BRANCH  16  18
ATOM     17  C   UNL     1      -0.030   0.828  -1.379  0.00  0.00    +0.009 C 
ATOM     18  C   UNL     1      -0.315  -0.637  -1.044  0.00  0.00    -0.000 C 
ATOM     19  C   UNL     1       0.677  -1.120   0.016  0.00  0.00    +0.009 C 
ENDBRANCH  16  18
BRANCH  16  20
ATOM     20  C   UNL     1      -2.735  -0.331  -1.584  0.00  0.00    -0.059 C 
BRANCH  20  21
ATOM     21  N   UNL     1      -4.106  -0.498  -1.083  0.00  0.00    +0.377 N 
ATOM     22  C   UNL     1      -4.344   0.446   0.017  0.00  0.00    -0.097 C 
ATOM     23  C   UNL     1      -5.059  -0.236  -2.169  0.00  0.00    -0.097 C 
ATOM     24  H   UNL     1      -4.228  -1.442  -0.748  0.00  0.00    -0.083 HD
ENDBRANCH  20  21
ENDBRANCH  16  20
ENDBRANCH  14  16
ENDBRANCH   1  14
TORSDOF 7
