REMARK  Name = ZINC15205681
REMARK  14 active torsions:
REMARK  status: ('A' for Active; 'I' for Inactive)
REMARK    1  A    between atoms: C_4  and  O_10
REMARK    2  A    between atoms: C_5  and  N_7
REMARK    3  A    between atoms: O_10  and  C_11
REMARK    4  A    between atoms: C_13  and  O_42
REMARK    5  A    between atoms: C_15  and  O_41
REMARK    6  A    between atoms: C_17  and  O_24
REMARK    7  A    between atoms: C_19  and  C_22
REMARK    8  A    between atoms: C_22  and  O_23
REMARK    9  A    between atoms: O_24  and  C_25
REMARK   10  A    between atoms: C_27  and  O_40
REMARK   11  A    between atoms: C_29  and  O_39
REMARK   12  A    between atoms: C_31  and  O_38
REMARK   13  A    between atoms: C_33  and  C_36
REMARK   14  A    between atoms: C_36  and  O_37
REMARK                            x       y       z     vdW  Elec       q    Type
REMARK                         _______ _______ _______ _____ _____    ______ ____
ROOT
ATOM      1  C   UNL     1       1.850   3.253  -0.058  0.00  0.00    +0.339 C 
ATOM      2  C   UNL     1       0.351   3.550  -0.151  0.00  0.00    +0.214 C 
ATOM      3  C   UNL     1      -0.376   2.308  -0.675  0.00  0.00    +0.180 C 
ATOM      4  C   UNL     1      -0.075   1.125   0.251  0.00  0.00    +0.184 C 
ATOM      5  C   UNL     1       1.441   0.922   0.329  0.00  0.00    +0.179 C 
ATOM      6  O   UNL     1       2.058   2.124   0.793  0.00  0.00    -0.331 OA
ENDROOT
BRANCH   3   7
ATOM      7  O   UNL     1      -1.784   2.551  -0.696  0.00  0.00    -0.386 OA
ATOM      8  H   UNL     1      -2.057   3.225  -1.333  0.00  0.00    +0.210 HD
ENDBRANCH   3   7
BRANCH   2   9
ATOM      9  O   UNL     1      -0.151   3.887   1.144  0.00  0.00    -0.383 OA
ATOM     10  H   UNL     1       0.270   4.663   1.539  0.00  0.00    +0.210 HD
ENDBRANCH   2   9
BRANCH   1  11
ATOM     11  O   UNL     1       2.361   2.968  -1.361  0.00  0.00    -0.459 OA
BRANCH  11  15
ATOM     12  C   UNL     1       6.435   2.407  -1.693  0.00  0.00    +0.002 A 
ATOM     13  C   UNL     1       5.875   2.686  -0.460  0.00  0.00    +0.004 A 
ATOM     14  C   UNL     1       4.512   2.880  -0.347  0.00  0.00    +0.048 A 
ATOM     15  C   UNL     1       3.703   2.783  -1.470  0.00  0.00    +0.154 A 
ATOM     16  C   UNL     1       4.268   2.503  -2.706  0.00  0.00    +0.168 A 
ATOM     17  C   UNL     1       5.632   2.316  -2.815  0.00  0.00    +0.036 A 
BRANCH  16  18
ATOM     18  N   UNL     1       3.409   2.405  -3.908  0.00  0.00    +0.060 N 
ATOM     19  O   UNL     1       3.905   2.159  -4.993  0.00  0.00    -0.126 OA
ATOM     20  O   UNL     1       2.206   2.570  -3.811  0.00  0.00    -0.126 OA
ENDBRANCH  16  18
ENDBRANCH  11  15
ENDBRANCH   1  11
BRANCH   5  21
ATOM     21  C   UNL     1       1.753  -0.220   1.298  0.00  0.00    +0.190 C 
BRANCH  21  22
ATOM     22  O   UNL     1       3.157  -0.487   1.283  0.00  0.00    -0.392 OA
ATOM     23  H   UNL     1       3.428  -1.202   1.876  0.00  0.00    +0.210 HD
ENDBRANCH  21  22
ENDBRANCH   5  21
BRANCH   4  24
ATOM     24  O   UNL     1      -0.588   1.396   1.557  0.00  0.00    -0.340 OA
BRANCH  24  25
ATOM     25  C   UNL     1      -1.656   0.534   1.952  0.00  0.00    +0.282 C 
ATOM     26  C   UNL     1      -1.838   0.609   3.470  0.00  0.00    +0.201 C 
ATOM     27  C   UNL     1      -2.227   2.038   3.860  0.00  0.00    +0.179 C 
ATOM     28  C   UNL     1      -3.497   2.435   3.102  0.00  0.00    +0.177 C 
ATOM     29  C   UNL     1      -3.251   2.290   1.598  0.00  0.00    +0.178 C 
ATOM     30  O   UNL     1      -2.864   0.945   1.308  0.00  0.00    -0.341 OA
BRANCH  28  31
ATOM     31  O   UNL     1      -4.574   1.583   3.495  0.00  0.00    -0.386 OA
ATOM     32  H   UNL     1      -4.782   1.621   4.439  0.00  0.00    +0.210 HD
ENDBRANCH  28  31
BRANCH  27  33
ATOM     33  O   UNL     1      -2.470   2.101   5.267  0.00  0.00    -0.386 OA
ATOM     34  H   UNL     1      -1.708   1.855   5.809  0.00  0.00    +0.210 HD
ENDBRANCH  27  33
BRANCH  26  35
ATOM     35  O   UNL     1      -2.870  -0.294   3.873  0.00  0.00    -0.384 OA
ATOM     36  H   UNL     1      -2.692  -1.219   3.653  0.00  0.00    +0.210 HD
ENDBRANCH  26  35
BRANCH  29  37
ATOM     37  C   UNL     1      -4.534   2.627   0.836  0.00  0.00    +0.190 C 
BRANCH  37  38
ATOM     38  O   UNL     1      -4.263   2.650  -0.567  0.00  0.00    -0.392 OA
ATOM     39  H   UNL     1      -5.033   2.858  -1.113  0.00  0.00    +0.210 HD
ENDBRANCH  37  38
ENDBRANCH  29  37
ENDBRANCH  24  25
ENDBRANCH   4  24
TORSDOF 14
