REMARK  Name = ZINC23980636
REMARK  13 active torsions:
REMARK  status: ('A' for Active; 'I' for Inactive)
REMARK    1  A    between atoms: C_1  and  N_2
REMARK    2  A    between atoms: N_2  and  C_3
REMARK    3  A    between atoms: N_2  and  C_4
REMARK    4  A    between atoms: C_4  and  C_6
REMARK    5  A    between atoms: C_4  and  C_29
REMARK    6  A    between atoms: C_6  and  N_7
REMARK    7  A    between atoms: C_8  and  C_10
REMARK    8  A    between atoms: C_10  and  S_11
REMARK    9  A    between atoms: S_11  and  C_12
REMARK   10  A    between atoms: C_15  and  C_23
REMARK   11  A    between atoms: N_16  and  C_17
REMARK   12  A    between atoms: C_34  and  O_35
REMARK   13  A    between atoms: O_35  and  C_36
REMARK                            x       y       z     vdW  Elec       q    Type
REMARK                         _______ _______ _______ _____ _____    ______ ____
ROOT
ATOM      1  C   UNL     1       2.288   3.133   1.823  0.00  0.00    +0.173 C 
ENDROOT
BRANCH   1   3
ATOM      2  N   UNL     1       0.883   2.070   3.559  0.00  0.00    -0.316 N 
ATOM      3  C   UNL     1       0.978   2.954   2.547  0.00  0.00    +0.223 C 
ATOM      4  O   UNL     1       0.010   3.606   2.218  0.00  0.00    -0.275 OA
ATOM      5  H   UNL     1       1.762   1.479   3.858  0.00  0.00    +0.149 HD
BRANCH   2   6
ATOM      6  C   UNL     1      -0.390   1.897   4.263  0.00  0.00    +0.093 C 
BRANCH   6   7
ATOM      7  C   UNL     1      -0.310   0.663   5.165  0.00  0.00    -0.017 C 
BRANCH   7   8
ATOM      8  C   UNL     1      -1.564   0.566   5.995  0.00  0.00    -0.018 A 
ATOM      9  C   UNL     1      -2.534  -0.364   5.676  0.00  0.00    +0.005 A 
ATOM     10  C   UNL     1      -3.683  -0.457   6.440  0.00  0.00    +0.000 A 
ATOM     11  C   UNL     1      -3.868   0.388   7.520  0.00  0.00    +0.004 A 
ATOM     12  C   UNL     1      -2.903   1.323   7.840  0.00  0.00    +0.046 A 
ATOM     13  C   UNL     1      -1.748   1.415   7.077  0.00  0.00    +0.122 A 
BRANCH  13  14
ATOM     14  O   UNL     1      -0.797   2.334   7.390  0.00  0.00    -0.495 OA
ATOM     15  C   UNL     1      -1.053   3.174   8.517  0.00  0.00    +0.277 C 
ENDBRANCH  13  14
ENDBRANCH   7   8
BRANCH   7  17
ATOM     16  C   UNL     1      -1.014  -0.447   3.131  0.00  0.00    -0.096 C 
ATOM     17  N   UNL     1      -0.178  -0.542   4.335  0.00  0.00    +0.382 N 
ATOM     18  C   UNL     1       1.227  -0.787   3.983  0.00  0.00    -0.096 C 
ATOM     19  H   UNL     1      -0.532  -1.400   4.926  0.00  0.00    -0.082 HD
ENDBRANCH   7  17
ENDBRANCH   6   7
ENDBRANCH   2   6
ENDBRANCH   1   3
BRANCH   1  20
ATOM     20  S   UNL     1       2.095   4.380   0.526  0.00  0.00    -0.076 S 
BRANCH  20  21
ATOM     21  C   UNL     1       3.728   4.387  -0.138  0.00  0.00    +0.197 A 
ATOM     22  N   UNL     1       4.737   3.649   0.268  0.00  0.00    -0.122 NA
ATOM     23  N   UNL     1       5.782   3.905  -0.434  0.00  0.00    -0.128 NA
ATOM     24  C   UNL     1       5.507   4.822  -1.333  0.00  0.00    +0.169 A 
ATOM     25  N   UNL     1       4.179   5.156  -1.175  0.00  0.00    -0.270 N 
BRANCH  25  26
ATOM     26  C   UNL     1       3.446   6.089  -1.920  0.00  0.00    +0.051 A 
ATOM     27  C   UNL     1       3.216   5.874  -3.272  0.00  0.00    +0.026 A 
ATOM     28  C   UNL     1       2.489   6.794  -4.003  0.00  0.00    +0.002 A 
ATOM     29  C   UNL     1       1.999   7.933  -3.391  0.00  0.00    +0.000 A 
ATOM     30  C   UNL     1       2.230   8.152  -2.045  0.00  0.00    +0.002 A 
ATOM     31  C   UNL     1       2.952   7.234  -1.309  0.00  0.00    +0.026 A 
ENDBRANCH  25  26
BRANCH  24  32
ATOM     32  C   UNL     1       6.442   5.385  -2.329  0.00  0.00    +0.020 A 
ATOM     33  C   UNL     1       6.114   6.556  -3.015  0.00  0.00    +0.011 A 
ATOM     34  C   UNL     1       6.994   7.079  -3.940  0.00  0.00    +0.001 A 
ATOM     35  C   UNL     1       8.194   6.440  -4.196  0.00  0.00    +0.000 A 
ATOM     36  C   UNL     1       8.522   5.276  -3.524  0.00  0.00    +0.001 A 
ATOM     37  C   UNL     1       7.654   4.745  -2.593  0.00  0.00    +0.011 A 
ENDBRANCH  24  32
ENDBRANCH  20  21
ENDBRANCH   1  20
TORSDOF 10
