REMARK  Name = ZINC05545536
REMARK  13 active torsions:
REMARK  status: ('A' for Active; 'I' for Inactive)
REMARK    1  A    between atoms: C_1  and  N_2
REMARK    2  A    between atoms: C_5  and  S_12
REMARK    3  A    between atoms: C_6  and  C_7
REMARK    4  A    between atoms: C_7  and  CA_8
REMARK    5  A    between atoms: CA_8  and  C_10
REMARK    6  A    between atoms: CA_8  and  N_57
REMARK    7  A    between atoms: S_12  and  C_13
REMARK    8  A    between atoms: C_14  and  O_35
REMARK    9  A    between atoms: C_16  and  O_34
REMARK   10  A    between atoms: CA_20  and  C_32
REMARK   11  A    between atoms: C_22  and  C_24
REMARK   12  A    between atoms: C_24  and  C_25
REMARK   13  A    between atoms: C_28  and  O_31
REMARK                            x       y       z     vdW  Elec       q    Type
REMARK                         _______ _______ _______ _____ _____    ______ ____
ROOT
ATOM      1  C   UNL     1      -1.485   3.465   2.271  0.00  0.00    +0.059 A 
ATOM      2  C   UNL     1      -1.996   4.756   2.369  0.00  0.00    +0.134 A 
ATOM      3  C   UNL     1      -2.002   5.578   1.255  0.00  0.00    +0.092 A 
ATOM      4  C   UNL     1      -1.499   5.112   0.052  0.00  0.00    +0.122 A 
ATOM      5  C   UNL     1      -0.986   3.822  -0.046  0.00  0.00    -0.015 A 
ATOM      6  C   UNL     1      -0.981   3.000   1.060  0.00  0.00    -0.026 A 
ATOM      7  C   UNL     1      -0.441   1.593   1.002  0.00  0.00    +0.032 C 
ATOM      8  CA  UNL     1       0.418   1.417  -0.250  0.00  0.00    +0.049 C 
ATOM      9  C   UNL     1      -0.445   3.366  -1.377  0.00  0.00    -0.032 C 
ATOM     10  N   UNL     1      -0.342   1.901  -1.418  0.00  0.00    +0.393 N 
ATOM     11  H1  UNL     1      -1.284   1.492  -1.404  0.00  0.00    -0.084 HD
ATOM     12  H2  UNL     1       0.141   1.618  -2.279  0.00  0.00    -0.084 HD
ENDROOT
BRANCH   8  13
ATOM     13  C   UNL     1       0.751  -0.041  -0.436  0.00  0.00    +0.343 C 
ATOM     14  O   UNL     1       0.122  -0.708  -1.223  0.00  0.00    -0.248 OA
ATOM     15  OXT UNL     1       1.745  -0.598   0.273  0.00  0.00    -0.248 OA
ENDBRANCH   8  13
BRANCH   4  16
ATOM     16  O   UNL     1      -1.506   5.920  -1.042  0.00  0.00    -0.506 OA
ATOM     17  H   UNL     1      -2.344   5.924  -1.523  0.00  0.00    +0.292 HD
ENDBRANCH   4  16
BRANCH   2  18
ATOM     18  O   UNL     1      -2.488   5.208   3.554  0.00  0.00    -0.506 OA
ATOM     19  H   UNL     1      -1.829   5.639   4.115  0.00  0.00    +0.292 HD
ENDBRANCH   2  18
BRANCH   1  20
ATOM     20  S   UNL     1      -1.476   2.415   3.687  0.00  0.00    -0.064 S 
BRANCH  20  25
ATOM     21  C   UNL     1       2.677   2.394   6.935  0.00  0.00    +0.150 C 
ATOM     22  N   UNL     1       1.786   2.712   5.816  0.00  0.00    -0.336 N 
ATOM     23  C   UNL     1       2.030   3.593   4.824  0.00  0.00    +0.200 A 
ATOM     24  N   UNL     1       1.010   3.605   4.009  0.00  0.00    -0.229 NA
ATOM     25  C   UNL     1       0.077   2.744   4.451  0.00  0.00    +0.123 A 
ATOM     26  C   UNL     1       0.545   2.170   5.583  0.00  0.00    +0.051 A 
BRANCH  26  27
ATOM     27  C   UNL     1      -0.158   1.137   6.425  0.00  0.00    +0.051 C 
BRANCH  27  28
ATOM     28  CA  UNL     1      -1.003   1.837   7.491  0.00  0.00    +0.046 C 
BRANCH  28  31
ATOM     29  H1  UNL     1      -2.674   2.000   6.300  0.00  0.00    -0.089 HD
ATOM     30  H2  UNL     1      -2.607   3.127   7.521  0.00  0.00    -0.089 HD
ATOM     31  N   UNL     1      -2.061   2.619   6.827  0.00  0.00    +0.387 N 
ATOM     32  H3  UNL     1      -1.629   3.292   6.183  0.00  0.00    -0.089 HD
ENDBRANCH  28  31
BRANCH  28  33
ATOM     33  C   UNL     1      -1.608   0.806   8.409  0.00  0.00    +0.342 C 
ATOM     34  O   UNL     1      -2.757   0.464   8.259  0.00  0.00    -0.248 OA
ATOM     35  OXT UNL     1      -0.871   0.268   9.394  0.00  0.00    -0.248 OA
ENDBRANCH  28  33
ENDBRANCH  27  28
ENDBRANCH  26  27
ENDBRANCH  20  25
ENDBRANCH   1  20
BRANCH   9  36
ATOM     36  C   UNL     1      -1.385   3.833  -2.490  0.00  0.00    +0.024 C 
BRANCH  36  37
ATOM     37  C   UNL     1      -0.875   3.336  -3.819  0.00  0.00    -0.048 A 
ATOM     38  C   UNL     1       0.000   4.111  -4.556  0.00  0.00    +0.007 A 
ATOM     39  C   UNL     1       0.473   3.656  -5.771  0.00  0.00    +0.045 A 
ATOM     40  C   UNL     1       0.060   2.424  -6.257  0.00  0.00    +0.117 A 
ATOM     41  C   UNL     1      -0.824   1.650  -5.519  0.00  0.00    +0.045 A 
ATOM     42  C   UNL     1      -1.289   2.108  -4.301  0.00  0.00    +0.007 A 
BRANCH  40  43
ATOM     43  O   UNL     1       0.518   1.976  -7.456  0.00  0.00    -0.507 OA
ATOM     44  H   UNL     1      -0.030   2.236  -8.209  0.00  0.00    +0.292 HD
ENDBRANCH  40  43
ENDBRANCH  36  37
ENDBRANCH   9  36
TORSDOF 12
