REMARK  Name = ZINC36596624
REMARK  9 active torsions:
REMARK  status: ('A' for Active; 'I' for Inactive)
REMARK    1  A    between atoms: C_1  and  C_2
REMARK    2  A    between atoms: C_2  and  C_3
REMARK    3  A    between atoms: C_3  and  C_5
REMARK    4  A    between atoms: C_3  and  C_6
REMARK    5  A    between atoms: C_6  and  C_8
REMARK    6  A    between atoms: C_6  and  N_12
REMARK    7  A    between atoms: C_8  and  O_10
REMARK    8  A    between atoms: O_10  and  C_11
REMARK    9  A    between atoms: C_24  and  C_26
REMARK                            x       y       z     vdW  Elec       q    Type
REMARK                         _______ _______ _______ _____ _____    ______ ____
ROOT
ATOM      1  N   UNL     1      -0.177  -2.757   3.023  0.00  0.00    -0.286 N 
ATOM      2  C   UNL     1       0.747  -2.008   3.657  0.00  0.00    +0.304 C 
ATOM      3  O   UNL     1       0.656  -0.796   3.650  0.00  0.00    -0.253 OA
ATOM      4  N   UNL     1       1.771  -2.603   4.300  0.00  0.00    -0.273 N 
ATOM      5  C   UNL     1       2.725  -1.813   5.092  0.00  0.00    +0.116 C 
ATOM      6  C   UNL     1       2.613  -2.221   6.566  0.00  0.00    +0.074 C 
ATOM      7  C   UNL     1       2.566  -3.724   6.652  0.00  0.00    +0.040 A 
ATOM      8  C   UNL     1       2.275  -4.547   5.621  0.00  0.00    +0.062 A 
ATOM      9  N   UNL     1       2.324  -5.804   6.066  0.00  0.00    -0.348 N 
ATOM     10  C   UNL     1       2.638  -5.796   7.336  0.00  0.00    +0.171 A 
ATOM     11  N   UNL     1       2.799  -4.514   7.737  0.00  0.00    -0.349 N 
ATOM     12  H   UNL     1       3.034  -4.214   8.629  0.00  0.00    +0.166 HD
ATOM     13  C   UNL     1       1.959  -4.064   4.230  0.00  0.00    +0.156 C 
ATOM     14  H   UNL     1      -0.135  -3.724   3.074  0.00  0.00    +0.151 HD
ATOM     15  H   UNL     1       2.155  -6.597   5.534  0.00  0.00    +0.167 HD
ENDROOT
BRANCH  13  16
ATOM     16  C   UNL     1       3.105  -4.390   3.306  0.00  0.00    -0.017 A 
ATOM     17  C   UNL     1       4.385  -3.974   3.622  0.00  0.00    +0.009 A 
ATOM     18  C   UNL     1       5.439  -4.271   2.778  0.00  0.00    +0.050 A 
ATOM     19  C   UNL     1       5.214  -4.986   1.613  0.00  0.00    +0.166 A 
ATOM     20  C   UNL     1       3.925  -5.405   1.295  0.00  0.00    +0.167 A 
ATOM     21  C   UNL     1       2.874  -5.109   2.148  0.00  0.00    +0.055 A 
ATOM     22  O   UNL     1       3.965  -6.083   0.111  0.00  0.00    -0.453 OA
ATOM     23  C   UNL     1       5.221  -5.723  -0.495  0.00  0.00    +0.466 C 
ATOM     24  O   UNL     1       6.063  -5.402   0.628  0.00  0.00    -0.453 OA
ENDBRANCH  13  16
BRANCH   1  25
ATOM     25  C   UNL     1      -1.245  -2.109   2.258  0.00  0.00    +0.186 C 
BRANCH  25  26
ATOM     26  C   UNL     1      -2.397  -1.745   3.197  0.00  0.00    +0.017 C 
ATOM     27  C   UNL     1      -2.838  -2.990   3.969  0.00  0.00    +0.010 C 
BRANCH  26  29
ATOM     28  C   UNL     1      -1.646   0.627   3.426  0.00  0.00    +0.004 C 
ATOM     29  C   UNL     1      -1.932  -0.672   4.183  0.00  0.00    +0.002 C 
ENDBRANCH  26  29
ENDBRANCH  25  26
BRANCH  25  30
ATOM     30  C   UNL     1      -1.744  -3.052   1.193  0.00  0.00    +0.328 C 
ATOM     31  O   UNL     1      -1.544  -4.239   1.296  0.00  0.00    -0.249 OA
BRANCH  30  32
ATOM     32  O   UNL     1      -2.409  -2.573   0.130  0.00  0.00    -0.467 OA
ATOM     33  C   UNL     1      -2.945  -3.530  -0.785  0.00  0.00    +0.280 C 
ENDBRANCH  30  32
ENDBRANCH  25  30
ENDBRANCH   1  25
TORSDOF 6
