REMARK  Name = ZINC39792300
REMARK  9 active torsions:
REMARK  status: ('A' for Active; 'I' for Inactive)
REMARK    1  A    between atoms: C_1  and  C_2
REMARK    2  A    between atoms: C_2  and  O_3
REMARK    3  A    between atoms: O_3  and  C_4
REMARK    4  A    between atoms: C_4  and  C_6
REMARK    5  A    between atoms: C_7  and  C_20
REMARK    6  A    between atoms: C_12  and  C_14
REMARK    7  A    between atoms: C_20  and  O_21
REMARK    8  A    between atoms: O_21  and  C_22
REMARK    9  A    between atoms: C_22  and  C_24
REMARK                            x       y       z     vdW  Elec       q    Type
REMARK                         _______ _______ _______ _____ _____    ______ ____
ROOT
ATOM      1  C   UNL     1      -2.795  -2.411   0.129  0.00  0.00    +0.081 C 
ATOM      2  C   UNL     1      -2.985  -3.731  -0.085  0.00  0.00    +0.061 C 
ATOM      3  N   UNL     1      -4.241  -4.255  -0.189  0.00  0.00    -0.269 N 
ATOM      4  C   UNL     1      -5.360  -3.526  -0.092  0.00  0.00    +0.304 C 
ATOM      5  O   UNL     1      -6.436  -4.082  -0.198  0.00  0.00    -0.252 OA
ATOM      6  N   UNL     1      -5.333  -2.195   0.120  0.00  0.00    -0.288 N 
ATOM      7  C   UNL     1      -4.024  -1.533   0.254  0.00  0.00    +0.144 C 
ATOM      8  H   UNL     1      -4.328  -5.209  -0.342  0.00  0.00    +0.156 HD
ATOM      9  H   UNL     1      -6.156  -1.686   0.187  0.00  0.00    +0.151 HD
ENDROOT
BRANCH   7  10
ATOM     10  C   UNL     1      -3.976  -0.855   1.599  0.00  0.00    -0.022 A 
ATOM     11  C   UNL     1      -4.364  -1.543   2.734  0.00  0.00    +0.006 A 
ATOM     12  C   UNL     1      -4.320  -0.921   3.967  0.00  0.00    +0.000 A 
ATOM     13  C   UNL     1      -3.888   0.388   4.066  0.00  0.00    +0.000 A 
ATOM     14  C   UNL     1      -3.499   1.075   2.932  0.00  0.00    +0.000 A 
ATOM     15  C   UNL     1      -3.539   0.452   1.698  0.00  0.00    +0.006 A 
ENDBRANCH   7  10
BRANCH   1  16
ATOM     16  C   UNL     1      -1.494  -1.867   0.237  0.00  0.00    +0.339 C 
ATOM     17  O   UNL     1      -0.999  -1.280  -0.707  0.00  0.00    -0.245 OA
BRANCH  16  18
ATOM     18  O   UNL     1      -0.802  -1.998   1.388  0.00  0.00    -0.462 OA
BRANCH  18  20
ATOM     19  C   UNL     1       1.131  -1.672   2.802  0.00  0.00    +0.048 C 
ATOM     20  C   UNL     1       0.506  -1.424   1.428  0.00  0.00    +0.229 C 
ENDBRANCH  18  20
ENDBRANCH  16  18
ENDBRANCH   1  16
BRANCH   2  21
ATOM     21  C   UNL     1      -1.789  -4.640  -0.210  0.00  0.00    +0.283 C 
BRANCH  21  22
ATOM     22  O   UNL     1      -1.771  -5.556   0.886  0.00  0.00    -0.455 OA
BRANCH  22  23
ATOM     23  C   UNL     1      -0.759  -6.445   0.924  0.00  0.00    +0.340 C 
ATOM     24  O   UNL     1       0.085  -6.442   0.051  0.00  0.00    -0.245 OA
BRANCH  23  25
ATOM     25  C   UNL     1      -0.675  -7.423   2.029  0.00  0.00    +0.061 A 
ATOM     26  C   UNL     1      -1.651  -7.428   3.029  0.00  0.00    +0.015 A 
ATOM     27  C   UNL     1      -1.572  -8.344   4.063  0.00  0.00    +0.008 A 
ATOM     28  C   UNL     1      -0.538  -9.244   4.103  0.00  0.00    +0.000 A 
ATOM     29  C   UNL     1       0.452  -9.259   3.112  0.00  0.00    +0.089 A 
ATOM     30  C   UNL     1       0.372  -8.340   2.065  0.00  0.00    +0.044 A 
ATOM     31  N   UNL     1       1.346 -10.248   3.403  0.00  0.00    -0.178 NA
ATOM     32  N   UNL     1       1.099 -10.883   4.428  0.00  0.00    -0.304 N 
ATOM     33  C   UNL     1      -0.132 -10.357   5.042  0.00  0.00    +0.171 C 
ATOM     34  H   UNL     1       1.630 -11.616   4.776  0.00  0.00    +0.183 HD
ENDBRANCH  23  25
ENDBRANCH  22  23
ENDBRANCH  21  22
ENDBRANCH   2  21
TORSDOF 8
