REMARK  Name = ZINC40985394
REMARK  8 active torsions:
REMARK  status: ('A' for Active; 'I' for Inactive)
REMARK    1  A    between atoms: C_1  and  C_2
REMARK    2  A    between atoms: C_3  and  C_16
REMARK    3  A    between atoms: C_5  and  C_7
REMARK    4  A    between atoms: C_12  and  O_13
REMARK    5  A    between atoms: O_13  and  C_14
REMARK    6  A    between atoms: C_16  and  N_17
REMARK    7  A    between atoms: C_20  and  C_23
REMARK    8  A    between atoms: N_25  and  C_26
REMARK                            x       y       z     vdW  Elec       q    Type
REMARK                         _______ _______ _______ _____ _____    ______ ____
ROOT
ATOM      1  N   UNL     1      -2.989  -0.231  -1.370  0.00  0.00    +0.383 N 
ATOM      2  C   UNL     1      -2.251   0.856  -2.025  0.00  0.00    -0.078 C 
ATOM      3  C   UNL     1      -2.685   0.963  -3.488  0.00  0.00    -0.006 C 
ATOM      4  C   UNL     1      -4.187   1.254  -3.549  0.00  0.00    +0.071 C 
ATOM      5  C   UNL     1      -4.941   0.153  -2.799  0.00  0.00    -0.006 C 
ATOM      6  C   UNL     1      -4.424   0.076  -1.361  0.00  0.00    -0.078 C 
ATOM      7  H   UNL     1      -2.833  -1.091  -1.873  0.00  0.00    -0.081 HD
ENDROOT
BRANCH   4   8
ATOM      8  C   UNL     1      -4.636   1.284  -4.987  0.00  0.00    +0.216 C 
ATOM      9  O   UNL     1      -3.835   1.090  -5.877  0.00  0.00    -0.276 OA
ATOM     10  N   UNL     1      -5.929   1.524  -5.285  0.00  0.00    -0.308 N 
ATOM     11  H   UNL     1      -6.569   1.679  -4.573  0.00  0.00    +0.149 HD
BRANCH  10  12
ATOM     12  C   UNL     1      -6.366   1.553  -6.683  0.00  0.00    +0.104 C 
ATOM     13  C   UNL     1      -7.877   1.253  -6.777  0.00  0.00    +0.032 C 
ATOM     14  C   UNL     1      -8.317   2.142  -7.960  0.00  0.00    +0.037 C 
ATOM     15  C   UNL     1      -7.322   3.282  -7.990  0.00  0.00    -0.042 A 
ATOM     16  C   UNL     1      -6.199   2.943  -7.257  0.00  0.00    -0.024 A 
ATOM     17  C   UNL     1      -5.149   3.839  -7.147  0.00  0.00    +0.006 A 
ATOM     18  C   UNL     1      -5.219   5.072  -7.767  0.00  0.00    +0.000 A 
ATOM     19  C   UNL     1      -6.340   5.412  -8.501  0.00  0.00    +0.000 A 
ATOM     20  C   UNL     1      -7.393   4.518  -8.611  0.00  0.00    +0.004 A 
ENDBRANCH  10  12
ENDBRANCH   4   8
BRANCH   1  21
ATOM     21  C   UNL     1      -2.513  -0.381   0.012  0.00  0.00    -0.019 C 
BRANCH  21  24
ATOM     22  C   UNL     1      -0.018   1.503   0.010  0.00  0.00    +0.088 C 
ATOM     23  C   UNL     1       0.002  -0.004   0.002  0.00  0.00    +0.124 A 
ATOM     24  C   UNL     1      -1.070  -0.816   0.003  0.00  0.00    +0.066 A 
ATOM     25  N   UNL     1      -0.627  -2.083  -0.007  0.00  0.00    -0.216 NA
ATOM     26  C   UNL     1       0.686  -2.068  -0.014  0.00  0.00    +0.231 A 
ATOM     27  O   UNL     1       1.099  -0.788  -0.013  0.00  0.00    -0.440 OA
BRANCH  26  28
ATOM     28  C   UNL     1       1.562  -3.257  -0.025  0.00  0.00    +0.079 A 
ATOM     29  C   UNL     1       1.006  -4.537  -0.036  0.00  0.00    +0.032 A 
ATOM     30  C   UNL     1       1.830  -5.644  -0.046  0.00  0.00    +0.019 A 
ATOM     31  C   UNL     1       3.207  -5.490  -0.046  0.00  0.00    +0.019 A 
ATOM     32  C   UNL     1       3.768  -4.227  -0.035  0.00  0.00    +0.047 A 
ATOM     33  C   UNL     1       2.954  -3.106  -0.031  0.00  0.00    +0.132 A 
ATOM     34 BR   UNL     1       1.077  -7.379  -0.061  0.00  0.00    -0.050 Br
BRANCH  33  35
ATOM     35  O   UNL     1       3.505  -1.864  -0.026  0.00  0.00    -0.494 OA
ATOM     36  C   UNL     1       4.931  -1.787  -0.033  0.00  0.00    +0.277 C 
ENDBRANCH  33  35
ENDBRANCH  26  28
ENDBRANCH  21  24
ENDBRANCH   1  21
TORSDOF 6
