REMARK  Name = ZINC14550831
REMARK  7 active torsions:
REMARK  status: ('A' for Active; 'I' for Inactive)
REMARK    1  A    between atoms: C_1  and  C_2
REMARK    2  A    between atoms: C_2  and  C_3
REMARK    3  A    between atoms: C_2  and  N_4
REMARK    4  A    between atoms: N_4  and  S_5
REMARK    5  A    between atoms: S_5  and  C_8
REMARK    6  A    between atoms: C_21  and  C_24
REMARK    7  A    between atoms: C_27  and  N_30
REMARK                            x       y       z     vdW  Elec       q    Type
REMARK                         _______ _______ _______ _____ _____    ______ ____
ROOT
ATOM      1  C   UNL     1      -0.014  -2.780   0.016  0.00  0.00    +0.106 A 
ATOM      2  C   UNL     1      -1.207  -2.080   0.001  0.00  0.00    +0.030 A 
ATOM      3  C   UNL     1      -1.200  -0.701  -0.005  0.00  0.00    +0.025 A 
ATOM      4  C   UNL     1       0.002  -0.004   0.002  0.00  0.00    +0.031 A 
ATOM      5  C   UNL     1       1.205  -0.719   0.004  0.00  0.00    -0.018 A 
ATOM      6  C   UNL     1       1.188  -2.097   0.018  0.00  0.00    +0.034 A 
ATOM      7  C   UNL     1       2.462   0.059  -0.019  0.00  0.00    +0.049 C 
ATOM      8  C   UNL     1       3.731  -0.477   0.534  0.00  0.00    -0.023 C 
ATOM      9  C   UNL     1       4.454   0.536   0.996  0.00  0.00    -0.030 C 
ATOM     10  C   UNL     1       3.691   1.849   0.813  0.00  0.00    +0.033 C 
ATOM     11  C   UNL     1       2.235   1.362   0.804  0.00  0.00    +0.029 C 
ATOM     12  C   UNL     1       1.238   2.179   0.002  0.00  0.00    +0.105 C 
ATOM     13  N   UNL     1      -0.017   1.396   0.010  0.00  0.00    -0.336 N 
ATOM     14  H   UNL     1      -0.868   1.861   0.016  0.00  0.00    +0.147 HD
ENDROOT
BRANCH  12  15
ATOM     15  C   UNL     1       1.018   3.520   0.654  0.00  0.00    -0.027 A 
ATOM     16  C   UNL     1       0.227   3.618   1.784  0.00  0.00    +0.008 A 
ATOM     17  C   UNL     1       0.030   4.847   2.385  0.00  0.00    +0.033 A 
ATOM     18  C   UNL     1       0.616   5.979   1.851  0.00  0.00    +0.126 A 
ATOM     19  C   UNL     1       1.403   5.882   0.719  0.00  0.00    +0.033 A 
ATOM     20  C   UNL     1       1.604   4.652   0.120  0.00  0.00    +0.008 A 
BRANCH  18  21
ATOM     21  N   UNL     1       0.400   7.296   2.492  0.00  0.00    +0.056 N 
ATOM     22  O   UNL     1       0.917   8.294   2.022  0.00  0.00    -0.126 OA
ATOM     23  O   UNL     1      -0.293   7.382   3.489  0.00  0.00    -0.126 OA
ENDBRANCH  18  21
ENDBRANCH  12  15
BRANCH   1  24
ATOM     24  S   UNL     1      -0.027  -4.542   0.032  0.00  0.00    +0.059 S 
ATOM     25  O   UNL     1      -1.271  -4.945  -0.523  0.00  0.00    -0.153 OA
ATOM     26  O   UNL     1       1.220  -4.962  -0.506  0.00  0.00    -0.153 OA
BRANCH  24  27
ATOM     27  N   UNL     1      -0.041  -5.017   1.619  0.00  0.00    -0.187 NA
ATOM     28  H   UNL     1       0.715  -5.501   1.987  0.00  0.00    +0.148 HD
BRANCH  27  30
ATOM     29  C   UNL     1      -1.423  -5.849   3.456  0.00  0.00    +0.025 C 
ATOM     30  C   UNL     1      -1.194  -4.705   2.466  0.00  0.00    +0.070 C 
ATOM     31  C   UNL     1      -0.926  -3.410   3.236  0.00  0.00    +0.025 C 
ENDBRANCH  27  30
ENDBRANCH  24  27
ENDBRANCH   1  24
TORSDOF 5
