REMARK  Name = ZINC39710554
REMARK  15 active torsions:
REMARK  status: ('A' for Active; 'I' for Inactive)
REMARK    1  A    between atoms: C_1  and  C_2
REMARK    2  A    between atoms: C_2  and  C_3
REMARK    3  A    between atoms: C_10  and  C_15
REMARK    4  A    between atoms: C_15  and  C_17
REMARK    5  A    between atoms: C_15  and  N_27
REMARK    6  A    between atoms: N_22  and  C_23
REMARK    7  A    between atoms: C_23  and  C_24
REMARK    8  A    between atoms: C_23  and  C_25
REMARK    9  A    between atoms: C_23  and  C_26
REMARK   10  A    between atoms: N_27  and  C_28
REMARK   11  A    between atoms: N_27  and  C_37
REMARK   12  A    between atoms: C_28  and  C_29
REMARK   13  A    between atoms: C_32  and  O_35
REMARK   14  A    between atoms: O_35  and  C_36
REMARK   15  A    between atoms: C_37  and  C_38
REMARK                            x       y       z     vdW  Elec       q    Type
REMARK                         _______ _______ _______ _____ _____    ______ ____
ROOT
ATOM      1  C   UNL     1       5.886  -1.444  -4.069  0.00  0.00    -0.009 C 
ENDROOT
BRANCH   1   9
ATOM      2  C   UNL     1       7.261  -6.391  -1.295  0.00  0.00    -0.047 A 
ATOM      3  C   UNL     1       6.602  -5.981  -0.136  0.00  0.00    +0.005 A 
ATOM      4  C   UNL     1       5.770  -4.907  -0.106  0.00  0.00    +0.024 A 
ATOM      5  C   UNL     1       5.536  -4.153  -1.271  0.00  0.00    +0.040 A 
ATOM      6  N   UNL     1       4.718  -3.101  -1.230  0.00  0.00    -0.285 N 
ATOM      7  C   UNL     1       4.454  -2.350  -2.286  0.00  0.00    +0.223 C 
ATOM      8  O   UNL     1       3.698  -1.402  -2.188  0.00  0.00    -0.275 OA
ATOM      9  C   UNL     1       5.096  -2.674  -3.616  0.00  0.00    +0.088 C 
ATOM     10  C   UNL     1       6.028  -3.869  -3.668  0.00  0.00    -0.006 C 
ATOM     11  C   UNL     1       6.218  -4.564  -2.510  0.00  0.00    -0.007 A 
ATOM     12  C   UNL     1       7.106  -5.727  -2.469  0.00  0.00    +0.013 A 
ATOM     13  H   UNL     1       4.296  -2.876  -0.386  0.00  0.00    +0.155 HD
BRANCH   2  15
ATOM     14  C   UNL     1       9.588  -7.146  -0.888  0.00  0.00    +0.009 C 
ATOM     15  C   UNL     1       8.168  -7.593  -1.242  0.00  0.00    +0.032 C 
ENDBRANCH   2  15
ENDBRANCH   1   9
BRANCH   1  16
ATOM     16  C   UNL     1       4.917  -0.299  -4.371  0.00  0.00    +0.205 C 
ATOM     17  N   UNL     1       4.082  -0.628  -5.535  0.00  0.00    -0.152 NA
ATOM     18  N   UNL     1       4.290   0.203  -6.422  0.00  0.00    -0.070 NA
ATOM     19  N   UNL     1       5.227   1.167  -6.053  0.00  0.00    -0.179 N 
ATOM     20  N   UNL     1       5.661   0.912  -4.775  0.00  0.00    -0.183 NA
ATOM     21  H   UNL     1       5.526   1.903  -6.611  0.00  0.00    +0.191 HD
BRANCH  20  22
ATOM     22  C   UNL     1       5.360   2.038  -3.880  0.00  0.00    +0.035 C 
ATOM     23  C   UNL     1       5.748   1.668  -2.447  0.00  0.00    +0.029 C 
ATOM     24  C   UNL     1       6.155   3.268  -4.323  0.00  0.00    +0.029 C 
ATOM     25  C   UNL     1       3.863   2.350  -3.939  0.00  0.00    +0.029 C 
ENDBRANCH  20  22
ENDBRANCH   1  16
BRANCH   1  26
ATOM     26  N   UNL     1       6.651  -1.772  -5.279  0.00  0.00    +0.389 N 
ATOM     27  H   UNL     1       7.254  -2.558  -5.093  0.00  0.00    -0.081 HD
BRANCH  26  28
ATOM     28  C   UNL     1       5.724  -2.112  -6.367  0.00  0.00    -0.042 C 
BRANCH  28  29
ATOM     29  C   UNL     1       6.463  -2.872  -7.438  0.00  0.00    -0.064 A 
ATOM     30  C   UNL     1       7.072  -2.189  -8.474  0.00  0.00    +0.005 A 
ATOM     31  C   UNL     1       7.750  -2.884  -9.457  0.00  0.00    +0.046 A 
ATOM     32  C   UNL     1       7.820  -4.268  -9.403  0.00  0.00    +0.120 A 
ATOM     33  C   UNL     1       7.208  -4.952  -8.362  0.00  0.00    +0.046 A 
ATOM     34  C   UNL     1       6.536  -4.252  -7.379  0.00  0.00    +0.005 A 
BRANCH  32  35
ATOM     35  O   UNL     1       8.486  -4.954 -10.369  0.00  0.00    -0.495 OA
ATOM     36  C   UNL     1       8.517  -6.378 -10.250  0.00  0.00    +0.277 C 
ENDBRANCH  32  35
ENDBRANCH  28  29
ENDBRANCH  26  28
BRANCH  26  37
ATOM     37  C   UNL     1       7.463  -0.613  -5.673  0.00  0.00    -0.046 C 
BRANCH  37  38
ATOM     38  C   UNL     1       8.378  -0.214  -4.513  0.00  0.00    +0.102 C 
ATOM     39  C   UNL     1       9.261   0.982  -4.930  0.00  0.00    +0.032 C 
ATOM     40  C   UNL     1      10.624   0.629  -4.275  0.00  0.00    +0.030 C 
ATOM     41  C   UNL     1      10.617  -0.916  -4.395  0.00  0.00    +0.160 C 
ATOM     42  O   UNL     1       9.248  -1.303  -4.184  0.00  0.00    -0.378 OA
ENDBRANCH  37  38
ENDBRANCH  26  37
ENDBRANCH   1  26
TORSDOF 10
