REMARK  Name = ZINC36032775
REMARK  12 active torsions:
REMARK  status: ('A' for Active; 'I' for Inactive)
REMARK    1  A    between atoms: C_1  and  C_2
REMARK    2  A    between atoms: C_2  and  C_3
REMARK    3  A    between atoms: C_3  and  C_5
REMARK    4  A    between atoms: C_3  and  C_6
REMARK    5  A    between atoms: C_6  and  N_7
REMARK    6  A    between atoms: C_10  and  C_29
REMARK    7  A    between atoms: N_16  and  C_19
REMARK    8  A    between atoms: C_19  and  N_21
REMARK    9  A    between atoms: N_21  and  C_22
REMARK   10  A    between atoms: C_29  and  C_30
REMARK   11  A    between atoms: C_30  and  C_31
REMARK   12  A    between atoms: C_30  and  C_32
REMARK                            x       y       z     vdW  Elec       q    Type
REMARK                         _______ _______ _______ _____ _____    ______ ____
ROOT
ATOM      1  N   UNL     1       1.599  -2.652  -1.527  0.00  0.00    -0.313 N 
ATOM      2  C   UNL     1       1.261  -2.915  -2.807  0.00  0.00    +0.200 C 
ATOM      3  O   UNL     1       0.143  -2.853  -3.272  0.00  0.00    -0.277 OA
ATOM      4  C   UNL     1       2.514  -3.299  -3.564  0.00  0.00    +0.019 C 
ATOM      5  N   UNL     1       3.507  -3.625  -2.512  0.00  0.00    +0.401 N 
ATOM      6  C   UNL     1       3.044  -2.824  -1.357  0.00  0.00    +0.006 C 
ATOM      7  C   UNL     1       3.338  -3.575  -0.060  0.00  0.00    +0.025 C 
ATOM      8  C   UNL     1       2.818  -2.760   1.129  0.00  0.00    +0.107 C 
ATOM      9  N   UNL     1       3.389  -1.408   1.060  0.00  0.00    -0.312 N 
ATOM     10  C   UNL     1       3.224  -0.632  -0.176  0.00  0.00    +0.107 C 
ATOM     11  C   UNL     1       3.741  -1.465  -1.354  0.00  0.00    +0.025 C 
ATOM     12  H   UNL     1       3.489  -4.611  -2.298  0.00  0.00    -0.082 HD
ATOM     13  H   UNL     1       4.432  -3.337  -2.794  0.00  0.00    -0.082 HD
ENDROOT
BRANCH   9  14
ATOM     14  C   UNL     1       4.054  -0.890   2.112  0.00  0.00    +0.137 C 
ATOM     15  S   UNL     1       4.130  -1.755   3.588  0.00  0.00    -0.018 S 
BRANCH  14  16
ATOM     16  N   UNL     1       4.658   0.310   2.003  0.00  0.00    -0.295 N 
ATOM     17  H   UNL     1       5.615   0.359   1.853  0.00  0.00    +0.154 HD
BRANCH  16  18
ATOM     18  C   UNL     1       3.904   1.486   2.107  0.00  0.00    +0.068 A 
ATOM     19  C   UNL     1       2.557   1.421   2.435  0.00  0.00    +0.026 A 
ATOM     20  C   UNL     1       1.815   2.583   2.537  0.00  0.00    +0.002 A 
ATOM     21  C   UNL     1       2.414   3.809   2.314  0.00  0.00    +0.003 A 
ATOM     22  C   UNL     1       3.756   3.879   1.988  0.00  0.00    +0.040 A 
ATOM     23  C   UNL     1       4.505   2.720   1.888  0.00  0.00    +0.144 A 
ATOM     24  F   UNL     1       5.817   2.788   1.575  0.00  0.00    -0.204 F 
ENDBRANCH  16  18
ENDBRANCH  14  16
ENDBRANCH   9  14
BRANCH   1  25
ATOM     25  C   UNL     1       0.665  -2.251  -0.472  0.00  0.00    +0.109 C 
BRANCH  25  26
ATOM     26  C   UNL     1      -0.122  -3.473   0.005  0.00  0.00    +0.003 C 
ATOM     27  C   UNL     1       0.847  -4.619   0.303  0.00  0.00    +0.009 C 
BRANCH  26  29
ATOM     28  C   UNL     1      -1.780  -4.299   1.682  0.00  0.00    +0.004 C 
ATOM     29  C   UNL     1      -0.897  -3.117   1.276  0.00  0.00    +0.001 C 
ENDBRANCH  26  29
ENDBRANCH  25  26
ENDBRANCH   1  25
BRANCH   4  30
ATOM     30  C   UNL     1       2.249  -4.520  -4.447  0.00  0.00    -0.004 C 
BRANCH  30  31
ATOM     31  C   UNL     1       3.518  -4.871  -5.226  0.00  0.00    -0.018 C 
ATOM     32  C   UNL     1       3.283  -6.146  -6.037  0.00  0.00    +0.007 C 
ATOM     33  C   UNL     1       3.869  -3.722  -6.173  0.00  0.00    +0.007 C 
ENDBRANCH  30  31
ENDBRANCH   4  30
TORSDOF 8
