REMARK  Name = ZINC07642325
REMARK  6 active torsions:
REMARK  status: ('A' for Active; 'I' for Inactive)
REMARK    1  A    between atoms: C_1  and  C_2
REMARK    2  A    between atoms: C_5  and  S_8
REMARK    3  A    between atoms: N_6  and  N_7
REMARK    4  A    between atoms: S_8  and  C_9
REMARK    5  A    between atoms: C_9  and  C_10
REMARK    6  A    between atoms: C_13  and  C_15
REMARK                            x       y       z     vdW  Elec       q    Type
REMARK                         _______ _______ _______ _____ _____    ______ ____
ROOT
ATOM      1  C   UNL     1       0.073  -4.897   0.313  0.00  0.00    +0.133 C 
ENDROOT
BRANCH   1   2
ATOM      2  C   UNL     1       0.095  -6.239   0.999  0.00  0.00    +0.059 A 
ATOM      3  C   UNL     1       1.280  -6.824   1.309  0.00  0.00    +0.071 A 
ATOM      4  S   UNL     1       0.711  -8.335   2.078  0.00  0.00    -0.075 S 
ATOM      5  C   UNL     1      -1.040  -8.023   1.904  0.00  0.00    +0.109 A 
ATOM      6  N   UNL     1      -1.033  -6.840   1.304  0.00  0.00    -0.243 NA
BRANCH   5   7
ATOM      7  C   UNL     1      -2.188  -8.856   2.321  0.00  0.00    +0.014 A 
ATOM      8  C   UNL     1      -1.988 -10.080   2.956  0.00  0.00    +0.018 A 
ATOM      9  C   UNL     1      -3.062 -10.813   3.322  0.00  0.00    +0.046 A 
ATOM     10  S   UNL     1      -4.421  -9.792   2.779  0.00  0.00    -0.104 S 
ATOM     11  C   UNL     1      -3.474  -8.441   2.098  0.00  0.00    +0.055 A 
ENDBRANCH   5   7
ENDBRANCH   1   2
BRANCH   1  12
ATOM     12  S   UNL     1       0.059  -3.580   1.560  0.00  0.00    -0.078 S 
BRANCH  12  17
ATOM     13  C   UNL     1      -0.018   1.503   0.010  0.00  0.00    +0.090 C 
ATOM     14  C   UNL     1       0.002  -0.004   0.002  0.00  0.00    +0.148 A 
ATOM     15  N   UNL     1       0.008  -0.770  -1.052  0.00  0.00    -0.132 NA
ATOM     16  N   UNL     1       0.027  -2.006  -0.699  0.00  0.00    -0.121 NA
ATOM     17  C   UNL     1       0.034  -2.095   0.611  0.00  0.00    +0.209 A 
ATOM     18  N   UNL     1       0.024  -0.820   1.099  0.00  0.00    -0.228 N 
BRANCH  18  19
ATOM     19  N   UNL     1       0.030  -0.439   2.411  0.00  0.00    -0.295 N 
ATOM     20  H   UNL     1      -0.910  -0.351   2.767  0.00  0.00    +0.163 HD
ATOM     21  H   UNL     1       0.570  -1.081   2.971  0.00  0.00    +0.163 HD
ENDBRANCH  18  19
ENDBRANCH  12  17
ENDBRANCH   1  12
TORSDOF 5
