REMARK  Name = ZINC44460893
REMARK  8 active torsions:
REMARK  status: ('A' for Active; 'I' for Inactive)
REMARK    1  A    between atoms: C_1  and  C_2
REMARK    2  A    between atoms: C_2  and  C_4
REMARK    3  A    between atoms: C_2  and  N_23
REMARK    4  A    between atoms: C_4  and  C_5
REMARK    5  A    between atoms: C_6  and  C_19
REMARK    6  A    between atoms: N_8  and  C_18
REMARK    7  A    between atoms: C_9  and  O_10
REMARK    8  A    between atoms: O_10  and  C_11
REMARK                            x       y       z     vdW  Elec       q    Type
REMARK                         _______ _______ _______ _____ _____    ______ ____
ROOT
ATOM      1  C   UNL     1       0.688  -1.997  -1.425  0.00  0.00    +0.044 A 
ATOM      2  C   UNL     1       1.582  -2.897  -0.837  0.00  0.00    +0.172 A 
ATOM      3  N   UNL     1       1.104  -4.106  -0.984  0.00  0.00    -0.164 NA
ATOM      4  N   UNL     1      -0.113  -4.019  -1.673  0.00  0.00    -0.235 N 
ATOM      5  C   UNL     1      -0.353  -2.713  -1.928  0.00  0.00    +0.222 A 
ATOM      6  C   UNL     1      -0.976  -5.142  -2.044  0.00  0.00    +0.176 C 
ENDROOT
BRANCH   2   7
ATOM      7  C   UNL     1       2.874  -2.537  -0.150  0.00  0.00    +0.436 C 
ATOM      8  F   UNL     1       2.633  -2.312   1.209  0.00  0.00    -0.164 F 
ATOM      9  F   UNL     1       3.788  -3.586  -0.295  0.00  0.00    -0.164 F 
ATOM     10  F   UNL     1       3.401  -1.377  -0.729  0.00  0.00    -0.164 F 
ENDBRANCH   2   7
BRANCH   1  11
ATOM     11  C   UNL     1       0.846  -0.500  -1.484  0.00  0.00    +0.026 C 
BRANCH  11  13
ATOM     12  C   UNL     1       0.256   1.655  -0.364  0.00  0.00    -0.014 C 
ATOM     13  C   UNL     1       0.206   0.130  -0.245  0.00  0.00    -0.074 C 
BRANCH  13  14
ATOM     14  N   UNL     1       0.942  -0.292   0.955  0.00  0.00    +0.380 N 
ATOM     15  H   UNL     1       0.519   0.124   1.771  0.00  0.00    -0.090 HD
ATOM     16  H   UNL     1       0.909  -1.297   1.033  0.00  0.00    -0.090 HD
ATOM     17  H   UNL     1       1.902   0.009   0.883  0.00  0.00    -0.090 HD
ENDBRANCH  13  14
ENDBRANCH  11  13
ENDBRANCH   1  11
BRANCH   5  18
ATOM     18  O   UNL     1      -1.435  -2.208  -2.574  0.00  0.00    -0.438 OA
BRANCH  18  19
ATOM     19  C   UNL     1      -1.397  -2.146  -3.931  0.00  0.00    +0.130 A 
ATOM     20  C   UNL     1      -0.325  -2.693  -4.622  0.00  0.00    +0.048 A 
ATOM     21  C   UNL     1      -0.289  -2.629  -6.001  0.00  0.00    +0.023 A 
ATOM     22  C   UNL     1      -1.320  -2.020  -6.694  0.00  0.00    +0.041 A 
ATOM     23  C   UNL     1      -2.390  -1.474  -6.007  0.00  0.00    +0.023 A 
ATOM     24  C   UNL     1      -2.433  -1.540  -4.628  0.00  0.00    +0.048 A 
ATOM     25 CL   UNL     1      -1.271  -1.940  -8.427  0.00  0.00    -0.084 Cl
ENDBRANCH  18  19
ENDBRANCH   5  18
TORSDOF 6
