REMARK  Name = ZINC44171692
REMARK  19 active torsions:
REMARK  status: ('A' for Active; 'I' for Inactive)
REMARK    1  A    between atoms: C_1  and  N_2
REMARK    2  A    between atoms: C_3  and  C_5
REMARK    3  A    between atoms: C_5  and  C_6
REMARK    4  A    between atoms: C_6  and  S_7
REMARK    5  A    between atoms: S_7  and  C_8
REMARK    6  A    between atoms: C_8  and  C_9
REMARK    7  A    between atoms: C_9  and  O_10
REMARK    8  A    between atoms: O_10  and  C_11
REMARK    9  A    between atoms: C_13  and  O_42
REMARK   10  A    between atoms: C_15  and  O_41
REMARK   11  A    between atoms: C_17  and  O_24
REMARK   12  A    between atoms: C_19  and  C_22
REMARK   13  A    between atoms: C_22  and  O_23
REMARK   14  A    between atoms: O_24  and  C_25
REMARK   15  A    between atoms: C_27  and  O_40
REMARK   16  A    between atoms: C_29  and  O_39
REMARK   17  A    between atoms: C_31  and  O_38
REMARK   18  A    between atoms: C_33  and  C_36
REMARK   19  A    between atoms: C_36  and  O_37
REMARK                            x       y       z     vdW  Elec       q    Type
REMARK                         _______ _______ _______ _____ _____    ______ ____
ROOT
ATOM      1  C   UNL     1       3.239  -8.210   5.254  0.00  0.00    +0.282 C 
ATOM      2  C   UNL     1       3.784  -8.466   6.661  0.00  0.00    +0.201 C 
ATOM      3  C   UNL     1       3.993  -9.971   6.853  0.00  0.00    +0.179 C 
ATOM      4  C   UNL     1       4.936 -10.487   5.762  0.00  0.00    +0.183 C 
ATOM      5  C   UNL     1       4.347 -10.153   4.389  0.00  0.00    +0.178 C 
ATOM      6  O   UNL     1       4.149  -8.741   4.288  0.00  0.00    -0.341 OA
ENDROOT
BRANCH   2   7
ATOM      7  O   UNL     1       2.849  -7.986   7.630  0.00  0.00    -0.384 OA
ATOM      8  H   UNL     1       2.666  -7.038   7.563  0.00  0.00    +0.210 HD
ENDBRANCH   2   7
BRANCH   3   9
ATOM      9  O   UNL     1       4.569 -10.214   8.139  0.00  0.00    -0.386 OA
ATOM     10  H   UNL     1       4.025  -9.906   8.877  0.00  0.00    +0.210 HD
ENDBRANCH   3   9
BRANCH   4  11
ATOM     11  O   UNL     1       6.214  -9.862   5.900  0.00  0.00    -0.340 OA
BRANCH  11  12
ATOM     12  C   UNL     1       7.120 -10.572   6.747  0.00  0.00    +0.282 C 
ATOM     13  C   UNL     1       8.350  -9.702   7.022  0.00  0.00    +0.201 C 
ATOM     14  C   UNL     1       9.343 -10.492   7.880  0.00  0.00    +0.179 C 
ATOM     15  C   UNL     1       9.702 -11.794   7.157  0.00  0.00    +0.177 C 
ATOM     16  C   UNL     1       8.420 -12.583   6.876  0.00  0.00    +0.178 C 
ATOM     17  O   UNL     1       7.528 -11.780   6.101  0.00  0.00    -0.341 OA
BRANCH  13  18
ATOM     18  O   UNL     1       8.967  -9.342   5.784  0.00  0.00    -0.384 OA
ATOM     19  H   UNL     1       8.392  -8.842   5.189  0.00  0.00    +0.210 HD
ENDBRANCH  13  18
BRANCH  14  20
ATOM     20  O   UNL     1      10.524  -9.714   8.082  0.00  0.00    -0.386 OA
ATOM     21  H   UNL     1      10.368  -8.871   8.530  0.00  0.00    +0.210 HD
ENDBRANCH  14  20
BRANCH  15  22
ATOM     22  O   UNL     1      10.357 -11.490   5.924  0.00  0.00    -0.386 OA
ATOM     23  H   UNL     1      11.176 -10.987   6.027  0.00  0.00    +0.210 HD
ENDBRANCH  15  22
BRANCH  16  24
ATOM     24  C   UNL     1       8.765 -13.857   6.102  0.00  0.00    +0.190 C 
BRANCH  24  25
ATOM     25  O   UNL     1       7.587 -14.650   5.941  0.00  0.00    -0.392 OA
ATOM     26  H   UNL     1       7.731 -15.475   5.457  0.00  0.00    +0.210 HD
ENDBRANCH  24  25
ENDBRANCH  16  24
ENDBRANCH  11  12
ENDBRANCH   4  11
BRANCH   5  27
ATOM     27  C   UNL     1       5.312 -10.612   3.294  0.00  0.00    +0.190 C 
BRANCH  27  28
ATOM     28  O   UNL     1       4.713 -10.406   2.014  0.00  0.00    -0.392 OA
ATOM     29  H   UNL     1       5.269 -10.676   1.270  0.00  0.00    +0.210 HD
ENDBRANCH  27  28
ENDBRANCH   5  27
BRANCH   1  30
ATOM     30  O   UNL     1       3.094  -6.803   5.048  0.00  0.00    -0.348 OA
BRANCH  30  31
ATOM     31  C   UNL     1       2.385  -6.460   3.856  0.00  0.00    +0.173 C 
BRANCH  31  32
ATOM     32  C   UNL     1       2.290  -4.938   3.738  0.00  0.00    +0.097 C 
BRANCH  32  33
ATOM     33  S   UNL     1       1.389  -4.503   2.225  0.00  0.00    -0.158 S 
BRANCH  33  34
ATOM     34  C   UNL     1       1.365  -2.689   2.235  0.00  0.00    +0.078 C 
BRANCH  34  35
ATOM     35  C   UNL     1       0.625  -2.182   0.995  0.00  0.00    +0.106 C 
BRANCH  35  38
ATOM     36  C   UNL     1      -0.018   1.461   0.010  0.00  0.00    +0.128 C 
ATOM     37  N   UNL     1       0.002  -0.004   0.002  0.00  0.00    -0.318 N 
ATOM     38  C   UNL     1       0.604  -0.675   1.004  0.00  0.00    +0.214 C 
ATOM     39  O   UNL     1       1.130  -0.067   1.911  0.00  0.00    -0.276 OA
ATOM     40  H   UNL     1      -0.418  -0.491  -0.724  0.00  0.00    +0.148 HD
ENDBRANCH  35  38
ENDBRANCH  34  35
ENDBRANCH  33  34
ENDBRANCH  32  33
ENDBRANCH  31  32
ENDBRANCH  30  31
ENDBRANCH   1  30
TORSDOF 18
