REMARK  Name = ZINC09118001
REMARK  11 active torsions:
REMARK  status: ('A' for Active; 'I' for Inactive)
REMARK    1  A    between atoms: C_1  and  C_2
REMARK    2  A    between atoms: C_2  and  C_4
REMARK    3  A    between atoms: C_2  and  N_63
REMARK    4  A    between atoms: C_7  and  S_16
REMARK    5  A    between atoms: N_8  and  C_9
REMARK    6  A    between atoms: S_16  and  C_17
REMARK    7  A    between atoms: C_17  and  C_18
REMARK    8  A    between atoms: N_23  and  C_24
REMARK    9  A    between atoms: C_24  and  C_25
REMARK   10  A    between atoms: C_24  and  C_26
REMARK   11  A    between atoms: C_24  and  C_27
REMARK                            x       y       z     vdW  Elec       q    Type
REMARK                         _______ _______ _______ _____ _____    ______ ____
ROOT
ATOM      1  C   UNL     1       2.041   0.584  -0.014  0.00  0.00    +0.125 A 
ATOM      2  N   UNL     1       1.216  -0.425  -0.012  0.00  0.00    -0.135 NA
ATOM      3  N   UNL     1       0.002  -0.004   0.002  0.00  0.00    -0.122 NA
ATOM      4  C   UNL     1      -0.016   1.309   0.009  0.00  0.00    +0.197 A 
ATOM      5  N   UNL     1       1.287   1.726  -0.001  0.00  0.00    -0.275 N 
ENDROOT
BRANCH   5   6
ATOM      6  C   UNL     1       1.753   3.050   0.001  0.00  0.00    +0.050 A 
ATOM      7  C   UNL     1       2.457   3.541  -1.090  0.00  0.00    +0.029 A 
ATOM      8  C   UNL     1       2.911   4.845  -1.088  0.00  0.00    +0.040 A 
ATOM      9  C   UNL     1       2.673   5.660   0.006  0.00  0.00    +0.124 A 
ATOM     10  C   UNL     1       1.975   5.171   1.098  0.00  0.00    +0.040 A 
ATOM     11  C   UNL     1       1.515   3.869   1.097  0.00  0.00    +0.029 A 
ATOM     12  F   UNL     1       3.122   6.934   0.009  0.00  0.00    -0.205 F 
ENDBRANCH   5   6
BRANCH   1  14
ATOM     13  C   UNL     1       4.022   0.115  -1.431  0.00  0.00    -0.005 C 
ATOM     14  C   UNL     1       3.546   0.507  -0.030  0.00  0.00    -0.002 C 
BRANCH  14  20
ATOM     15  C   UNL     1       3.472  -0.212   2.280  0.00  0.00    -0.078 C 
ATOM     16  C   UNL     1       3.837  -1.356   3.230  0.00  0.00    -0.019 C 
ATOM     17  C   UNL     1       5.360  -1.507   3.277  0.00  0.00    -0.004 C 
ATOM     18  C   UNL     1       5.884  -1.760   1.861  0.00  0.00    -0.019 C 
ATOM     19  C   UNL     1       5.460  -0.604   0.952  0.00  0.00    -0.078 C 
ATOM     20  N   UNL     1       3.984  -0.528   0.930  0.00  0.00    +0.386 N 
ATOM     21  H   UNL     1       3.607  -1.437   0.635  0.00  0.00    -0.081 HD
ENDBRANCH  14  20
ENDBRANCH   1  14
BRANCH   4  22
ATOM     22  S   UNL     1      -1.446   2.337   0.022  0.00  0.00    -0.076 S 
BRANCH  22  23
ATOM     23  C   UNL     1      -2.742   1.074   0.022  0.00  0.00    +0.173 C 
BRANCH  23  24
ATOM     24  C   UNL     1      -4.094   1.740   0.033  0.00  0.00    +0.231 C 
ATOM     25  O   UNL     1      -4.173   2.950   0.039  0.00  0.00    -0.274 OA
ATOM     26  N   UNL     1      -5.214   0.992   0.035  0.00  0.00    -0.239 N 
ATOM     27  C   UNL     1      -6.423   1.588   0.044  0.00  0.00    +0.306 C 
ATOM     28  O   UNL     1      -6.503   2.800   0.050  0.00  0.00    -0.252 OA
ATOM     29  N   UNL     1      -7.544   0.839   0.046  0.00  0.00    -0.294 N 
ATOM     30  H   UNL     1      -5.151   0.024   0.029  0.00  0.00    +0.159 HD
ATOM     31  H   UNL     1      -7.480  -0.129   0.041  0.00  0.00    +0.151 HD
BRANCH  29  32
ATOM     32  C   UNL     1      -8.857   1.487   0.056  0.00  0.00    +0.028 C 
ATOM     33  C   UNL     1      -9.002   2.366  -1.188  0.00  0.00    +0.031 C 
ATOM     34  C   UNL     1      -9.953   0.419   0.056  0.00  0.00    +0.031 C 
ATOM     35  C   UNL     1      -8.989   2.353   1.310  0.00  0.00    +0.031 C 
ENDBRANCH  29  32
ENDBRANCH  23  24
ENDBRANCH  22  23
ENDBRANCH   4  22
TORSDOF 7
