REMARK  Name = ZINC03011909
REMARK  5 active torsions:
REMARK  status: ('A' for Active; 'I' for Inactive)
REMARK    1  A    between atoms: C_5  and  C_7
REMARK    2  A    between atoms: C_7  and  N_8
REMARK    3  A    between atoms: C_9  and  C_11
REMARK    4  A    between atoms: C_16  and  C_29
REMARK    5  A    between atoms: C_19  and  C_22
REMARK                            x       y       z     vdW  Elec       q    Type
REMARK                         _______ _______ _______ _____ _____    ______ ____
ROOT
ATOM      1  C   UNL     1       1.814  -4.501   2.934  0.00  0.00    +0.149 A 
ATOM      2  C   UNL     1       1.911  -5.858   3.318  0.00  0.00    +0.078 A 
ATOM      3  C   UNL     1       2.156  -5.889   4.643  0.00  0.00    +0.119 A 
ATOM      4  N   UNL     1       2.217  -4.601   5.095  0.00  0.00    -0.238 N 
ATOM      5  N   UNL     1       2.004  -3.755   4.007  0.00  0.00    -0.164 NA
ATOM      6  C   UNL     1       2.473  -4.240   6.492  0.00  0.00    +0.215 C 
ATOM      7  C   UNL     1       3.117  -5.436   7.203  0.00  0.00    +0.063 C 
ATOM      8  C   UNL     1       2.299  -6.704   6.937  0.00  0.00    +0.104 C 
ATOM      9  N   UNL     1       2.330  -6.988   5.489  0.00  0.00    -0.322 N 
ATOM     10  H   UNL     1       2.464  -7.885   5.144  0.00  0.00    +0.148 HD
ENDROOT
BRANCH   8  11
ATOM     11  C   UNL     1       0.875  -6.491   7.384  0.00  0.00    -0.027 A 
ATOM     12  C   UNL     1      -0.007  -5.802   6.574  0.00  0.00    +0.007 A 
ATOM     13  C   UNL     1      -1.313  -5.606   6.983  0.00  0.00    +0.020 A 
ATOM     14  C   UNL     1      -1.736  -6.101   8.204  0.00  0.00    +0.041 A 
ATOM     15  C   UNL     1      -0.852  -6.791   9.014  0.00  0.00    +0.020 A 
ATOM     16  C   UNL     1       0.452  -6.990   8.601  0.00  0.00    +0.007 A 
ATOM     17 CL   UNL     1      -3.376  -5.855   8.719  0.00  0.00    -0.084 Cl
ENDBRANCH   8  11
BRANCH   1  19
ATOM     18  N   UNL     1       1.489  -2.679   1.333  0.00  0.00    -0.306 N 
ATOM     19  C   UNL     1       1.552  -4.005   1.567  0.00  0.00    +0.264 C 
ATOM     20  O   UNL     1       1.393  -4.791   0.655  0.00  0.00    -0.268 OA
ATOM     21  H   UNL     1       1.615  -2.051   2.062  0.00  0.00    +0.149 HD
BRANCH  18  22
ATOM     22  C   UNL     1       1.229  -2.186  -0.022  0.00  0.00    +0.141 C 
BRANCH  22  27
ATOM     23  C   UNL     1      -0.017   1.378   0.010  0.00  0.00    +0.000 A 
ATOM     24  C   UNL     1       1.171   2.086   0.002  0.00  0.00    +0.001 A 
ATOM     25  C   UNL     1       2.377   1.412  -0.013  0.00  0.00    +0.020 A 
ATOM     26  C   UNL     1       2.397   0.029  -0.021  0.00  0.00    +0.046 A 
ATOM     27  C   UNL     1       1.208  -0.679  -0.013  0.00  0.00    -0.012 A 
ATOM     28  C   UNL     1       0.002  -0.004   0.002  0.00  0.00    +0.006 A 
ATOM     29 CL   UNL     1       3.912  -0.818  -0.041  0.00  0.00    -0.083 Cl
ENDBRANCH  22  27
ENDBRANCH  18  22
ENDBRANCH   1  19
BRANCH   6  30
ATOM     30  C   UNL     1       3.418  -3.038   6.546  0.00  0.00    +0.412 C 
ATOM     31  F   UNL     1       2.831  -1.954   5.886  0.00  0.00    -0.168 F 
ATOM     32  F   UNL     1       3.661  -2.696   7.881  0.00  0.00    -0.168 F 
ATOM     33  F   UNL     1       4.626  -3.367   5.922  0.00  0.00    -0.168 F 
ENDBRANCH   6  30
TORSDOF 5
