REMARK  Name = ZINC09244687
REMARK  10 active torsions:
REMARK  status: ('A' for Active; 'I' for Inactive)
REMARK    1  A    between atoms: C_1  and  C_2
REMARK    2  A    between atoms: C_2  and  C_3
REMARK    3  A    between atoms: C_2  and  C_4
REMARK    4  A    between atoms: C_4  and  N_5
REMARK    5  A    between atoms: N_5  and  C_6
REMARK    6  A    between atoms: C_7  and  N_22
REMARK    7  A    between atoms: N_8  and  C_15
REMARK    8  A    between atoms: C_15  and  C_16
REMARK    9  A    between atoms: C_23  and  C_25
REMARK   10  A    between atoms: C_25  and  C_26
REMARK                            x       y       z     vdW  Elec       q    Type
REMARK                         _______ _______ _______ _____ _____    ______ ____
ROOT
ATOM      1  C   UNL     1      -1.480  -2.055   0.612  0.00  0.00    +0.140 A 
ATOM      2  C   UNL     1      -0.703  -2.765  -0.280  0.00  0.00    +0.128 A 
ATOM      3  N   UNL     1      -0.789  -4.138  -0.301  0.00  0.00    -0.276 N 
ATOM      4  C   UNL     1      -1.629  -4.780   0.531  0.00  0.00    +0.331 A 
ATOM      5  O   UNL     1      -1.695  -5.994   0.493  0.00  0.00    -0.246 OA
ATOM      6  N   UNL     1      -2.398  -4.104   1.403  0.00  0.00    -0.273 N 
ATOM      7  H   UNL     1      -3.014  -4.605   2.010  0.00  0.00    +0.173 HD
ATOM      8  C   UNL     1      -2.348  -2.759   1.467  0.00  0.00    +0.277 A 
ATOM      9  O   UNL     1      -3.050  -2.156   2.262  0.00  0.00    -0.266 OA
ENDROOT
BRANCH   1  10
ATOM     10  N   UNL     1      -1.411  -0.647   0.660  0.00  0.00    -0.264 N 
ATOM     11  C   UNL     1      -0.242  -0.038   0.950  0.00  0.00    +0.224 C 
ATOM     12  O   UNL     1       0.730  -0.701   1.248  0.00  0.00    -0.275 OA
BRANCH  10  13
ATOM     13  C   UNL     1      -2.608   0.155   0.397  0.00  0.00    +0.117 C 
BRANCH  13  15
ATOM     14  C   UNL     1      -2.812  -0.712  -1.938  0.00  0.00    +0.009 C 
ATOM     15  C   UNL     1      -2.645   0.546  -1.082  0.00  0.00    +0.001 C 
ATOM     16  C   UNL     1      -3.822   1.492  -1.331  0.00  0.00    +0.009 C 
ENDBRANCH  13  15
ENDBRANCH  10  13
BRANCH  11  17
ATOM     17  C   UNL     1      -0.143   1.465   0.903  0.00  0.00    +0.133 C 
BRANCH  17  18
ATOM     18  C   UNL     1       1.258   1.887   1.265  0.00  0.00    -0.020 A 
ATOM     19  C   UNL     1       2.157   2.225   0.271  0.00  0.00    +0.007 A 
ATOM     20  C   UNL     1       3.441   2.613   0.602  0.00  0.00    +0.020 A 
ATOM     21  C   UNL     1       3.828   2.664   1.929  0.00  0.00    +0.042 A 
ATOM     22  C   UNL     1       2.929   2.326   2.925  0.00  0.00    +0.040 A 
ATOM     23  C   UNL     1       1.642   1.943   2.593  0.00  0.00    +0.046 A 
ATOM     24 CL   UNL     1       0.511   1.525   3.842  0.00  0.00    -0.083 Cl
ATOM     25 CL   UNL     1       5.442   3.150   2.345  0.00  0.00    -0.083 Cl
ENDBRANCH  17  18
ENDBRANCH  11  17
ENDBRANCH   1  10
BRANCH   2  26
ATOM     26  N   UNL     1       0.151  -2.110  -1.134  0.00  0.00    -0.343 N 
ATOM     27  H   UNL     1       0.150  -1.140  -1.171  0.00  0.00    +0.144 HD
ATOM     28  H   UNL     1       0.755  -2.616  -1.699  0.00  0.00    +0.144 HD
ENDBRANCH   2  26
BRANCH   3  29
ATOM     29  C   UNL     1       0.034  -4.905  -1.239  0.00  0.00    +0.163 C 
BRANCH  29  30
ATOM     30  C   UNL     1      -0.714  -5.082  -2.535  0.00  0.00    -0.028 A 
ATOM     31  C   UNL     1      -1.529  -6.184  -2.718  0.00  0.00    +0.005 A 
ATOM     32  C   UNL     1      -2.219  -6.344  -3.905  0.00  0.00    +0.000 A 
ATOM     33  C   UNL     1      -2.086  -5.408  -4.913  0.00  0.00    +0.000 A 
ATOM     34  C   UNL     1      -1.267  -4.309  -4.733  0.00  0.00    +0.000 A 
ATOM     35  C   UNL     1      -0.581  -4.146  -3.544  0.00  0.00    +0.005 A 
ENDBRANCH  29  30
ENDBRANCH   3  29
TORSDOF 8
