REMARK  Name = ZINC09429654
REMARK  5 active torsions:
REMARK  status: ('A' for Active; 'I' for Inactive)
REMARK    1  A    between atoms: C_1  and  C_2
REMARK    2  A    between atoms: C_5  and  S_8
REMARK    3  A    between atoms: S_8  and  C_11
REMARK    4  A    between atoms: C_16  and  C_23
REMARK    5  A    between atoms: N_25  and  C_26
REMARK                            x       y       z     vdW  Elec       q    Type
REMARK                         _______ _______ _______ _____ _____    ______ ____
ROOT
ATOM      1  C   UNL     1       1.746  -5.053  -0.047  0.00  0.00    +0.204 A 
ATOM      2  C   UNL     1       2.559  -4.749  -1.153  0.00  0.00    +0.218 A 
ATOM      3  C   UNL     1       3.970  -5.181  -1.113  0.00  0.00    +0.047 A 
ATOM      4  C   UNL     1       4.837  -4.914  -2.173  0.00  0.00    +0.014 A 
ATOM      5  C   UNL     1       6.138  -5.325  -2.109  0.00  0.00    +0.014 A 
ATOM      6  C   UNL     1       6.608  -6.013  -0.985  0.00  0.00    +0.039 A 
ATOM      7  C   UNL     1       5.755  -6.287   0.079  0.00  0.00    +0.039 A 
ATOM      8  C   UNL     1       4.430  -5.870   0.021  0.00  0.00    +0.054 A 
ATOM      9  N   UNL     1       3.560  -6.126   1.062  0.00  0.00    -0.320 N 
ATOM     10  H   UNL     1       3.883  -6.602   1.843  0.00  0.00    +0.169 HD
ATOM     11  C   UNL     1       2.265  -5.721   1.020  0.00  0.00    +0.278 A 
ATOM     12  O   UNL     1       1.462  -5.995   2.071  0.00  0.00    -0.266 OA
ATOM     13  O   UNL     1       2.112  -4.147  -2.116  0.00  0.00    -0.285 OA
ENDROOT
BRANCH   6  14
ATOM     14  C   UNL     1       8.019  -6.453  -0.929  0.00  0.00    +0.248 C 
ATOM     15  O   UNL     1       8.431  -7.052   0.046  0.00  0.00    -0.270 OA
ATOM     16  N   UNL     1       8.849  -6.191  -1.958  0.00  0.00    -0.282 N 
ATOM     17  H   UNL     1       8.505  -5.774  -2.764  0.00  0.00    +0.155 HD
BRANCH  16  18
ATOM     18  C   UNL     1      10.205  -6.520  -1.865  0.00  0.00    +0.034 A 
ATOM     19  C   UNL     1      11.161  -5.702  -2.453  0.00  0.00    +0.025 A 
ATOM     20  C   UNL     1      12.500  -6.029  -2.360  0.00  0.00    +0.022 A 
ATOM     21  C   UNL     1      12.888  -7.172  -1.682  0.00  0.00    +0.041 A 
ATOM     22  C   UNL     1      11.938  -7.988  -1.095  0.00  0.00    +0.022 A 
ATOM     23  C   UNL     1      10.598  -7.662  -1.180  0.00  0.00    +0.025 A 
ATOM     24 CL   UNL     1      14.572  -7.581  -1.567  0.00  0.00    -0.084 Cl
ENDBRANCH  16  18
ENDBRANCH   6  14
BRANCH   1  25
ATOM     25  S   UNL     1       0.053  -4.561  -0.039  0.00  0.00    +0.034 S 
ATOM     26  O   UNL     1      -0.484  -4.977   1.208  0.00  0.00    -0.164 OA
ATOM     27  O   UNL     1      -0.496  -4.977  -1.282  0.00  0.00    -0.164 OA
BRANCH  25  32
ATOM     28  C   UNL     1      -0.056   1.471  -0.040  0.00  0.00    +0.044 C 
ATOM     29  C   UNL     1      -0.029  -0.035  -0.040  0.00  0.00    -0.050 A 
ATOM     30  C   UNL     1      -0.021  -0.727  -1.237  0.00  0.00    +0.005 A 
ATOM     31  C   UNL     1       0.004  -2.109  -1.237  0.00  0.00    +0.027 A 
ATOM     32  C   UNL     1       0.022  -2.800  -0.040  0.00  0.00    +0.094 A 
ATOM     33  C   UNL     1       0.015  -2.108   1.158  0.00  0.00    +0.027 A 
ATOM     34  C   UNL     1      -0.006  -0.726   1.158  0.00  0.00    +0.005 A 
ENDBRANCH  25  32
ENDBRANCH   1  25
TORSDOF 4
