REMARK  Name = ZINC10215048
REMARK  7 active torsions:
REMARK  status: ('A' for Active; 'I' for Inactive)
REMARK    1  A    between atoms: C_4  and  C_7
REMARK    2  A    between atoms: C_7  and  C_9
REMARK    3  A    between atoms: C_7  and  N_49
REMARK    4  A    between atoms: N_11  and  C_12
REMARK    5  A    between atoms: C_17  and  C_18
REMARK    6  A    between atoms: C_23  and  C_24
REMARK    7  A    between atoms: C_23  and  N_49
REMARK                            x       y       z     vdW  Elec       q    Type
REMARK                         _______ _______ _______ _____ _____    ______ ____
ROOT
ATOM      1  C   UNL     1       6.385  -0.415   4.311  0.00  0.00    +0.048 C 
ENDROOT
BRANCH   1   5
ATOM      2  C   UNL     1       7.120  -4.441   5.534  0.00  0.00    +0.000 A 
ATOM      3  C   UNL     1       8.132  -3.699   4.955  0.00  0.00    +0.000 A 
ATOM      4  C   UNL     1       7.895  -2.396   4.560  0.00  0.00    +0.002 A 
ATOM      5  C   UNL     1       6.644  -1.835   4.742  0.00  0.00    -0.053 A 
ATOM      6  C   UNL     1       5.633  -2.576   5.326  0.00  0.00    +0.002 A 
ATOM      7  C   UNL     1       5.870  -3.880   5.718  0.00  0.00    +0.000 A 
ENDBRANCH   1   5
BRANCH   1   8
ATOM      8  C   UNL     1       6.454   0.495   5.511  0.00  0.00    +0.207 C 
ATOM      9  O   UNL     1       5.487   1.155   5.828  0.00  0.00    -0.277 OA
ATOM     10  N   UNL     1       7.591   0.576   6.231  0.00  0.00    -0.286 N 
ATOM     11  H   UNL     1       8.342   0.001   6.017  0.00  0.00    +0.155 HD
BRANCH  10  12
ATOM     12  C   UNL     1       7.687   1.489   7.287  0.00  0.00    +0.045 A 
ATOM     13  C   UNL     1       6.572   1.773   8.065  0.00  0.00    +0.025 A 
ATOM     14  C   UNL     1       6.669   2.675   9.106  0.00  0.00    +0.022 A 
ATOM     15  C   UNL     1       7.877   3.295   9.375  0.00  0.00    +0.042 A 
ATOM     16  C   UNL     1       8.989   3.014   8.602  0.00  0.00    +0.034 A 
ATOM     17  C   UNL     1       8.898   2.109   7.562  0.00  0.00    +0.077 A 
ATOM     18 CL   UNL     1       7.995   4.428  10.685  0.00  0.00    -0.084 Cl
BRANCH  17  19
ATOM     19  C   UNL     1      10.112   1.798   6.725  0.00  0.00    +0.419 C 
ATOM     20  F   UNL     1      11.203   2.539   7.192  0.00  0.00    -0.166 F 
ATOM     21  F   UNL     1      10.403   0.433   6.813  0.00  0.00    -0.166 F 
ATOM     22  F   UNL     1       9.856   2.135   5.391  0.00  0.00    -0.166 F 
ENDBRANCH  17  19
ENDBRANCH  10  12
ENDBRANCH   1   8
BRANCH   1  23
ATOM     23  N   UNL     1       5.042  -0.320   3.709  0.00  0.00    +0.392 N 
ATOM     24  H   UNL     1       4.696   0.642   3.803  0.00  0.00    -0.084 HD
ATOM     25  H   UNL     1       4.406  -0.962   4.196  0.00  0.00    -0.084 HD
BRANCH  23  26
ATOM     26  C   UNL     1       5.096  -0.681   2.279  0.00  0.00    -0.045 C 
BRANCH  26  27
ATOM     27  C   UNL     1       3.712  -0.575   1.692  0.00  0.00    -0.061 A 
ATOM     28  C   UNL     1       2.872  -1.673   1.703  0.00  0.00    +0.005 A 
ATOM     29  C   UNL     1       1.602  -1.582   1.165  0.00  0.00    +0.050 A 
ATOM     30  C   UNL     1       1.168  -0.388   0.612  0.00  0.00    +0.166 A 
ATOM     31  C   UNL     1       2.014   0.718   0.600  0.00  0.00    +0.166 A 
ATOM     32  C   UNL     1       3.285   0.619   1.141  0.00  0.00    +0.051 A 
ATOM     33  O   UNL     1       1.362   1.760   0.006  0.00  0.00    -0.453 OA
ATOM     34  C   UNL     1      -0.033   1.400   0.024  0.00  0.00    +0.466 C 
ATOM     35  O   UNL     1      -0.015  -0.040   0.026  0.00  0.00    -0.453 OA
ENDBRANCH  26  27
ENDBRANCH  23  26
ENDBRANCH   1  23
TORSDOF 7
