REMARK  Name = ZINC12403474
REMARK  13 active torsions:
REMARK  status: ('A' for Active; 'I' for Inactive)
REMARK    1  A    between atoms: C_1  and  C_2
REMARK    2  A    between atoms: C_4  and  O_10
REMARK    3  A    between atoms: C_6  and  C_9
REMARK    4  A    between atoms: O_10  and  C_11
REMARK    5  A    between atoms: C_11  and  C_12
REMARK    6  A    between atoms: N_14  and  N_15
REMARK    7  A    between atoms: C_16  and  C_18
REMARK    8  A    between atoms: C_18  and  O_19
REMARK    9  A    between atoms: O_19  and  C_20
REMARK   10  A    between atoms: C_23  and  C_27
REMARK   11  A    between atoms: C_27  and  C_28
REMARK   12  A    between atoms: C_27  and  C_29
REMARK   13  A    between atoms: C_27  and  C_30
REMARK                            x       y       z     vdW  Elec       q    Type
REMARK                         _______ _______ _______ _____ _____    ______ ____
ROOT
ATOM      1  N   UNL     1      -4.041   5.886   0.053  0.00  0.00    -0.231 N 
ATOM      2  C   UNL     1      -4.235   7.220   0.061  0.00  0.00    +0.267 C 
ATOM      3  O   UNL     1      -3.282   7.971   0.061  0.00  0.00    -0.271 OA
ATOM      4  H   UNL     1      -4.803   5.285   0.053  0.00  0.00    +0.173 HD
ENDROOT
BRANCH   1   7
ATOM      5  C   UNL     1      -2.546   4.033   0.036  0.00  0.00    +0.267 C 
ATOM      6  O   UNL     1      -3.498   3.282   0.036  0.00  0.00    -0.271 OA
ATOM      7  N   UNL     1      -2.740   5.367   0.044  0.00  0.00    -0.231 N 
ATOM      8  H   UNL     1      -1.978   5.968   0.044  0.00  0.00    +0.173 HD
BRANCH   5   9
ATOM      9  C   UNL     1      -1.146   3.475   0.026  0.00  0.00    +0.326 C 
BRANCH   9  10
ATOM     10  O   UNL     1      -1.202   2.047   0.019  0.00  0.00    -0.483 OA
BRANCH  10  14
ATOM     11  C   UNL     1       1.229  -2.184  -0.021  0.00  0.00    +0.045 C 
ATOM     12  C   UNL     1       1.208  -0.677  -0.013  0.00  0.00    -0.028 A 
ATOM     13  C   UNL     1       0.002  -0.004   0.002  0.00  0.00    +0.050 A 
ATOM     14  C   UNL     1      -0.017   1.383   0.010  0.00  0.00    +0.122 A 
ATOM     15  C   UNL     1       1.176   2.091   0.002  0.00  0.00    +0.050 A 
ATOM     16  C   UNL     1       2.380   1.414  -0.013  0.00  0.00    -0.028 A 
ATOM     17  C   UNL     1       2.397   0.030  -0.021  0.00  0.00    +0.047 A 
ATOM     18 CL   UNL     1       3.911  -0.818  -0.041  0.00  0.00    -0.083 Cl
ATOM     19  C   UNL     1       3.676   2.183  -0.022  0.00  0.00    +0.045 C 
ENDBRANCH  10  14
ENDBRANCH   9  10
ENDBRANCH   5   9
ENDBRANCH   1   7
BRANCH   2  20
ATOM     20  C   UNL     1      -5.634   7.778   0.071  0.00  0.00    +0.326 C 
BRANCH  20  21
ATOM     21  O   UNL     1      -5.578   9.206   0.079  0.00  0.00    -0.482 OA
BRANCH  21  22
ATOM     22  C   UNL     1      -6.764   9.870   0.088  0.00  0.00    +0.135 A 
ATOM     23  C   UNL     1      -7.957   9.162   0.089  0.00  0.00    +0.047 A 
ATOM     24  C   UNL     1      -9.161   9.840   0.099  0.00  0.00    +0.008 A 
ATOM     25  C   UNL     1      -9.178  11.222   0.108  0.00  0.00    -0.041 A 
ATOM     26  C   UNL     1      -7.990  11.931   0.106  0.00  0.00    +0.023 A 
ATOM     27  C   UNL     1      -6.783  11.258   0.101  0.00  0.00    +0.060 A 
ATOM     28 BR   UNL     1      -5.159  12.227   0.106  0.00  0.00    -0.047 Br
BRANCH  25  29
ATOM     29  C   UNL     1     -10.492  11.958   0.119  0.00  0.00    -0.013 C 
ATOM     30  C   UNL     1     -11.283  11.570   1.370  0.00  0.00    +0.015 C 
ATOM     31  C   UNL     1     -10.233  13.466   0.127  0.00  0.00    +0.015 C 
ATOM     32  C   UNL     1     -11.296  11.586  -1.128  0.00  0.00    +0.015 C 
ENDBRANCH  25  29
ENDBRANCH  21  22
ENDBRANCH  20  21
ENDBRANCH   2  20
TORSDOF 8
