REMARK  Name = ZINC64981627
REMARK  13 active torsions:
REMARK  status: ('A' for Active; 'I' for Inactive)
REMARK    1  A    between atoms: C_1  and  C_2
REMARK    2  A    between atoms: C_2  and  N_3
REMARK    3  A    between atoms: N_16  and  N_17
REMARK    4  A    between atoms: C_18  and  C_19
REMARK    5  A    between atoms: C_22  and  O_27
REMARK    6  A    between atoms: C_23  and  O_25
REMARK    7  A    between atoms: O_25  and  C_26
REMARK    8  A    between atoms: O_27  and  C_28
REMARK    9  A    between atoms: C_28  and  C_29
REMARK   10  A    between atoms: C_32  and  C_35
REMARK   11  A    between atoms: C_35  and  C_36
REMARK   12  A    between atoms: C_35  and  C_37
REMARK   13  A    between atoms: C_35  and  C_38
REMARK                            x       y       z     vdW  Elec       q    Type
REMARK                         _______ _______ _______ _____ _____    ______ ____
ROOT
ATOM      1  C   UNL     1      -4.346  -1.534  -7.814  0.00  0.00    -0.002 A 
ATOM      2  C   UNL     1      -5.591  -1.992  -7.373  0.00  0.00    +0.013 A 
ATOM      3  C   UNL     1      -6.561  -2.340  -8.289  0.00  0.00    +0.050 A 
ATOM      4  C   UNL     1      -6.305  -2.239  -9.649  0.00  0.00    +0.162 A 
ATOM      5  C   UNL     1      -5.066  -1.784 -10.095  0.00  0.00    +0.162 A 
ATOM      6  C   UNL     1      -4.091  -1.427  -9.183  0.00  0.00    +0.059 A 
ENDROOT
BRANCH   1   8
ATOM      7  N   UNL     1      -3.547  -1.261  -5.565  0.00  0.00    -0.187 NA
ATOM      8  C   UNL     1      -3.308  -1.160  -6.837  0.00  0.00    +0.138 C 
BRANCH   7  22
ATOM      9  N   UNL     1      -1.372  -0.511   0.012  0.00  0.00    -0.324 N 
ATOM     10  C   UNL     1      -2.105  -0.786   1.156  0.00  0.00    +0.053 A 
ATOM     11  C   UNL     1      -1.803  -0.679   2.509  0.00  0.00    +0.026 A 
ATOM     12  C   UNL     1      -2.742  -1.028   3.456  0.00  0.00    +0.002 A 
ATOM     13  C   UNL     1      -3.993  -1.488   3.073  0.00  0.00    +0.001 A 
ATOM     14  C   UNL     1      -4.311  -1.601   1.737  0.00  0.00    +0.012 A 
ATOM     15  C   UNL     1      -3.371  -1.252   0.769  0.00  0.00    +0.029 A 
ATOM     16  C   UNL     1      -3.383  -1.250  -0.703  0.00  0.00    +0.138 A 
ATOM     17  C   UNL     1      -2.118  -0.776  -1.109  0.00  0.00    +0.166 A 
ATOM     18  N   UNL     1      -1.872  -0.673  -2.412  0.00  0.00    -0.192 NA
ATOM     19  C   UNL     1      -2.815  -1.013  -3.280  0.00  0.00    +0.256 A 
ATOM     20  N   UNL     1      -4.001  -1.454  -2.873  0.00  0.00    -0.111 NA
ATOM     21  N   UNL     1      -4.281  -1.578  -1.621  0.00  0.00    -0.142 NA
ATOM     22  N   UNL     1      -2.560  -0.905  -4.636  0.00  0.00    -0.204 N 
ATOM     23  H   UNL     1      -1.698  -0.584  -4.944  0.00  0.00    +0.177 HD
BRANCH   9  25
ATOM     24  C   UNL     1      -0.019   1.526   0.010  0.00  0.00    +0.027 C 
ATOM     25  C   UNL     1       0.002  -0.004   0.002  0.00  0.00    +0.120 C 
ENDBRANCH   9  25
ENDBRANCH   7  22
ENDBRANCH   1   8
BRANCH   5  26
ATOM     26  O   UNL     1      -4.819  -1.686 -11.429  0.00  0.00    -0.491 OA
ATOM     27  C   UNL     1      -3.527  -1.212 -11.816  0.00  0.00    +0.277 C 
ENDBRANCH   5  26
BRANCH   4  28
ATOM     28  O   UNL     1      -7.265  -2.584 -10.547  0.00  0.00    -0.484 OA
BRANCH  28  29
ATOM     29  C   UNL     1      -8.511  -3.043 -10.020  0.00  0.00    +0.264 C 
BRANCH  29  30
ATOM     30  C   UNL     1      -9.444  -3.378 -11.156  0.00  0.00    -0.010 A 
ATOM     31  C   UNL     1     -10.279  -2.405 -11.674  0.00  0.00    +0.007 A 
ATOM     32  C   UNL     1     -11.134  -2.712 -12.716  0.00  0.00    +0.004 A 
ATOM     33  C   UNL     1     -11.155  -3.991 -13.239  0.00  0.00    -0.042 A 
ATOM     34  C   UNL     1     -10.319  -4.963 -12.722  0.00  0.00    +0.004 A 
ATOM     35  C   UNL     1      -9.461  -4.655 -11.683  0.00  0.00    +0.007 A 
BRANCH  33  36
ATOM     36  C   UNL     1     -12.088  -4.325 -14.374  0.00  0.00    -0.013 C 
ATOM     37  C   UNL     1     -11.766  -3.438 -15.578  0.00  0.00    +0.015 C 
ATOM     38  C   UNL     1     -11.913  -5.795 -14.763  0.00  0.00    +0.015 C 
ATOM     39  C   UNL     1     -13.533  -4.083 -13.935  0.00  0.00    +0.015 C 
ENDBRANCH  33  36
ENDBRANCH  29  30
ENDBRANCH  28  29
ENDBRANCH   4  28
TORSDOF 8
