REMARK  Name = ZINC54641317
REMARK  14 active torsions:
REMARK  status: ('A' for Active; 'I' for Inactive)
REMARK    1  A    between atoms: C_1  and  C_2
REMARK    2  A    between atoms: C_2  and  O_3
REMARK    3  A    between atoms: O_3  and  C_4
REMARK    4  A    between atoms: C_6  and  C_21
REMARK    5  A    between atoms: C_9  and  O_10
REMARK    6  A    between atoms: O_10  and  C_11
REMARK    7  A    between atoms: C_11  and  C_12
REMARK    8  A    between atoms: C_14  and  C_20
REMARK    9  A    between atoms: C_15  and  C_19
REMARK   10  A    between atoms: C_17  and  C_18
REMARK   11  A    between atoms: C_23  and  C_32
REMARK   12  A    between atoms: C_24  and  C_31
REMARK   13  A    between atoms: C_32  and  O_34
REMARK   14  A    between atoms: O_34  and  C_35
REMARK                            x       y       z     vdW  Elec       q    Type
REMARK                         _______ _______ _______ _____ _____    ______ ____
ROOT
ATOM      1  C   UNL     1      -1.273  -1.763  -0.080  0.00  0.00    +0.162 A 
ATOM      2  C   UNL     1      -0.213  -2.647   0.033  0.00  0.00    +0.055 A 
ATOM      3  C   UNL     1      -0.437  -4.009  -0.047  0.00  0.00    -0.015 A 
ATOM      4  C   UNL     1      -1.718  -4.492  -0.239  0.00  0.00    +0.010 A 
ATOM      5  C   UNL     1      -2.781  -3.614  -0.353  0.00  0.00    +0.050 A 
ATOM      6  C   UNL     1      -2.564  -2.248  -0.269  0.00  0.00    +0.162 A 
ENDROOT
BRANCH   3   7
ATOM      7  C   UNL     1       0.718  -4.970   0.076  0.00  0.00    +0.179 C 
ATOM      8  C   UNL     1       0.822  -5.792  -1.180  0.00  0.00    +0.082 C 
ATOM      9  C   UNL     1       0.488  -7.091  -1.235  0.00  0.00    +0.020 C 
ATOM     10  N   UNL     1       0.034  -7.777  -0.137  0.00  0.00    -0.287 N 
ATOM     11  C   UNL     1       0.173  -7.164   1.101  0.00  0.00    +0.218 A 
ATOM     12  N   UNL     1       0.497  -5.852   1.218  0.00  0.00    -0.221 N 
ATOM     13  N   UNL     1       0.559  -5.579   2.584  0.00  0.00    -0.156 NA
ATOM     14  C   UNL     1       0.274  -6.697   3.206  0.00  0.00    +0.247 A 
ATOM     15  N   UNL     1       0.040  -7.655   2.303  0.00  0.00    -0.201 NA
ATOM     16  C   UNL     1       0.618  -7.822  -2.547  0.00  0.00    +0.061 C 
ATOM     17  H   UNL     1      -0.370  -8.655  -0.222  0.00  0.00    +0.155 HD
BRANCH   8  18
ATOM     18  C   UNL     1       1.293  -5.168  -2.356  0.00  0.00    +0.339 C 
ATOM     19  O   UNL     1       2.489  -5.017  -2.528  0.00  0.00    -0.245 OA
BRANCH  18  20
ATOM     20  O   UNL     1       0.418  -4.739  -3.290  0.00  0.00    -0.458 OA
BRANCH  20  21
ATOM     21  C   UNL     1       0.964  -4.116  -4.454  0.00  0.00    +0.177 C 
ATOM     22  C   UNL     1       1.091  -2.611  -4.215  0.00  0.00    +0.044 C 
ATOM     23  C   UNL     1       1.675  -1.944  -5.462  0.00  0.00    +0.004 C 
ATOM     24  C   UNL     1       0.752  -2.195  -6.656  0.00  0.00    +0.000 C 
ATOM     25  C   UNL     1       0.625  -3.701  -6.894  0.00  0.00    +0.004 C 
ATOM     26  C   UNL     1       0.040  -4.368  -5.648  0.00  0.00    +0.044 C 
ENDBRANCH  20  21
ENDBRANCH  18  20
ENDBRANCH   8  18
ENDBRANCH   3   7
BRANCH   1  27
ATOM     27  O   UNL     1      -1.054  -0.423  -0.002  0.00  0.00    -0.489 OA
BRANCH  27  29
ATOM     28  C   UNL     1       0.344   1.532   0.255  0.00  0.00    +0.048 C 
ATOM     29  C   UNL     1       0.296   0.004   0.192  0.00  0.00    +0.226 C 
ENDBRANCH  27  29
ENDBRANCH   1  27
BRANCH   6  30
ATOM     30  O   UNL     1      -3.608  -1.385  -0.374  0.00  0.00    -0.484 OA
BRANCH  30  31
ATOM     31  C   UNL     1      -4.905  -1.954  -0.567  0.00  0.00    +0.265 C 
BRANCH  31  32
ATOM     32  C   UNL     1      -5.929  -0.853  -0.661  0.00  0.00    -0.007 A 
ATOM     33  C   UNL     1      -5.534   0.468  -0.566  0.00  0.00    +0.010 A 
ATOM     34  C   UNL     1      -6.473   1.479  -0.652  0.00  0.00    -0.047 A 
ATOM     35  C   UNL     1      -7.808   1.168  -0.835  0.00  0.00    -0.047 A 
ATOM     36  C   UNL     1      -8.203  -0.153  -0.931  0.00  0.00    +0.007 A 
ATOM     37  C   UNL     1      -7.263  -1.164  -0.849  0.00  0.00    -0.044 A 
ATOM     38  C   UNL     1      -7.692  -2.604  -0.959  0.00  0.00    +0.044 C 
ATOM     39  C   UNL     1      -8.832   2.269  -0.928  0.00  0.00    +0.044 C 
ATOM     40  C   UNL     1      -6.042   2.919  -0.548  0.00  0.00    +0.044 C 
ENDBRANCH  31  32
ENDBRANCH  30  31
ENDBRANCH   6  30
TORSDOF 9
