REMARK  Name = ZINC09593806
REMARK  7 active torsions:
REMARK  status: ('A' for Active; 'I' for Inactive)
REMARK    1  A    between atoms: C_1  and  C_2
REMARK    2  A    between atoms: C_2  and  C_3
REMARK    3  A    between atoms: C_2  and  C_4
REMARK    4  A    between atoms: C_4  and  N_5
REMARK    5  A    between atoms: C_6  and  C_8
REMARK    6  A    between atoms: C_10  and  C_25
REMARK    7  A    between atoms: C_14  and  C_19
REMARK                            x       y       z     vdW  Elec       q    Type
REMARK                         _______ _______ _______ _____ _____    ______ ____
ROOT
ATOM      1  C   UNL     1      -0.330  -0.534   1.482  0.00  0.00    +0.166 C 
ATOM      2  C   UNL     1      -0.107   0.015   0.066  0.00  0.00    +0.140 C 
ATOM      3  N   UNL     1      -1.133  -0.497  -0.843  0.00  0.00    -0.272 N 
ATOM      4  N   UNL     1      -1.153  -1.851  -0.938  0.00  0.00    -0.221 N 
ATOM      5  C   UNL     1      -1.670  -2.613  -1.958  0.00  0.00    +0.182 A 
ATOM      6  N   UNL     1      -1.489  -3.873  -1.629  0.00  0.00    -0.127 NA
ATOM      7  N   UNL     1      -0.896  -3.950  -0.488  0.00  0.00    -0.121 NA
ATOM      8  C   UNL     1      -0.665  -2.748  -0.030  0.00  0.00    +0.210 A 
ATOM      9  S   UNL     1       0.136  -2.293   1.476  0.00  0.00    -0.069 S 
ATOM     10  H   UNL     1      -1.053  -0.072  -1.755  0.00  0.00    +0.167 HD
ENDROOT
BRANCH   2  11
ATOM     11  C   UNL     1      -0.176   1.520   0.099  0.00  0.00    -0.024 A 
ATOM     12  C   UNL     1      -1.403   2.155   0.103  0.00  0.00    +0.007 A 
ATOM     13  C   UNL     1      -1.467   3.535   0.139  0.00  0.00    +0.020 A 
ATOM     14  C   UNL     1      -0.302   4.281   0.159  0.00  0.00    +0.041 A 
ATOM     15  C   UNL     1       0.926   3.645   0.149  0.00  0.00    +0.020 A 
ATOM     16  C   UNL     1       0.989   2.264   0.119  0.00  0.00    +0.007 A 
ATOM     17 CL   UNL     1      -0.381   6.015   0.197  0.00  0.00    -0.084 Cl
ENDBRANCH   2  11
BRANCH   5  18
ATOM     18  C   UNL     1      -2.311  -2.111  -3.192  0.00  0.00    +0.021 A 
ATOM     19  C   UNL     1      -2.778  -0.797  -3.254  0.00  0.00    +0.011 A 
ATOM     20  C   UNL     1      -3.370  -0.333  -4.411  0.00  0.00    +0.001 A 
ATOM     21  C   UNL     1      -3.512  -1.170  -5.503  0.00  0.00    +0.000 A 
ATOM     22  C   UNL     1      -3.056  -2.475  -5.446  0.00  0.00    +0.001 A 
ATOM     23  C   UNL     1      -2.456  -2.950  -4.298  0.00  0.00    +0.011 A 
ENDBRANCH   5  18
BRANCH   1  25
ATOM     24  N   UNL     1      -2.117  -0.114   3.139  0.00  0.00    -0.314 N 
ATOM     25  C   UNL     1      -1.780  -0.388   1.864  0.00  0.00    +0.229 C 
ATOM     26  O   UNL     1      -2.644  -0.517   1.023  0.00  0.00    -0.275 OA
ATOM     27  H   UNL     1      -1.425  -0.010   3.812  0.00  0.00    +0.149 HD
BRANCH  24  28
ATOM     28  C   UNL     1      -3.527   0.029   3.511  0.00  0.00    +0.107 C 
BRANCH  28  30
ATOM     29  C   UNL     1      -2.998   1.699   5.292  0.00  0.00    +0.009 C 
ATOM     30  C   UNL     1      -3.632   0.336   5.006  0.00  0.00    -0.000 C 
ATOM     31  C   UNL     1      -5.105   0.361   5.419  0.00  0.00    +0.009 C 
ENDBRANCH  28  30
ENDBRANCH  24  28
ENDBRANCH   1  25
TORSDOF 5
