REMARK  Name = ZINC25244601
REMARK  7 active torsions:
REMARK  status: ('A' for Active; 'I' for Inactive)
REMARK    1  A    between atoms: C_1  and  C_2
REMARK    2  A    between atoms: C_2  and  C_4
REMARK    3  A    between atoms: C_2  and  S_20
REMARK    4  A    between atoms: C_10  and  C_15
REMARK    5  A    between atoms: S_20  and  C_21
REMARK    6  A    between atoms: C_24  and  C_27
REMARK    7  A    between atoms: C_27  and  C_28
REMARK                            x       y       z     vdW  Elec       q    Type
REMARK                         _______ _______ _______ _____ _____    ______ ____
ROOT
ATOM      1  C   UNL     1      -1.412  -0.526   0.013  0.00  0.00    +0.124 A 
ATOM      2  N   UNL     1      -1.993  -0.854   1.195  0.00  0.00    -0.309 N 
ATOM      3  H   UNL     1      -1.490  -0.749   2.018  0.00  0.00    +0.170 HD
ATOM      4  C   UNL     1      -3.253  -1.323   1.248  0.00  0.00    +0.260 A 
ATOM      5  O   UNL     1      -3.761  -1.613   2.318  0.00  0.00    -0.267 OA
ATOM      6  C   UNL     1      -3.989  -1.475   0.030  0.00  0.00    +0.080 A 
ATOM      7  C   UNL     1      -5.351  -1.956  -0.171  0.00  0.00    +0.010 A 
ATOM      8  C   UNL     1      -5.841  -2.013  -1.435  0.00  0.00    +0.057 A 
ATOM      9  S   UNL     1      -4.487  -1.419  -2.430  0.00  0.00    -0.076 S 
ATOM     10  C   UNL     1      -3.307  -1.110  -1.142  0.00  0.00    +0.116 A 
ATOM     11  N   UNL     1      -2.059  -0.649  -1.115  0.00  0.00    -0.225 NA
ENDROOT
BRANCH   7  12
ATOM     12  C   UNL     1      -6.181  -2.374   0.978  0.00  0.00    +0.021 A 
ATOM     13  C   UNL     1      -7.462  -2.008   1.296  0.00  0.00    +0.016 A 
ATOM     14  C   UNL     1      -8.037  -2.533   2.434  0.00  0.00    +0.008 A 
ATOM     15  C   UNL     1      -7.321  -3.393   3.201  0.00  0.00    +0.046 A 
ATOM     16  S   UNL     1      -5.777  -3.492   2.310  0.00  0.00    -0.097 S 
ENDBRANCH   7  12
BRANCH   1  18
ATOM     17  C   UNL     1      -0.019   1.526   0.010  0.00  0.00    +0.027 C 
ATOM     18  C   UNL     1       0.002  -0.004   0.002  0.00  0.00    +0.117 C 
BRANCH  18  19
ATOM     19  S   UNL     1       0.879  -0.605   1.472  0.00  0.00    -0.076 S 
BRANCH  19  20
ATOM     20  C   UNL     1       2.533  -0.042   1.241  0.00  0.00    +0.185 A 
ATOM     21  N   UNL     1       2.979   0.654   0.216  0.00  0.00    -0.206 NA
ATOM     22  H   UNL     1       3.544  -0.720   2.930  0.00  0.00    +0.191 HD
ATOM     23  C   UNL     1       4.279   0.904   0.375  0.00  0.00    +0.152 A 
ATOM     24  N   UNL     1       4.683   0.374   1.498  0.00  0.00    -0.157 NA
ATOM     25  N   UNL     1       3.567  -0.243   2.086  0.00  0.00    -0.254 N 
BRANCH  23  26
ATOM     26  C   UNL     1       5.145   1.674  -0.589  0.00  0.00    +0.081 C 
BRANCH  26  27
ATOM     27  C   UNL     1       5.118   3.159  -0.223  0.00  0.00    -0.004 C 
ATOM     28  C   UNL     1       3.714   3.743  -0.487  0.00  0.00    +0.004 C 
ATOM     29  C   UNL     1       3.990   5.171  -1.018  0.00  0.00    +0.000 C 
ATOM     30  C   UNL     1       5.250   4.972  -1.897  0.00  0.00    +0.000 C 
ATOM     31  C   UNL     1       6.094   3.941  -1.120  0.00  0.00    +0.004 C 
ENDBRANCH  26  27
ENDBRANCH  23  26
ENDBRANCH  19  20
ENDBRANCH  18  19
ENDBRANCH   1  18
TORSDOF 6
