REMARK  Name = ZINC08659689
REMARK  8 active torsions:
REMARK  status: ('A' for Active; 'I' for Inactive)
REMARK    1  A    between atoms: C_1  and  C_2
REMARK    2  A    between atoms: C_2  and  N_3
REMARK    3  A    between atoms: C_7  and  C_8
REMARK    4  A    between atoms: C_13  and  O_14
REMARK    5  A    between atoms: N_18  and  C_19
REMARK    6  A    between atoms: C_22  and  O_25
REMARK    7  A    between atoms: O_25  and  C_26
REMARK    8  A    between atoms: C_26  and  C_27
REMARK                            x       y       z     vdW  Elec       q    Type
REMARK                         _______ _______ _______ _____ _____    ______ ____
ROOT
ATOM      1  N   UNL     1      -0.057   1.279  -0.371  0.00  0.00    -0.246 N 
ATOM      2  C   UNL     1      -0.022  -0.036  -0.238  0.00  0.00    +0.259 C 
ATOM      3  O   UNL     1      -1.043  -0.697  -0.184  0.00  0.00    -0.269 OA
ATOM      4  C   UNL     1       1.309  -0.666  -0.160  0.00  0.00    +0.078 C 
ATOM      5  C   UNL     1       1.635  -1.977  -0.025  0.00  0.00    +0.032 C 
ATOM      6  S   UNL     1       2.378   0.760  -0.291  0.00  0.00    -0.049 S 
ATOM      7  C   UNL     1       1.111   2.010  -0.431  0.00  0.00    +0.168 C 
ATOM      8  N   UNL     1       1.256   3.309  -0.561  0.00  0.00    -0.225 NA
ENDROOT
BRANCH   5   9
ATOM      9  C   UNL     1       3.034  -2.403  -0.151  0.00  0.00    +0.019 A 
ATOM     10  C   UNL     1       3.972  -1.565  -0.765  0.00  0.00    +0.031 A 
ATOM     11  C   UNL     1       5.285  -1.972  -0.880  0.00  0.00    +0.042 A 
ATOM     12  C   UNL     1       5.679  -3.207  -0.390  0.00  0.00    +0.023 A 
ATOM     13  C   UNL     1       4.763  -4.044   0.218  0.00  0.00    +0.047 A 
ATOM     14  C   UNL     1       3.441  -3.650   0.349  0.00  0.00    +0.124 A 
ATOM     15 CL   UNL     1       6.448  -0.933  -1.643  0.00  0.00    -0.084 Cl
BRANCH  14  16
ATOM     16  O   UNL     1       2.542  -4.470   0.952  0.00  0.00    -0.506 OA
ATOM     17  H   UNL     1       2.098  -5.079   0.347  0.00  0.00    +0.292 HD
ENDBRANCH  14  16
ENDBRANCH   5   9
BRANCH   8  18
ATOM     18  C   UNL     1       2.510   3.857  -0.602  0.00  0.00    +0.067 A 
ATOM     19  C   UNL     1       3.483   3.450   0.313  0.00  0.00    +0.031 A 
ATOM     20  C   UNL     1       4.746   4.000   0.264  0.00  0.00    +0.048 A 
ATOM     21  C   UNL     1       5.048   4.967  -0.685  0.00  0.00    +0.121 A 
ATOM     22  C   UNL     1       4.083   5.379  -1.593  0.00  0.00    +0.048 A 
ATOM     23  C   UNL     1       2.818   4.830  -1.555  0.00  0.00    +0.031 A 
BRANCH  21  24
ATOM     24  O   UNL     1       6.293   5.511  -0.726  0.00  0.00    -0.492 OA
BRANCH  24  25
ATOM     25  C   UNL     1       7.239   5.042   0.238  0.00  0.00    +0.225 C 
ATOM     26  C   UNL     1       8.572   5.764   0.037  0.00  0.00    +0.048 C 
ENDBRANCH  24  25
ENDBRANCH  21  24
ENDBRANCH   8  18
BRANCH   1  28
ATOM     27  C   UNL     1      -1.820   2.349   0.943  0.00  0.00    +0.025 C 
ATOM     28  C   UNL     1      -1.348   1.966  -0.461  0.00  0.00    +0.112 C 
ENDBRANCH   1  28
TORSDOF 6
