REMARK  Name = ZINC12887922
REMARK  7 active torsions:
REMARK  status: ('A' for Active; 'I' for Inactive)
REMARK    1  A    between atoms: C_1  and  C_2
REMARK    2  A    between atoms: C_2  and  C_3
REMARK    3  A    between atoms: C_3  and  C_5
REMARK    4  A    between atoms: C_3  and  N_6
REMARK    5  A    between atoms: C_11  and  C_28
REMARK    6  A    between atoms: C_22  and  C_27
REMARK    7  A    between atoms: C_28  and  C_29
REMARK                            x       y       z     vdW  Elec       q    Type
REMARK                         _______ _______ _______ _____ _____    ______ ____
ROOT
ATOM      1  N   UNL     1      -2.093   1.068   1.254  0.00  0.00    -0.239 N 
ATOM      2  C   UNL     1      -2.383  -0.230   1.401  0.00  0.00    +0.224 C 
ATOM      3  O   UNL     1      -1.570  -1.117   1.553  0.00  0.00    -0.275 OA
ATOM      4  C   UNL     1      -3.883  -0.419   1.351  0.00  0.00    +0.073 C 
ATOM      5  C   UNL     1      -4.265  -1.176   0.061  0.00  0.00    -0.053 C 
ATOM      6  C   UNL     1      -5.079   1.008  -0.245  0.00  0.00    +0.050 C 
ATOM      7  C   UNL     1      -4.418   1.024   1.139  0.00  0.00    +0.088 C 
ATOM      8  C   UNL     1      -3.159   1.861   1.096  0.00  0.00    +0.225 C 
ATOM      9  O   UNL     1      -3.122   3.062   0.942  0.00  0.00    -0.275 OA
ATOM     10  C   UNL     1      -6.300   1.883  -0.284  0.00  0.00    -0.027 A 
ATOM     11  C   UNL     1      -7.480   1.895   0.425  0.00  0.00    +0.004 A 
ATOM     12  C   UNL     1      -8.441   2.853   0.154  0.00  0.00    +0.001 A 
ATOM     13  C   UNL     1      -8.212   3.797  -0.830  0.00  0.00    +0.005 A 
ATOM     14  C   UNL     1      -7.032   3.789  -1.543  0.00  0.00    -0.029 A 
ATOM     15  C   UNL     1      -6.059   2.828  -1.276  0.00  0.00    +0.039 A 
ATOM     16  N   UNL     1      -4.803   2.616  -1.850  0.00  0.00    -0.286 N 
ATOM     17  C   UNL     1      -4.162   1.568  -1.298  0.00  0.00    +0.211 C 
ATOM     18  O   UNL     1      -3.061   1.156  -1.594  0.00  0.00    -0.277 OA
ATOM     19  C   UNL     1      -6.793   4.822  -2.613  0.00  0.00    +0.045 C 
ATOM     20  H   UNL     1      -4.436   3.161  -2.564  0.00  0.00    +0.155 HD
ATOM     21  N   UNL     1      -5.391  -0.409  -0.478  0.00  0.00    +0.394 N 
ATOM     22  H   UNL     1      -6.259  -0.666   0.006  0.00  0.00    -0.083 HD
ATOM     23  H   UNL     1      -5.494  -0.589  -1.484  0.00  0.00    -0.083 HD
ENDROOT
BRANCH   1  24
ATOM     24  C   UNL     1      -0.720   1.578   1.261  0.00  0.00    +0.081 C 
ATOM     25  C   UNL     1      -0.430   2.279  -0.068  0.00  0.00    +0.028 C 
BRANCH  24  27
ATOM     26  C   UNL     1      -0.707   1.844   3.745  0.00  0.00    +0.006 C 
ATOM     27  C   UNL     1      -0.552   2.575   2.410  0.00  0.00    +0.019 C 
ENDBRANCH  24  27
ENDBRANCH   1  24
BRANCH   5  28
ATOM     28  C   UNL     1      -4.674  -2.614   0.388  0.00  0.00    +0.022 C 
BRANCH  28  29
ATOM     29  C   UNL     1      -4.925  -3.369  -0.892  0.00  0.00    -0.024 A 
ATOM     30  C   UNL     1      -6.110  -3.546  -1.495  0.00  0.00    +0.087 A 
ATOM     31  N   UNL     1      -5.947  -4.283  -2.636  0.00  0.00    -0.360 N 
ATOM     32  H   UNL     1      -6.662  -4.540  -3.241  0.00  0.00    +0.165 HD
ATOM     33  C   UNL     1      -4.619  -4.607  -2.799  0.00  0.00    +0.047 A 
ATOM     34  C   UNL     1      -3.919  -4.043  -1.717  0.00  0.00    +0.003 A 
ATOM     35  C   UNL     1      -2.538  -4.217  -1.614  0.00  0.00    +0.010 A 
ATOM     36  C   UNL     1      -1.870  -4.924  -2.574  0.00  0.00    +0.001 A 
ATOM     37  C   UNL     1      -2.555  -5.477  -3.647  0.00  0.00    +0.002 A 
ATOM     38  C   UNL     1      -3.919  -5.323  -3.764  0.00  0.00    +0.026 A 
ENDBRANCH  28  29
ENDBRANCH   5  28
TORSDOF 4
