REMARK  Name = ZINC09232776
REMARK  1 active torsions:
REMARK  status: ('A' for Active; 'I' for Inactive)
REMARK    1  A    between atoms: C_6  and  N_7
REMARK                            x       y       z     vdW  Elec       q    Type
REMARK                         _______ _______ _______ _____ _____    ______ ____
ROOT
ATOM      1  N   UNL     1      -1.202  -0.723   0.010  0.00  0.00    -0.210 N 
ATOM      2  C   UNL     1      -2.397  -0.131   0.123  0.00  0.00    +0.228 C 
ATOM      3  O   UNL     1      -2.581   1.062   0.231  0.00  0.00    -0.275 OA
ATOM      4  C   UNL     1      -3.483  -1.183   0.095  0.00  0.00    +0.074 C 
ATOM      5  C   UNL     1      -4.153  -1.265   1.479  0.00  0.00    -0.054 C 
ATOM      6  C   UNL     1      -3.961   0.072   2.218  0.00  0.00    -0.016 C 
ATOM      7  C   UNL     1      -2.658  -0.087   3.026  0.00  0.00    -0.020 C 
ATOM      8  C   UNL     1      -2.169  -1.517   2.699  0.00  0.00    -0.076 C 
ATOM      9  C   UNL     1      -2.969  -3.276   1.246  0.00  0.00    +0.053 C 
ATOM     10  C   UNL     1      -2.691  -2.511  -0.052  0.00  0.00    +0.089 C 
ATOM     11  C   UNL     1      -1.250  -2.055  -0.100  0.00  0.00    +0.229 C 
ATOM     12  O   UNL     1      -0.288  -2.784  -0.217  0.00  0.00    -0.275 OA
ATOM     13  C   UNL     1      -1.761  -4.050   1.696  0.00  0.00    -0.024 A 
ATOM     14  C   UNL     1      -0.475  -3.688   2.031  0.00  0.00    +0.043 A 
ATOM     15  C   UNL     1       0.438  -4.654   2.418  0.00  0.00    +0.124 A 
ATOM     16  C   UNL     1       0.054  -5.984   2.467  0.00  0.00    +0.040 A 
ATOM     17  C   UNL     1      -1.234  -6.349   2.132  0.00  0.00    +0.026 A 
ATOM     18  C   UNL     1      -2.158  -5.383   1.742  0.00  0.00    +0.036 A 
ATOM     19  N   UNL     1      -3.497  -5.501   1.361  0.00  0.00    -0.286 N 
ATOM     20  C   UNL     1      -4.045  -4.310   1.055  0.00  0.00    +0.212 C 
ATOM     21  O   UNL     1      -5.186  -4.109   0.695  0.00  0.00    -0.277 OA
ATOM     22  F   UNL     1       1.700  -4.301   2.747  0.00  0.00    -0.205 F 
ATOM     23  H   UNL     1      -3.976  -6.344   1.322  0.00  0.00    +0.155 HD
ATOM     24  N   UNL     1      -3.357  -2.227   2.197  0.00  0.00    +0.395 N 
ATOM     25  H   UNL     1      -3.886  -2.633   2.978  0.00  0.00    -0.079 HD
ENDROOT
BRANCH   1  31
ATOM     26  C   UNL     1       0.305   0.833  -1.063  0.00  0.00    +0.025 A 
ATOM     27  C   UNL     1       1.491   1.540  -1.069  0.00  0.00    +0.022 A 
ATOM     28  C   UNL     1       2.378   1.415  -0.013  0.00  0.00    +0.041 A 
ATOM     29  C   UNL     1       2.078   0.581   1.049  0.00  0.00    +0.022 A 
ATOM     30  C   UNL     1       0.893  -0.128   1.059  0.00  0.00    +0.025 A 
ATOM     31  C   UNL     1       0.002  -0.004   0.002  0.00  0.00    +0.044 A 
ATOM     32 CL   UNL     1       3.868   2.305  -0.023  0.00  0.00    -0.084 Cl
ENDBRANCH   1  31
TORSDOF 1
