REMARK  Name = ZINC64435316
REMARK  3 active torsions:
REMARK  status: ('A' for Active; 'I' for Inactive)
REMARK    1  A    between atoms: C_7  and  C_13
REMARK    2  A    between atoms: C_13  and  C_14
REMARK    3  A    between atoms: N_16  and  C_17
REMARK                            x       y       z     vdW  Elec       q    Type
REMARK                         _______ _______ _______ _____ _____    ______ ____
ROOT
ATOM      1  C   UNL     1       0.443  -2.692  -1.173  0.00  0.00    +0.126 C 
ENDROOT
BRANCH   1   8
ATOM      2  C   UNL     1      -0.263   1.372   0.035  0.00  0.00    +0.000 A 
ATOM      3  C   UNL     1       0.916   2.084   0.173  0.00  0.00    +0.001 A 
ATOM      4  C   UNL     1       2.123   1.424   0.299  0.00  0.00    +0.013 A 
ATOM      5  C   UNL     1       2.144   0.032   0.287  0.00  0.00    +0.045 A 
ATOM      6  C   UNL     1       0.944  -0.680   0.148  0.00  0.00    -0.011 A 
ATOM      7  C   UNL     1      -0.248  -0.016   0.022  0.00  0.00    +0.006 A 
ATOM      8  C   UNL     1       1.041  -2.187   0.142  0.00  0.00    +0.136 C 
ATOM      9  N   UNL     1       2.380  -2.777   0.283  0.00  0.00    -0.306 N 
ATOM     10  N   UNL     1       3.387  -2.079   0.402  0.00  0.00    -0.105 NA
ATOM     11  C   UNL     1       3.396  -0.737   0.417  0.00  0.00    +0.283 C 
ATOM     12  O   UNL     1       4.451  -0.147   0.540  0.00  0.00    -0.267 OA
ATOM     13  H   UNL     1       2.473  -3.742   0.283  0.00  0.00    +0.181 HD
ENDBRANCH   1   8
BRANCH   1  14
ATOM     14  C   UNL     1       0.409  -4.198  -1.164  0.00  0.00    +0.220 C 
ATOM     15  O   UNL     1       0.823  -4.808  -0.201  0.00  0.00    -0.275 OA
ATOM     16  N   UNL     1      -0.081  -4.868  -2.226  0.00  0.00    -0.285 N 
ATOM     17  H   UNL     1      -0.479  -4.381  -2.965  0.00  0.00    +0.155 HD
BRANCH  16  18
ATOM     18  C   UNL     1      -0.017  -6.253  -2.263  0.00  0.00    +0.033 C 
ATOM     19  C   UNL     1      -1.168  -6.994  -2.419  0.00  0.00    +0.029 C 
ATOM     20  C   UNL     1      -0.991  -8.382  -2.385  0.00  0.00    -0.016 C 
ATOM     21  C   UNL     1      -1.642  -9.403  -2.977  0.00  0.00    +0.025 C 
ATOM     22  C   UNL     1      -0.885 -10.582  -2.838  0.00  0.00    +0.106 C 
ATOM     23  N   UNL     1       0.178 -10.402  -2.103  0.00  0.00    -0.279 NA
ATOM     24  C   UNL     1       0.141  -9.033  -1.607  0.00  0.00    +0.158 C 
ATOM     25  C   UNL     1       1.384  -8.233  -1.856  0.00  0.00    +0.006 C 
ATOM     26  C   UNL     1       1.276  -6.931  -2.141  0.00  0.00    +0.021 C 
ENDBRANCH  16  18
ENDBRANCH   1  14
TORSDOF 3
