REMARK  Name = ZINC63363006
REMARK  10 active torsions:
REMARK  status: ('A' for Active; 'I' for Inactive)
REMARK    1  A    between atoms: C_1  and  C_2
REMARK    2  A    between atoms: C_13  and  C_14
REMARK    3  A    between atoms: C_13  and  O_15
REMARK    4  A    between atoms: N_21  and  O_22
REMARK    5  A    between atoms: O_22  and  C_23
REMARK    6  A    between atoms: C_23  and  C_24
REMARK    7  A    between atoms: N_26  and  C_27
REMARK    8  A    between atoms: C_27  and  C_28
REMARK    9  A    between atoms: C_28  and  C_29
REMARK   10  A    between atoms: C_40  and  C_41
REMARK                            x       y       z     vdW  Elec       q    Type
REMARK                         _______ _______ _______ _____ _____    ______ ____
ROOT
ATOM      1  C   UNL     1      -0.019   1.526   0.010  0.00  0.00    +0.014 C 
ATOM      2  C   UNL     1       0.002  -0.004   0.002  0.00  0.00    -0.000 C 
ATOM      3  C   UNL     1      -1.416  -0.535   0.065  0.00  0.00    +0.010 C 
ATOM      4  C   UNL     1      -2.084   0.086   1.303  0.00  0.00    +0.005 C 
ATOM      5  C   UNL     1      -1.303  -0.246   2.575  0.00  0.00    +0.006 C 
ATOM      6  C   UNL     1       0.165   0.177   2.447  0.00  0.00    -0.003 C 
ATOM      7  C   UNL     1       0.752  -0.525   1.258  0.00  0.00    +0.001 C 
ATOM      8  C   UNL     1       2.205  -0.180   0.915  0.00  0.00    +0.007 C 
ATOM      9  C   UNL     1       2.307  -0.562  -0.587  0.00  0.00    +0.035 C 
ATOM     10  C   UNL     1       0.866  -0.500  -1.152  0.00  0.00    +0.069 C 
ATOM     11  C   UNL     1       0.410  -1.892  -1.595  0.00  0.00    +0.042 C 
ATOM     12  C   UNL     1       0.896  -0.207   3.737  0.00  0.00    +0.008 C 
ATOM     13  C   UNL     1       1.067  -1.727   3.746  0.00  0.00    +0.032 C 
ATOM     14  C   UNL     1      -0.249  -2.395   3.471  0.00  0.00    -0.058 C 
ATOM     15  C   UNL     1      -0.357  -3.717   3.719  0.00  0.00    +0.031 C 
ATOM     16  C   UNL     1      -1.681  -4.313   3.367  0.00  0.00    +0.102 C 
ATOM     17  N   UNL     1      -2.283  -5.189   4.125  0.00  0.00    -0.085 NA
ATOM     18  C   UNL     1      -2.263  -3.826   2.079  0.00  0.00    +0.027 C 
ATOM     19  C   UNL     1      -2.129  -2.505   1.858  0.00  0.00    -0.014 C 
ATOM     20  C   UNL     1      -1.433  -1.707   2.904  0.00  0.00    +0.011 C 
ATOM     21  C   UNL     1      -2.435  -1.753   4.059  0.00  0.00    +0.020 C 
ENDROOT
BRANCH  10  22
ATOM     22  O   UNL     1       0.802   0.415  -2.248  0.00  0.00    -0.388 OA
ATOM     23  H   UNL     1       1.333   0.151  -3.012  0.00  0.00    +0.210 HD
ENDBRANCH  10  22
BRANCH  17  24
ATOM     24  O   UNL     1      -3.538  -5.718   3.737  0.00  0.00    -0.384 OA
BRANCH  24  25
ATOM     25  C   UNL     1      -4.080  -6.665   4.659  0.00  0.00    +0.358 C 
BRANCH  25  26
ATOM     26  C   UNL     1      -5.409  -7.159   4.149  0.00  0.00    +0.253 C 
ATOM     27  O   UNL     1      -5.848  -6.742   3.098  0.00  0.00    -0.272 OA
ATOM     28  N   UNL     1      -6.109  -8.066   4.859  0.00  0.00    -0.312 N 
ATOM     29  H   UNL     1      -5.757  -8.400   5.699  0.00  0.00    +0.149 HD
BRANCH  28  30
ATOM     30  C   UNL     1      -7.401  -8.546   4.363  0.00  0.00    +0.108 C 
BRANCH  30  31
ATOM     31  C   UNL     1      -7.981  -9.561   5.351  0.00  0.00    +0.052 C 
BRANCH  31  32
ATOM     32  C   UNL     1      -9.310 -10.055   4.840  0.00  0.00    -0.040 C 
ATOM     33  C   UNL     1      -9.538 -11.177   4.120  0.00  0.00    -0.001 A 
ATOM     34  C   UNL     1      -8.651 -12.231   3.614  0.00  0.00    +0.010 A 
ATOM     35  C   UNL     1      -9.184 -13.253   2.906  0.00  0.00    +0.001 A 
ATOM     36  C   UNL     1     -10.559 -13.330   2.643  0.00  0.00    +0.002 A 
ATOM     37  C   UNL     1     -11.436 -12.399   3.075  0.00  0.00    +0.026 A 
ATOM     38  C   UNL     1     -10.986 -11.281   3.829  0.00  0.00    +0.043 A 
ATOM     39  N   UNL     1     -11.628 -10.264   4.350  0.00  0.00    -0.380 N 
ATOM     40  C   UNL     1     -10.659  -9.401   5.035  0.00  0.00    +0.144 C 
ATOM     41  H   UNL     1     -12.584 -10.109   4.294  0.00  0.00    +0.160 HD
ENDBRANCH  31  32
ENDBRANCH  30  31
ENDBRANCH  28  30
ENDBRANCH  25  26
ENDBRANCH  24  25
ENDBRANCH  17  24
TORSDOF 7
