REMARK  Name = ZINC16130989
REMARK  7 active torsions:
REMARK  status: ('A' for Active; 'I' for Inactive)
REMARK    1  A    between atoms: C_3  and  N_8
REMARK    2  A    between atoms: N_8  and  S_9
REMARK    3  A    between atoms: S_9  and  C_12
REMARK    4  A    between atoms: C_15  and  O_31
REMARK    5  A    between atoms: C_16  and  N_18
REMARK    6  A    between atoms: N_18  and  S_19
REMARK    7  A    between atoms: S_19  and  C_22
REMARK                            x       y       z     vdW  Elec       q    Type
REMARK                         _______ _______ _______ _____ _____    ______ ____
ROOT
ATOM      1  C   UNL     1       5.102   4.787  -1.125  0.00  0.00    +0.111 A 
ATOM      2  C   UNL     1       4.924   5.521  -2.283  0.00  0.00    +0.032 A 
ATOM      3  C   UNL     1       4.167   5.010  -3.321  0.00  0.00    +0.049 A 
ATOM      4  C   UNL     1       3.585   3.759  -3.203  0.00  0.00    +0.139 A 
ATOM      5  C   UNL     1       3.763   3.018  -2.037  0.00  0.00    +0.091 A 
ATOM      6  C   UNL     1       4.520   3.540  -0.997  0.00  0.00    +0.057 A 
ENDROOT
BRANCH   1   7
ATOM      7  S   UNL     1       6.068   5.445   0.194  0.00  0.00    +0.072 S 
ATOM      8  O   UNL     1       6.212   6.835  -0.064  0.00  0.00    -0.150 OA
ATOM      9  O   UNL     1       5.502   4.948   1.399  0.00  0.00    -0.150 OA
BRANCH   7  10
ATOM     10  N   UNL     1       7.580   4.782   0.071  0.00  0.00    -0.216 N 
ATOM     11  H   UNL     1       7.897   4.168   0.752  0.00  0.00    +0.174 HD
BRANCH  10  14
ATOM     12  C   UNL     1      10.533   5.787  -1.872  0.00  0.00    +0.003 A 
ATOM     13  C   UNL     1       9.724   5.466  -0.799  0.00  0.00    +0.024 A 
ATOM     14  C   UNL     1       8.400   5.107  -1.012  0.00  0.00    +0.049 A 
ATOM     15  C   UNL     1       7.893   5.065  -2.305  0.00  0.00    +0.044 A 
ATOM     16  C   UNL     1       8.706   5.393  -3.374  0.00  0.00    +0.043 A 
ATOM     17  C   UNL     1      10.025   5.750  -3.158  0.00  0.00    +0.020 A 
ATOM     18 CL   UNL     1       8.072   5.348  -4.990  0.00  0.00    -0.083 Cl
ENDBRANCH  10  14
ENDBRANCH   7  10
ENDBRANCH   1   7
BRANCH   5  19
ATOM     19  N   UNL     1       3.177   1.753  -1.912  0.00  0.00    -0.213 N 
ATOM     20  H   UNL     1       3.466   1.026  -2.484  0.00  0.00    +0.174 HD
BRANCH  19  21
ATOM     21  S   UNL     1       1.989   1.499  -0.786  0.00  0.00    +0.075 S 
ATOM     22  O   UNL     1       2.463   2.048   0.436  0.00  0.00    -0.150 OA
ATOM     23  O   UNL     1       1.597   0.139  -0.909  0.00  0.00    -0.150 OA
BRANCH  21  24
ATOM     24  C   UNL     1       0.599   2.469  -1.268  0.00  0.00    +0.147 A 
ATOM     25  C   UNL     1      -0.568   1.849  -1.676  0.00  0.00    +0.035 A 
ATOM     26  C   UNL     1      -1.658   2.607  -2.059  0.00  0.00    +0.043 A 
ATOM     27  C   UNL     1      -1.587   3.989  -2.025  0.00  0.00    +0.161 A 
ATOM     28  C   UNL     1      -0.419   4.612  -1.617  0.00  0.00    +0.195 A 
ATOM     29  C   UNL     1       0.675   3.850  -1.238  0.00  0.00    +0.188 A 
ATOM     30  F   UNL     1       1.815   4.456  -0.839  0.00  0.00    -0.200 F 
ATOM     31  F   UNL     1      -0.346   5.961  -1.588  0.00  0.00    -0.199 F 
ATOM     32  F   UNL     1      -2.655   4.730  -2.395  0.00  0.00    -0.202 F 
ENDBRANCH  21  24
ENDBRANCH  19  21
ENDBRANCH   5  19
BRANCH   4  33
ATOM     33  O   UNL     1       2.840   3.255  -4.223  0.00  0.00    -0.505 OA
ATOM     34  H   UNL     1       1.901   3.478  -4.173  0.00  0.00    +0.292 HD
ENDBRANCH   4  33
TORSDOF 7
