REMARK  Name = ZINC06177956
REMARK  8 active torsions:
REMARK  status: ('A' for Active; 'I' for Inactive)
REMARK    1  A    between atoms: C_1  and  C_2
REMARK    2  A    between atoms: C_4  and  C_40
REMARK    3  A    between atoms: C_9  and  C_14
REMARK    4  A    between atoms: C_14  and  C_16
REMARK    5  A    between atoms: C_14  and  N_70
REMARK    6  A    between atoms: N_20  and  C_21
REMARK    7  A    between atoms: C_21  and  C_22
REMARK    8  A    between atoms: N_30  and  C_33
REMARK                            x       y       z     vdW  Elec       q    Type
REMARK                         _______ _______ _______ _____ _____    ______ ____
ROOT
ATOM      1  C   UNL     1       3.733   2.135  -0.020  0.00  0.00    +0.039 C 
ENDROOT
BRANCH   1  10
ATOM      2  C   UNL     1      -3.692   2.686  -0.445  0.00  0.00    +0.044 C 
ATOM      3  C   UNL     1      -2.438   1.854  -0.379  0.00  0.00    -0.050 A 
ATOM      4  C   UNL     1      -2.530   0.469  -0.394  0.00  0.00    +0.008 A 
ATOM      5  C   UNL     1      -1.396  -0.312  -0.333  0.00  0.00    -0.026 A 
ATOM      6  C   UNL     1      -0.145   0.292  -0.257  0.00  0.00    +0.052 A 
ATOM      7  C   UNL     1      -0.056   1.696  -0.243  0.00  0.00    -0.001 A 
ATOM      8  C   UNL     1      -1.221   2.469  -0.300  0.00  0.00    +0.013 A 
ATOM      9  C   UNL     1       1.265   2.322  -0.163  0.00  0.00    +0.017 A 
ATOM     10  C   UNL     1       2.358   1.523  -0.104  0.00  0.00    +0.011 A 
ATOM     11  C   UNL     1       2.214   0.119  -0.121  0.00  0.00    +0.251 A 
ATOM     12  O   UNL     1       3.210  -0.581  -0.068  0.00  0.00    -0.268 OA
ATOM     13  N   UNL     1       1.005  -0.465  -0.195  0.00  0.00    -0.322 N 
ATOM     14  H   UNL     1       0.942  -1.433  -0.205  0.00  0.00    +0.169 HD
ATOM     15  C   UNL     1      -1.511  -1.815  -0.350  0.00  0.00    +0.046 C 
ENDBRANCH   1  10
BRANCH   1  21
ATOM     16  C   UNL     1       5.947   2.116  -1.000  0.00  0.00    -0.058 C 
ATOM     17  C   UNL     1       6.813   1.467  -2.082  0.00  0.00    +0.086 C 
ATOM     18  N   UNL     1       6.232   1.745  -3.403  0.00  0.00    -0.333 N 
ATOM     19  C   UNL     1       4.863   1.220  -3.494  0.00  0.00    +0.086 C 
ATOM     20  C   UNL     1       3.997   1.870  -2.412  0.00  0.00    -0.058 C 
ATOM     21  N   UNL     1       4.579   1.564  -1.089  0.00  0.00    +0.391 N 
ATOM     22  H   UNL     1       4.623   0.545  -0.971  0.00  0.00    -0.080 HD
BRANCH  18  23
ATOM     23  C   UNL     1       7.036   1.228  -4.423  0.00  0.00    +0.030 A 
ATOM     24  C   UNL     1       6.503   0.335  -5.344  0.00  0.00    +0.026 A 
ATOM     25  C   UNL     1       7.298  -0.171  -6.354  0.00  0.00    +0.040 A 
ATOM     26  C   UNL     1       8.629   0.202  -6.442  0.00  0.00    +0.124 A 
ATOM     27  C   UNL     1       9.164   1.088  -5.522  0.00  0.00    +0.040 A 
ATOM     28  C   UNL     1       8.371   1.601  -4.514  0.00  0.00    +0.026 A 
ATOM     29  F   UNL     1       9.405  -0.298  -7.428  0.00  0.00    -0.205 F 
ENDBRANCH  18  23
ENDBRANCH   1  21
BRANCH   1  30
ATOM     30  C   UNL     1       4.347   1.810   1.318  0.00  0.00    +0.143 A 
ATOM     31  N   UNL     1       4.838   0.654   1.693  0.00  0.00    -0.115 NA
ATOM     32  N   UNL     1       5.269   0.779   2.901  0.00  0.00    -0.023 NA
ATOM     33  N   UNL     1       5.059   1.982   3.308  0.00  0.00    -0.044 NA
ATOM     34  N   UNL     1       4.492   2.649   2.360  0.00  0.00    -0.228 N 
BRANCH  34  35
ATOM     35  C   UNL     1       4.083   4.055   2.410  0.00  0.00    +0.178 C 
BRANCH  35  36
ATOM     36  C   UNL     1       2.645   4.150   2.925  0.00  0.00    +0.140 C 
ATOM     37  C   UNL     1       2.166   5.616   2.871  0.00  0.00    +0.035 C 
ATOM     38  C   UNL     1       1.347   5.743   4.185  0.00  0.00    +0.031 C 
ATOM     39  C   UNL     1       2.152   4.811   5.125  0.00  0.00    +0.160 C 
ATOM     40  O   UNL     1       2.589   3.725   4.291  0.00  0.00    -0.375 OA
ENDBRANCH  35  36
ENDBRANCH  34  35
ENDBRANCH   1  30
TORSDOF 6
