REMARK  Name = ZINC23042955
REMARK  10 active torsions:
REMARK  status: ('A' for Active; 'I' for Inactive)
REMARK    1  A    between atoms: C_1  and  C_2
REMARK    2  A    between atoms: C_2  and  C_36
REMARK    3  A    between atoms: C_13  and  C_15
REMARK    4  A    between atoms: C_15  and  N_16
REMARK    5  A    between atoms: N_16  and  C_17
REMARK    6  A    between atoms: N_16  and  C_30
REMARK    7  A    between atoms: C_17  and  C_18
REMARK    8  A    between atoms: C_21  and  C_24
REMARK    9  A    between atoms: N_26  and  C_27
REMARK   10  A    between atoms: C_30  and  C_31
REMARK                            x       y       z     vdW  Elec       q    Type
REMARK                         _______ _______ _______ _____ _____    ______ ____
ROOT
ATOM      1  N   UNL     1      -1.161   0.981  -1.489  0.00  0.00    +0.393 N 
ATOM      2  H   UNL     1      -1.662   1.873  -1.083  0.00  0.00    -0.080 HD
ENDROOT
BRANCH   1   3
ATOM      3  C   UNL     1      -0.397   1.393  -2.675  0.00  0.00    +0.020 C 
BRANCH   3  16
ATOM      4  C   UNL     1      -3.147   3.283  -5.265  0.00  0.00    +0.042 C 
ATOM      5  C   UNL     1      -1.702   3.258  -5.768  0.00  0.00    +0.113 C 
ATOM      6  C   UNL     1      -1.661   2.660  -7.147  0.00  0.00    +0.241 C 
ATOM      7  O   UNL     1      -2.608   2.806  -7.891  0.00  0.00    -0.273 OA
ATOM      8  N   UNL     1      -0.589   1.961  -7.565  0.00  0.00    -0.282 N 
ATOM      9  C   UNL     1       0.495   1.735  -6.710  0.00  0.00    +0.055 A 
ATOM     10  C   UNL     1       1.704   1.274  -7.205  0.00  0.00    +0.025 A 
ATOM     11  C   UNL     1       2.760   1.047  -6.341  0.00  0.00    +0.002 A 
ATOM     12  C   UNL     1       2.615   1.276  -4.985  0.00  0.00    +0.002 A 
ATOM     13  C   UNL     1       1.411   1.738  -4.482  0.00  0.00    +0.025 A 
ATOM     14  C   UNL     1       0.352   1.969  -5.341  0.00  0.00    +0.058 A 
ATOM     15  N   UNL     1      -0.880   2.442  -4.862  0.00  0.00    -0.257 N 
ATOM     16  C   UNL     1      -1.298   2.152  -3.614  0.00  0.00    +0.204 C 
ATOM     17  O   UNL     1      -2.400   2.502  -3.248  0.00  0.00    -0.277 OA
ATOM     18  C   UNL     1      -1.149   4.683  -5.816  0.00  0.00    +0.042 C 
ATOM     19  H   UNL     1      -0.558   1.561  -8.589  0.00  0.00    +0.155 HD
ENDBRANCH   3  16
ENDBRANCH   1   3
BRANCH   1  20
ATOM     20  C   UNL     1      -0.271   0.450  -0.448  0.00  0.00    -0.042 C 
BRANCH  20  21
ATOM     21  C   UNL     1       0.445   1.589   0.230  0.00  0.00    -0.064 A 
ATOM     22  C   UNL     1       1.718   1.944  -0.182  0.00  0.00    +0.002 A 
ATOM     23  C   UNL     1       2.377   2.990   0.430  0.00  0.00    +0.013 A 
ATOM     24  C   UNL     1       1.762   3.683   1.475  0.00  0.00    +0.037 A 
ATOM     25  C   UNL     1       0.481   3.315   1.889  0.00  0.00    +0.013 A 
ATOM     26  C   UNL     1      -0.169   2.271   1.265  0.00  0.00    +0.002 A 
BRANCH  24  27
ATOM     27  C   UNL     1       2.465   4.801   2.139  0.00  0.00    +0.244 C 
ATOM     28  O   UNL     1       1.927   5.403   3.048  0.00  0.00    -0.270 OA
ATOM     29  N   UNL     1       3.703   5.153   1.737  0.00  0.00    -0.308 N 
ATOM     30  H   UNL     1       4.189   4.609   0.914  0.00  0.00    +0.149 HD
BRANCH  29  31
ATOM     31  C   UNL     1       4.399   6.261   2.395  0.00  0.00    +0.073 C 
ATOM     32  C   UNL     1       5.136   7.263   1.503  0.00  0.00    +0.024 C 
ATOM     33  C   UNL     1       5.928   6.263   2.347  0.00  0.00    +0.024 C 
ENDBRANCH  29  31
ENDBRANCH  24  27
ENDBRANCH  20  21
ENDBRANCH   1  20
BRANCH   1  34
ATOM     34  C   UNL     1      -2.198   0.004  -1.845  0.00  0.00    -0.002 C 
BRANCH  34  35
ATOM     35  C   UNL     1      -3.245  -0.035  -0.761  0.00  0.00    +0.089 A 
ATOM     36  C   UNL     1      -4.387   0.676  -0.745  0.00  0.00    +0.042 A 
ATOM     37  C   UNL     1      -5.065   0.334   0.448  0.00  0.00    +0.041 A 
ATOM     38  C   UNL     1      -4.297  -0.565   1.089  0.00  0.00    +0.195 A 
ATOM     39  O   UNL     1      -3.198  -0.788   0.349  0.00  0.00    -0.470 OA
ENDBRANCH  34  35
ENDBRANCH   1  34
TORSDOF 8
