REMARK  Name = ZINC66666293
REMARK  8 active torsions:
REMARK  status: ('A' for Active; 'I' for Inactive)
REMARK    1  A    between atoms: C_1  and  C_2
REMARK    2  A    between atoms: C_5  and  N_9
REMARK    3  A    between atoms: C_10  and  C_12
REMARK    4  A    between atoms: C_12  and  C_14
REMARK    5  A    between atoms: C_12  and  N_15
REMARK    6  A    between atoms: C_21  and  C_23
REMARK    7  A    between atoms: C_23  and  C_24
REMARK    8  A    between atoms: C_23  and  C_25
REMARK                            x       y       z     vdW  Elec       q    Type
REMARK                         _______ _______ _______ _____ _____    ______ ____
ROOT
ATOM      1  C   UNL     1       0.198  -6.094  -1.337  0.00  0.00    +0.018 C 
ATOM      2  C   UNL     1       0.436  -4.587  -1.453  0.00  0.00    -0.004 C 
ENDROOT
BRANCH   1   3
ATOM      3  N   UNL     1       0.192  -6.694  -2.679  0.00  0.00    +0.396 N 
ATOM      4  C   UNL     1       1.498  -6.479  -3.320  0.00  0.00    -0.058 C 
ATOM      5  C   UNL     1       1.396  -6.880  -4.793  0.00  0.00    +0.085 C 
ATOM      6  N   UNL     1       0.817  -8.216  -4.906  0.00  0.00    -0.318 N 
ATOM      7  C   UNL     1       0.143  -8.796  -3.906  0.00  0.00    +0.200 C 
ATOM      8  O   UNL     1      -0.327  -9.900  -4.086  0.00  0.00    -0.278 OA
ATOM      9  C   UNL     1      -0.054  -8.137  -2.571  0.00  0.00    +0.023 C 
ATOM     10  H   UNL     1       0.926  -8.701  -5.738  0.00  0.00    +0.149 HD
ATOM     11  H   UNL     1      -0.534  -6.268  -3.236  0.00  0.00    -0.080 HD
BRANCH   9  12
ATOM     12  C   UNL     1      -1.489  -8.374  -2.095  0.00  0.00    -0.022 C 
ATOM     13  C   UNL     1      -2.467  -7.929  -3.185  0.00  0.00    +0.006 C 
ATOM     14  C   UNL     1      -1.691  -9.862  -1.805  0.00  0.00    +0.006 C 
ENDBRANCH   9  12
ENDBRANCH   1   3
BRANCH   1  16
ATOM     15  N   UNL     1       1.445  -6.372   0.780  0.00  0.00    -0.285 N 
ATOM     16  C   UNL     1       1.297  -6.715  -0.515  0.00  0.00    +0.203 C 
ATOM     17  O   UNL     1       2.049  -7.523  -1.018  0.00  0.00    -0.277 OA
ATOM     18  H   UNL     1       0.799  -5.785   1.204  0.00  0.00    +0.155 HD
BRANCH  15  23
ATOM     19  C   UNL     1       5.850  -8.361   3.756  0.00  0.00    +0.044 C 
ATOM     20  C   UNL     1       4.680  -7.832   2.967  0.00  0.00    -0.048 A 
ATOM     21  C   UNL     1       4.763  -7.738   1.590  0.00  0.00    +0.005 A 
ATOM     22  C   UNL     1       3.692  -7.254   0.863  0.00  0.00    +0.026 A 
ATOM     23  C   UNL     1       2.531  -6.863   1.515  0.00  0.00    +0.069 A 
ATOM     24  C   UNL     1       2.450  -6.959   2.900  0.00  0.00    +0.145 A 
ATOM     25  C   UNL     1       3.524  -7.449   3.621  0.00  0.00    +0.043 A 
ATOM     26  F   UNL     1       1.322  -6.579   3.539  0.00  0.00    -0.204 F 
ENDBRANCH  15  23
ENDBRANCH   1  16
TORSDOF 4
