REMARK  Name = ZINC01237429
REMARK  6 active torsions:
REMARK  status: ('A' for Active; 'I' for Inactive)
REMARK    1  A    between atoms: C_1  and  C_2
REMARK    2  A    between atoms: C_2  and  O_3
REMARK    3  A    between atoms: O_3  and  C_4
REMARK    4  A    between atoms: C_7  and  N_10
REMARK    5  A    between atoms: C_14  and  C_19
REMARK    6  A    between atoms: C_19  and  N_51
REMARK                            x       y       z     vdW  Elec       q    Type
REMARK                         _______ _______ _______ _____ _____    ______ ____
ROOT
ATOM      1  N   UNL     1      -2.405   4.945   0.042  0.00  0.00    -0.213 NA
ATOM      2  C   UNL     1      -2.385   3.622   0.037  0.00  0.00    +0.233 A 
ATOM      3  N   UNL     1      -3.565   2.905   0.050  0.00  0.00    -0.314 N 
ATOM      4  H   UNL     1      -4.419   3.365   0.062  0.00  0.00    +0.170 HD
ATOM      5  C   UNL     1      -3.515   1.553   0.046  0.00  0.00    +0.097 A 
ATOM      6  N   UNL     1      -2.358   0.942   0.029  0.00  0.00    -0.204 NA
ATOM      7  C   UNL     1      -1.211   1.636   0.017  0.00  0.00    +0.217 A 
ATOM      8  N   UNL     1      -1.219   2.959   0.026  0.00  0.00    -0.179 NA
ATOM      9  N   UNL     1      -0.012   0.965  -0.000  0.00  0.00    -0.327 N 
ATOM     10  H   UNL     1       0.001  -0.005  -0.003  0.00  0.00    +0.145 HD
ATOM     11  H   UNL     1       0.821   1.462  -0.013  0.00  0.00    +0.145 HD
ENDROOT
BRANCH   1  15
ATOM     12  C   UNL     1      -6.008   6.964  -0.242  0.00  0.00    +0.121 A 
ATOM     13  C   UNL     1      -5.454   6.709   1.005  0.00  0.00    +0.048 A 
ATOM     14  C   UNL     1      -4.254   6.037   1.105  0.00  0.00    +0.031 A 
ATOM     15  C   UNL     1      -3.596   5.612  -0.052  0.00  0.00    +0.068 A 
ATOM     16  C   UNL     1      -4.155   5.875  -1.305  0.00  0.00    +0.031 A 
ATOM     17  C   UNL     1      -5.358   6.544  -1.394  0.00  0.00    +0.048 A 
BRANCH  12  18
ATOM     18  O   UNL     1      -7.191   7.628  -0.335  0.00  0.00    -0.492 OA
BRANCH  18  20
ATOM     19  C   UNL     1      -9.033   8.611  -1.552  0.00  0.00    +0.048 C 
ATOM     20  C   UNL     1      -7.705   7.857  -1.648  0.00  0.00    +0.225 C 
ENDBRANCH  18  20
ENDBRANCH  12  18
ENDBRANCH   1  15
BRANCH   5  21
ATOM     21  C   UNL     1      -4.791   0.752   0.060  0.00  0.00    -0.003 C 
BRANCH  21  28
ATOM     22  C   UNL     1      -4.154  -0.301   2.156  0.00  0.00    -0.078 C 
ATOM     23  C   UNL     1      -4.626  -0.827   3.484  0.00  0.00    -0.019 C 
ATOM     24  C   UNL     1      -5.177  -2.253   3.278  0.00  0.00    -0.002 C 
ATOM     25  C   UNL     1      -6.522  -2.248   2.712  0.00  0.00    -0.002 C 
ATOM     26  C   UNL     1      -6.566  -1.577   1.323  0.00  0.00    -0.019 C 
ATOM     27  C   UNL     1      -6.551  -0.085   1.512  0.00  0.00    -0.078 C 
ATOM     28  N   UNL     1      -5.186   0.542   1.462  0.00  0.00    +0.384 N 
ATOM     29  H   UNL     1      -5.231   1.453   1.934  0.00  0.00    -0.081 HD
ENDBRANCH  21  28
ENDBRANCH   5  21
TORSDOF 5
