REMARK  Name = ZINC16401697
REMARK  5 active torsions:
REMARK  status: ('A' for Active; 'I' for Inactive)
REMARK    1  A    between atoms: C_6  and  C_7
REMARK    2  A    between atoms: C_7  and  O_8
REMARK    3  A    between atoms: O_8  and  C_9
REMARK    4  A    between atoms: C_12  and  C_15
REMARK    5  A    between atoms: N_21  and  C_22
REMARK                            x       y       z     vdW  Elec       q    Type
REMARK                         _______ _______ _______ _____ _____    ______ ____
ROOT
ATOM      1  C   UNL     1      -6.491  -3.847  -2.037  0.00  0.00    +0.028 C 
ATOM      2  C   UNL     1      -7.436  -3.837  -1.063  0.00  0.00    +0.078 C 
ATOM      3  C   UNL     1      -8.705  -4.585  -0.983  0.00  0.00    +0.256 C 
ATOM      4  O   UNL     1      -9.050  -5.348  -1.865  0.00  0.00    -0.269 OA
ATOM      5  N   UNL     1      -9.450  -4.387   0.091  0.00  0.00    -0.260 N 
ATOM      6  C   UNL     1      -9.041  -3.518   1.080  0.00  0.00    +0.166 C 
ATOM      7  N   UNL     1      -9.654  -3.209   2.200  0.00  0.00    -0.226 NA
ATOM      8  S   UNL     1      -7.473  -2.921   0.471  0.00  0.00    -0.049 S 
ATOM      9  H   UNL     1     -10.293  -4.859   0.185  0.00  0.00    +0.157 HD
ENDROOT
BRANCH   7  10
ATOM     10  C   UNL     1     -10.861  -3.781   2.501  0.00  0.00    +0.067 A 
ATOM     11  C   UNL     1     -11.854  -3.877   1.524  0.00  0.00    +0.030 A 
ATOM     12  C   UNL     1     -13.068  -4.455   1.833  0.00  0.00    +0.040 A 
ATOM     13  C   UNL     1     -13.303  -4.939   3.109  0.00  0.00    +0.124 A 
ATOM     14  C   UNL     1     -12.322  -4.847   4.083  0.00  0.00    +0.040 A 
ATOM     15  C   UNL     1     -11.102  -4.277   3.785  0.00  0.00    +0.030 A 
ATOM     16  F   UNL     1     -14.494  -5.504   3.406  0.00  0.00    -0.205 F 
ENDBRANCH   7  10
BRANCH   1  20
ATOM     17  C   UNL     1      -2.805  -1.837  -1.437  0.00  0.00    +0.121 A 
ATOM     18  C   UNL     1      -3.615  -2.138  -0.348  0.00  0.00    +0.046 A 
ATOM     19  C   UNL     1      -4.813  -2.790  -0.537  0.00  0.00    +0.011 A 
ATOM     20  C   UNL     1      -5.214  -3.151  -1.830  0.00  0.00    -0.024 A 
ATOM     21  C   UNL     1      -4.394  -2.845  -2.923  0.00  0.00    +0.011 A 
ATOM     22  C   UNL     1      -3.201  -2.188  -2.723  0.00  0.00    +0.046 A 
BRANCH  17  23
ATOM     23  O   UNL     1      -1.625  -1.194  -1.245  0.00  0.00    -0.487 OA
BRANCH  23  24
ATOM     24  C   UNL     1      -1.278  -0.863   0.101  0.00  0.00    +0.264 C 
BRANCH  24  30
ATOM     25  C   UNL     1       0.109   1.219   0.010  0.00  0.00    +0.008 A 
ATOM     26  C   UNL     1       1.331   1.865   0.025  0.00  0.00    +0.015 A 
ATOM     27  C   UNL     1       2.498   1.134   0.149  0.00  0.00    +0.018 A 
ATOM     28  C   UNL     1       2.442  -0.244   0.258  0.00  0.00    +0.015 A 
ATOM     29  C   UNL     1       1.220  -0.890   0.242  0.00  0.00    +0.008 A 
ATOM     30  C   UNL     1       0.054  -0.158   0.118  0.00  0.00    -0.010 A 
ATOM     31 BR   UNL     1       4.170   2.018   0.170  0.00  0.00    -0.050 Br
ENDBRANCH  24  30
ENDBRANCH  23  24
ENDBRANCH  17  23
ENDBRANCH   1  20
TORSDOF 5
