REMARK  Name = ZINC38702214
REMARK  11 active torsions:
REMARK  status: ('A' for Active; 'I' for Inactive)
REMARK    1  A    between atoms: C_1  and  C_2
REMARK    2  A    between atoms: C_2  and  O_3
REMARK    3  A    between atoms: O_3  and  C_4
REMARK    4  A    between atoms: C_7  and  C_12
REMARK    5  A    between atoms: C_9  and  O_10
REMARK    6  A    between atoms: O_10  and  C_11
REMARK    7  A    between atoms: C_15  and  C_31
REMARK    8  A    between atoms: N_22  and  C_23
REMARK    9  A    between atoms: C_33  and  C_39
REMARK   10  A    between atoms: C_34  and  C_38
REMARK   11  A    between atoms: C_36  and  O_37
REMARK                            x       y       z     vdW  Elec       q    Type
REMARK                         _______ _______ _______ _____ _____    ______ ____
ROOT
ATOM      1  C   UNL     1      -2.103  -6.225  -0.030  0.00  0.00    +0.142 C 
ATOM      2  C   UNL     1      -1.677  -6.721   1.325  0.00  0.00    +0.035 A 
ATOM      3  C   UNL     1      -1.890  -6.704   2.707  0.00  0.00    +0.102 A 
ATOM      4  N   UNL     1      -0.988  -7.494   3.255  0.00  0.00    -0.173 NA
ATOM      5  N   UNL     1      -0.227  -8.008   2.355  0.00  0.00    -0.272 N 
ATOM      6  H   UNL     1       0.506  -8.620   2.528  0.00  0.00    +0.189 HD
ATOM      7  C   UNL     1      -0.603  -7.566   1.119  0.00  0.00    +0.126 A 
ATOM      8  C   UNL     1      -0.327  -7.628  -0.321  0.00  0.00    +0.266 C 
ATOM      9  O   UNL     1       0.559  -8.287  -0.830  0.00  0.00    -0.268 OA
ATOM     10  N   UNL     1      -1.195  -6.852  -0.999  0.00  0.00    -0.280 N 
ENDROOT
BRANCH   3  11
ATOM     11  C   UNL     1      -2.938  -5.937   3.425  0.00  0.00    +0.044 A 
ATOM     12  C   UNL     1      -4.253  -5.952   2.968  0.00  0.00    +0.017 A 
ATOM     13  C   UNL     1      -5.224  -5.237   3.639  0.00  0.00    -0.047 A 
ATOM     14  C   UNL     1      -4.896  -4.505   4.766  0.00  0.00    -0.044 A 
ATOM     15  C   UNL     1      -3.594  -4.483   5.229  0.00  0.00    +0.049 A 
ATOM     16  C   UNL     1      -2.610  -5.201   4.568  0.00  0.00    +0.126 A 
ATOM     17  C   UNL     1      -5.963  -3.728   5.493  0.00  0.00    +0.044 C 
ATOM     18  C   UNL     1      -6.647  -5.254   3.143  0.00  0.00    +0.044 C 
BRANCH  16  19
ATOM     19  O   UNL     1      -1.331  -5.186   5.025  0.00  0.00    -0.506 OA
ATOM     20  H   UNL     1      -0.811  -4.432   4.713  0.00  0.00    +0.292 HD
ENDBRANCH  16  19
ENDBRANCH   3  11
BRANCH  10  21
ATOM     21  C   UNL     1      -1.227  -6.665  -2.451  0.00  0.00    +0.100 C 
ATOM     22  C   UNL     1      -1.425  -8.023  -3.146  0.00  0.00    +0.047 C 
ATOM     23  C   UNL     1      -1.142  -7.887  -4.661  0.00  0.00    +0.168 C 
ATOM     24  S   UNL     1       0.067  -6.502  -4.723  0.00  0.00    -0.029 S 
ATOM     25  O   UNL     1       1.334  -7.012  -5.117  0.00  0.00    -0.174 OA
ATOM     26  O   UNL     1      -0.506  -5.420  -5.444  0.00  0.00    -0.174 OA
ATOM     27  C   UNL     1       0.126  -6.068  -2.934  0.00  0.00    +0.188 C 
ENDBRANCH  10  21
BRANCH   1  31
ATOM     28  C   UNL     1      -1.740  -1.968  -0.219  0.00  0.00    +0.162 A 
ATOM     29  C   UNL     1      -0.605  -2.763  -0.194  0.00  0.00    +0.050 A 
ATOM     30  C   UNL     1      -0.726  -4.139  -0.133  0.00  0.00    +0.009 A 
ATOM     31  C   UNL     1      -1.977  -4.725  -0.097  0.00  0.00    -0.019 A 
ATOM     32  C   UNL     1      -3.114  -3.938  -0.122  0.00  0.00    +0.055 A 
ATOM     33  C   UNL     1      -2.999  -2.558  -0.177  0.00  0.00    +0.162 A 
BRANCH  33  34
ATOM     34  O   UNL     1      -4.116  -1.782  -0.196  0.00  0.00    -0.491 OA
ATOM     35  C   UNL     1      -5.375  -2.456  -0.150  0.00  0.00    +0.277 C 
ENDBRANCH  33  34
BRANCH  28  36
ATOM     36  O   UNL     1      -1.623  -0.615  -0.279  0.00  0.00    -0.489 OA
BRANCH  36  38
ATOM     37  C   UNL     1      -0.367   1.448  -0.385  0.00  0.00    +0.048 C 
ATOM     38  C   UNL     1      -0.298  -0.080  -0.320  0.00  0.00    +0.226 C 
ENDBRANCH  36  38
ENDBRANCH  28  36
ENDBRANCH   1  31
TORSDOF 7
