REMARK  Name = ZINC54201867
REMARK  3 active torsions:
REMARK  status: ('A' for Active; 'I' for Inactive)
REMARK    1  A    between atoms: C_6  and  N_7
REMARK    2  A    between atoms: C_8  and  C_10
REMARK    3  A    between atoms: C_10  and  N_11
REMARK                            x       y       z     vdW  Elec       q    Type
REMARK                         _______ _______ _______ _____ _____    ______ ____
ROOT
ATOM      1  N   UNL     1      -2.194  -4.261  -0.311  0.00  0.00    -0.258 N 
ATOM      2  C   UNL     1      -1.998  -4.933  -1.513  0.00  0.00    +0.045 A 
ATOM      3  C   UNL     1      -2.014  -4.492  -2.831  0.00  0.00    +0.025 A 
ATOM      4  C   UNL     1      -1.786  -5.381  -3.863  0.00  0.00    +0.017 A 
ATOM      5  C   UNL     1      -1.539  -6.719  -3.601  0.00  0.00    +0.019 A 
ATOM      6  C   UNL     1      -1.519  -7.177  -2.298  0.00  0.00    +0.025 A 
ATOM      7  C   UNL     1      -1.747  -6.288  -1.251  0.00  0.00    +0.011 A 
ATOM      8  C   UNL     1      -1.795  -6.446   0.218  0.00  0.00    +0.065 C 
ATOM      9  C   UNL     1      -1.607  -7.603   0.945  0.00  0.00    +0.092 C 
ATOM     10  C   UNL     1      -1.650  -7.817   2.417  0.00  0.00    +0.258 C 
ATOM     11  O   UNL     1      -1.876  -6.908   3.191  0.00  0.00    -0.269 OA
ATOM     12  N   UNL     1      -1.429  -9.052   2.837  0.00  0.00    -0.243 N 
ATOM     13  C   UNL     1      -1.180 -10.057   1.974  0.00  0.00    +0.283 C 
ATOM     14  O   UNL     1      -0.962 -11.227   2.223  0.00  0.00    -0.262 OA
ATOM     15  S   UNL     1      -1.254  -9.261   0.377  0.00  0.00    -0.025 S 
ATOM     16  C   UNL     1      -2.082  -5.092   0.739  0.00  0.00    +0.253 C 
ATOM     17  O   UNL     1      -2.199  -4.786   1.910  0.00  0.00    -0.270 OA
ATOM     18 BR   UNL     1      -1.230  -7.920  -5.029  0.00  0.00    -0.050 Br
ATOM     19  H   UNL     1      -1.448  -9.239   3.788  0.00  0.00    +0.159 HD
ENDROOT
BRANCH   1  20
ATOM     20  C   UNL     1      -2.479  -2.828  -0.204  0.00  0.00    +0.210 C 
BRANCH  20  22
ATOM     21  N   UNL     1      -1.200  -0.722   0.010  0.00  0.00    -0.284 N 
ATOM     22  C   UNL     1      -1.183  -2.065  -0.099  0.00  0.00    +0.235 C 
ATOM     23  O   UNL     1      -0.126  -2.659  -0.113  0.00  0.00    -0.274 OA
ATOM     24  H   UNL     1      -2.044  -0.252   0.098  0.00  0.00    +0.155 HD
BRANCH  21  30
ATOM     25  C   UNL     1       1.072  -0.453  -0.766  0.00  0.00    +0.025 A 
ATOM     26  C   UNL     1       2.256   0.257  -0.778  0.00  0.00    +0.022 A 
ATOM     27  C   UNL     1       2.377   1.416  -0.032  0.00  0.00    +0.041 A 
ATOM     28  C   UNL     1       1.312   1.866   0.729  0.00  0.00    +0.022 A 
ATOM     29  C   UNL     1       0.126   1.159   0.745  0.00  0.00    +0.025 A 
ATOM     30  C   UNL     1       0.002  -0.004  -0.004  0.00  0.00    +0.034 A 
ATOM     31 CL   UNL     1       3.867   2.306  -0.048  0.00  0.00    -0.084 Cl
ENDBRANCH  21  30
ENDBRANCH  20  22
ENDBRANCH   1  20
TORSDOF 3
