REMARK  Name = ZINC10035190
REMARK  10 active torsions:
REMARK  status: ('A' for Active; 'I' for Inactive)
REMARK    1  A    between atoms: C_1  and  C_2
REMARK    2  A    between atoms: C_9  and  C_11
REMARK    3  A    between atoms: C_13  and  N_18
REMARK    4  A    between atoms: C_16  and  O_17
REMARK    5  A    between atoms: N_18  and  C_19
REMARK    6  A    between atoms: C_19  and  N_21
REMARK    7  A    between atoms: C_22  and  C_24
REMARK    8  A    between atoms: C_24  and  O_25
REMARK    9  A    between atoms: O_25  and  C_26
REMARK   10  A    between atoms: C_31  and  C_32
REMARK                            x       y       z     vdW  Elec       q    Type
REMARK                         _______ _______ _______ _____ _____    ______ ____
ROOT
ATOM      1  C   UNL     1       0.337  -5.506   2.335  0.00  0.00    +0.080 A 
ATOM      2  C   UNL     1       0.363  -6.718   1.643  0.00  0.00    +0.040 A 
ATOM      3  C   UNL     1       0.120  -7.902   2.317  0.00  0.00    +0.034 A 
ATOM      4  C   UNL     1      -0.150  -7.886   3.681  0.00  0.00    +0.027 A 
ATOM      5  C   UNL     1      -0.177  -6.691   4.372  0.00  0.00    +0.048 A 
ATOM      6  C   UNL     1       0.070  -5.498   3.710  0.00  0.00    +0.129 A 
ENDROOT
BRANCH   1  15
ATOM      7  C   UNL     1       1.429   1.438   0.088  0.00  0.00    +0.044 C 
ATOM      8  C   UNL     1       1.290  -0.063   0.073  0.00  0.00    -0.048 A 
ATOM      9  C   UNL     1       1.455  -0.758  -1.116  0.00  0.00    +0.007 A 
ATOM     10  C   UNL     1       1.332  -2.132  -1.147  0.00  0.00    +0.049 A 
ATOM     11  C   UNL     1       1.041  -2.825   0.018  0.00  0.00    +0.156 A 
ATOM     12  C   UNL     1       0.873  -2.126   1.224  0.00  0.00    +0.110 A 
ATOM     13  C   UNL     1       1.006  -0.735   1.240  0.00  0.00    +0.035 A 
ATOM     14  N   UNL     1       0.600  -3.053   2.177  0.00  0.00    -0.209 NA
ATOM     15  C   UNL     1       0.595  -4.239   1.623  0.00  0.00    +0.232 A 
ATOM     16  O   UNL     1       0.861  -4.134   0.307  0.00  0.00    -0.435 OA
ENDBRANCH   1  15
BRANCH   6  17
ATOM     17  O   UNL     1       0.048  -4.324   4.392  0.00  0.00    -0.506 OA
ATOM     18  H   UNL     1      -0.822  -3.903   4.422  0.00  0.00    +0.292 HD
ENDBRANCH   6  17
BRANCH   3  19
ATOM     19  N   UNL     1       0.145  -9.120   1.624  0.00  0.00    -0.297 N 
ATOM     20  H   UNL     1      -0.527  -9.795   1.805  0.00  0.00    +0.154 HD
BRANCH  19  21
ATOM     21  C   UNL     1       1.105  -9.353   0.707  0.00  0.00    +0.141 C 
ATOM     22  S   UNL     1       2.373  -8.224   0.489  0.00  0.00    -0.018 S 
BRANCH  21  23
ATOM     23  N   UNL     1       1.066 -10.475  -0.039  0.00  0.00    -0.265 N 
ATOM     24  C   UNL     1       2.025 -10.708  -0.957  0.00  0.00    +0.256 C 
ATOM     25  O   UNL     1       2.923  -9.908  -1.111  0.00  0.00    -0.272 OA
ATOM     26  H   UNL     1       0.347 -11.114   0.085  0.00  0.00    +0.157 HD
BRANCH  24  27
ATOM     27  C   UNL     1       1.981 -11.962  -1.790  0.00  0.00    +0.325 C 
BRANCH  27  28
ATOM     28  O   UNL     1       3.097 -11.980  -2.683  0.00  0.00    -0.482 OA
BRANCH  28  29
ATOM     29  C   UNL     1       3.208 -13.052  -3.511  0.00  0.00    +0.124 A 
ATOM     30  C   UNL     1       2.258 -14.062  -3.470  0.00  0.00    +0.047 A 
ATOM     31  C   UNL     1       2.372 -15.151  -4.313  0.00  0.00    +0.023 A 
ATOM     32  C   UNL     1       3.432 -15.234  -5.198  0.00  0.00    +0.041 A 
ATOM     33  C   UNL     1       4.381 -14.227  -5.240  0.00  0.00    +0.027 A 
ATOM     34  C   UNL     1       4.267 -13.134  -4.403  0.00  0.00    -0.007 A 
ATOM     35  C   UNL     1       5.296 -12.035  -4.455  0.00  0.00    +0.047 C 
ATOM     36 CL   UNL     1       3.574 -16.603  -6.256  0.00  0.00    -0.084 Cl
ENDBRANCH  28  29
ENDBRANCH  27  28
ENDBRANCH  24  27
ENDBRANCH  21  23
ENDBRANCH  19  21
ENDBRANCH   3  19
TORSDOF 8
