REMARK  Name = ZINC45716836
REMARK  11 active torsions:
REMARK  status: ('A' for Active; 'I' for Inactive)
REMARK    1  A    between atoms: C_1  and  C_2
REMARK    2  A    between atoms: C_2  and  O_3
REMARK    3  A    between atoms: O_3  and  C_4
REMARK    4  A    between atoms: C_9  and  N_12
REMARK    5  A    between atoms: C_13  and  C_15
REMARK    6  A    between atoms: C_15  and  O_16
REMARK    7  A    between atoms: O_16  and  C_17
REMARK    8  A    between atoms: C_17  and  C_19
REMARK    9  A    between atoms: C_20  and  N_30
REMARK   10  A    between atoms: C_22  and  C_29
REMARK   11  A    between atoms: C_24  and  C_28
REMARK                            x       y       z     vdW  Elec       q    Type
REMARK                         _______ _______ _______ _____ _____    ______ ____
ROOT
ATOM      1  O   UNL     1       1.453  -6.549  -8.545  0.00  0.00    -0.451 OA
ENDROOT
BRANCH   1   2
ATOM      2  C   UNL     1       1.037  -7.070  -9.719  0.00  0.00    +0.348 C 
ATOM      3  O   UNL     1       0.112  -6.555 -10.319  0.00  0.00    -0.244 OA
BRANCH   2   4
ATOM      4  C   UNL     1       1.678  -8.213 -10.252  0.00  0.00    +0.119 A 
ATOM      5  C   UNL     1       1.401  -8.878 -11.428  0.00  0.00    +0.055 A 
ATOM      6  C   UNL     1       2.205 -10.042 -11.768  0.00  0.00    +0.030 A 
ATOM      7  C   UNL     1       2.112 -10.879 -12.908  0.00  0.00    -0.037 A 
ATOM      8  C   UNL     1       2.981 -11.937 -13.030  0.00  0.00    +0.025 A 
ATOM      9  C   UNL     1       3.934 -12.179 -12.052  0.00  0.00    +0.014 A 
ATOM     10  N   UNL     1       4.018 -11.398 -10.993  0.00  0.00    -0.353 N 
ATOM     11  C   UNL     1       3.209 -10.373 -10.830  0.00  0.00    +0.088 A 
ATOM     12  S   UNL     1       3.040  -9.136  -9.568  0.00  0.00    -0.062 S 
ATOM     13  C   UNL     1       4.880 -13.342 -12.201  0.00  0.00    +0.063 C 
ATOM     14  C   UNL     1       1.075 -10.614 -13.968  0.00  0.00    +0.044 C 
ATOM     15  H   UNL     1       4.690 -11.583 -10.319  0.00  0.00    +0.166 HD
BRANCH   5  16
ATOM     16  N   UNL     1       0.382  -8.448 -12.264  0.00  0.00    -0.356 N 
ATOM     17  H   UNL     1      -0.365  -7.948 -11.901  0.00  0.00    +0.142 HD
ATOM     18  H   UNL     1       0.416  -8.648 -13.213  0.00  0.00    +0.142 HD
ENDBRANCH   5  16
ENDBRANCH   2   4
ENDBRANCH   1   2
BRANCH   1  19
ATOM     19  C   UNL     1       0.761  -5.394  -8.067  0.00  0.00    +0.328 C 
BRANCH  19  21
ATOM     20  N   UNL     1       0.863  -3.881  -6.112  0.00  0.00    -0.310 N 
ATOM     21  C   UNL     1       1.359  -4.958  -6.754  0.00  0.00    +0.251 C 
ATOM     22  O   UNL     1       2.287  -5.575  -6.275  0.00  0.00    -0.272 OA
ATOM     23  H   UNL     1       0.121  -3.387  -6.495  0.00  0.00    +0.149 HD
BRANCH  20  29
ATOM     24  C   UNL     1       0.764  -1.831  -1.126  0.00  0.00    +0.403 C 
ATOM     25  O   UNL     1       0.357  -2.550  -0.235  0.00  0.00    -0.226 OA
ATOM     26  N   UNL     1       1.321  -2.373  -2.227  0.00  0.00    -0.267 N 
ATOM     27  C   UNL     1       1.824  -1.516  -3.310  0.00  0.00    +0.113 C 
ATOM     28  C   UNL     1       1.185  -1.964  -4.628  0.00  0.00    +0.041 C 
ATOM     29  C   UNL     1       1.445  -3.457  -4.836  0.00  0.00    +0.076 C 
ATOM     30  C   UNL     1       0.804  -4.252  -3.695  0.00  0.00    +0.041 C 
ATOM     31  C   UNL     1       1.444  -3.830  -2.364  0.00  0.00    +0.113 C 
BRANCH  24  32
ATOM     32  O   UNL     1       0.657  -0.493  -1.014  0.00  0.00    -0.451 OA
BRANCH  32  34
ATOM     33  C   UNL     1       0.022   1.540   0.127  0.00  0.00    +0.048 C 
ATOM     34  C   UNL     1       0.056   0.012   0.180  0.00  0.00    +0.230 C 
ENDBRANCH  32  34
ENDBRANCH  24  32
ENDBRANCH  20  29
ENDBRANCH  19  21
ENDBRANCH   1  19
TORSDOF 8
