REMARK  Name = ZINC20170925
REMARK  15 active torsions:
REMARK  status: ('A' for Active; 'I' for Inactive)
REMARK    1  A    between atoms: C_1  and  C_2
REMARK    2  A    between atoms: C_2  and  C_3
REMARK    3  A    between atoms: C_8  and  N_9
REMARK    4  A    between atoms: C_10  and  C_12
REMARK    5  A    between atoms: C_12  and  S_13
REMARK    6  A    between atoms: S_13  and  C_14
REMARK    7  A    between atoms: C_15  and  C_36
REMARK    8  A    between atoms: C_16  and  C_29
REMARK    9  A    between atoms: C_18  and  C_22
REMARK   10  A    between atoms: C_19  and  C_21
REMARK   11  A    between atoms: C_22  and  O_24
REMARK   12  A    between atoms: O_24  and  C_25
REMARK   13  A    between atoms: C_25  and  C_26
REMARK   14  A    between atoms: C_26  and  O_27
REMARK   15  A    between atoms: O_27  and  C_28
REMARK                            x       y       z     vdW  Elec       q    Type
REMARK                         _______ _______ _______ _____ _____    ______ ____
ROOT
ATOM      1  C   UNL     1      -4.432   2.197  -1.362  0.00  0.00    +0.080 C 
ATOM      2  C   UNL     1      -3.355   1.371  -1.445  0.00  0.00    +0.069 C 
ATOM      3  C   UNL     1      -2.543   1.024  -0.230  0.00  0.00    +0.100 C 
ATOM      4  C   UNL     1      -3.292   1.361   1.027  0.00  0.00    +0.066 C 
ATOM      5  C   UNL     1      -4.359   2.178   1.016  0.00  0.00    +0.016 C 
ATOM      6  N   UNL     1      -4.812   2.730  -0.150  0.00  0.00    -0.312 N 
ATOM      7  C   UNL     1      -5.069   2.490   2.309  0.00  0.00    +0.061 C 
ATOM      8  H   UNL     1      -5.481   3.603  -0.118  0.00  0.00    +0.152 HD
ENDROOT
BRANCH   3   9
ATOM      9  C   UNL     1      -1.250   1.797  -0.259  0.00  0.00    -0.035 A 
ATOM     10  C   UNL     1      -0.043   1.125  -0.306  0.00  0.00    +0.006 A 
ATOM     11  C   UNL     1       1.143   1.834  -0.340  0.00  0.00    +0.020 A 
ATOM     12  C   UNL     1       1.122   3.217  -0.320  0.00  0.00    +0.041 A 
ATOM     13  C   UNL     1      -0.086   3.890  -0.267  0.00  0.00    +0.020 A 
ATOM     14  C   UNL     1      -1.271   3.179  -0.234  0.00  0.00    +0.006 A 
ATOM     15 CL   UNL     1       2.611   4.109  -0.362  0.00  0.00    -0.084 Cl
ENDBRANCH   3   9
BRANCH   4  16
ATOM     16  C   UNL     1      -2.864   0.806   2.254  0.00  0.00    +0.338 C 
ATOM     17  O   UNL     1      -3.165  -0.338   2.543  0.00  0.00    -0.245 OA
BRANCH  16  18
ATOM     18  O   UNL     1      -2.120   1.543   3.106  0.00  0.00    -0.459 OA
BRANCH  18  19
ATOM     19  C   UNL     1      -1.722   0.917   4.328  0.00  0.00    +0.260 C 
BRANCH  19  20
ATOM     20  C   UNL     1      -0.893   1.900   5.157  0.00  0.00    +0.200 C 
BRANCH  20  21
ATOM     21  O   UNL     1      -1.713   3.004   5.547  0.00  0.00    -0.380 OA
ATOM     22  C   UNL     1      -1.032   3.986   6.330  0.00  0.00    +0.194 C 
ENDBRANCH  20  21
ENDBRANCH  19  20
ENDBRANCH  18  19
ENDBRANCH  16  18
ENDBRANCH   4  16
BRANCH   2  23
ATOM     23  C   UNL     1      -2.986   0.823  -2.716  0.00  0.00    +0.098 C 
ATOM     24  N   UNL     1      -2.694   0.389  -3.724  0.00  0.00    -0.191 NA
ENDBRANCH   2  23
BRANCH   1  25
ATOM     25  S   UNL     1      -5.348   2.588  -2.815  0.00  0.00    -0.100 S 
BRANCH  25  26
ATOM     26  C   UNL     1      -6.608   3.678  -2.108  0.00  0.00    +0.171 C 
BRANCH  26  28
ATOM     27  N   UNL     1      -8.556   4.978  -2.905  0.00  0.00    -0.285 N 
ATOM     28  C   UNL     1      -7.534   4.150  -3.200  0.00  0.00    +0.227 C 
ATOM     29  O   UNL     1      -7.359   3.785  -4.343  0.00  0.00    -0.275 OA
ATOM     30  H   UNL     1      -8.672   5.367  -1.883  0.00  0.00    +0.155 HD
BRANCH  27  36
ATOM     31  C   UNL     1     -10.806   5.542  -3.578  0.00  0.00    -0.026 A 
ATOM     32  C   UNL     1     -11.707   5.901  -4.562  0.00  0.00    +0.005 A 
ATOM     33  C   UNL     1     -11.279   6.061  -5.867  0.00  0.00    +0.000 A 
ATOM     34  C   UNL     1      -9.949   5.863  -6.191  0.00  0.00    +0.002 A 
ATOM     35  C   UNL     1      -9.043   5.508  -5.211  0.00  0.00    +0.023 A 
ATOM     36  C   UNL     1      -9.471   5.341  -3.900  0.00  0.00    +0.037 A 
BRANCH  31  38
ATOM     37  C   UNL     1     -11.044   6.666  -1.380  0.00  0.00    +0.009 C 
ATOM     38  C   UNL     1     -11.274   5.367  -2.156  0.00  0.00    +0.033 C 
ENDBRANCH  31  38
ENDBRANCH  27  36
ENDBRANCH  26  28
ENDBRANCH  25  26
ENDBRANCH   1  25
TORSDOF 12
