REMARK  Name = ZINC12880782
REMARK  8 active torsions:
REMARK  status: ('A' for Active; 'I' for Inactive)
REMARK    1  A    between atoms: C_1  and  C_2
REMARK    2  A    between atoms: C_5  and  C_8
REMARK    3  A    between atoms: N_26  and  C_29
REMARK    4  A    between atoms: C_32  and  C_35
REMARK    5  A    between atoms: N_37  and  C_38
REMARK    6  A    between atoms: C_38  and  C_39
REMARK    7  A    between atoms: C_39  and  C_40
REMARK    8  A    between atoms: C_39  and  C_41
REMARK                            x       y       z     vdW  Elec       q    Type
REMARK                         _______ _______ _______ _____ _____    ______ ____
ROOT
ATOM      1  C   UNL     1       1.630   8.868   0.074  0.00  0.00    +0.155 C 
ATOM      2  C   UNL     1       1.053   9.852  -0.924  0.00  0.00    +0.046 A 
ATOM      3  C   UNL     1      -0.153   9.702  -1.511  0.00  0.00    -0.015 A 
ATOM      4  C   UNL     1      -0.343  10.851  -2.377  0.00  0.00    +0.003 A 
ATOM      5  C   UNL     1      -1.389  11.234  -3.222  0.00  0.00    +0.010 A 
ATOM      6  C   UNL     1      -1.228  12.410  -3.912  0.00  0.00    +0.001 A 
ATOM      7  C   UNL     1      -0.089  13.188  -3.786  0.00  0.00    +0.002 A 
ATOM      8  C   UNL     1       0.961  12.832  -2.957  0.00  0.00    +0.026 A 
ATOM      9  C   UNL     1       0.825  11.643  -2.243  0.00  0.00    +0.047 A 
ATOM     10  N   UNL     1       1.647  11.008  -1.357  0.00  0.00    -0.356 N 
ATOM     11  H   UNL     1       2.519  11.326  -1.077  0.00  0.00    +0.166 HD
ATOM     12  C   UNL     1      -1.103   8.551  -1.294  0.00  0.00    +0.069 C 
ATOM     13  C   UNL     1      -0.748   7.836   0.014  0.00  0.00    +0.170 C 
ATOM     14  N   UNL     1       0.725   7.712   0.081  0.00  0.00    -0.260 N 
ATOM     15  C   UNL     1       1.012   6.410   0.129  0.00  0.00    +0.317 C 
ATOM     16  O   UNL     1       2.138   5.967   0.244  0.00  0.00    -0.252 OA
ATOM     17  N   UNL     1      -0.085   5.646   0.030  0.00  0.00    -0.193 N 
ATOM     18  C   UNL     1      -1.206   6.393  -0.054  0.00  0.00    +0.248 C 
ATOM     19  O   UNL     1      -2.344   5.992  -0.163  0.00  0.00    -0.273 OA
ENDROOT
BRANCH   1  24
ATOM     20  C   UNL     1       1.844  11.264   5.328  0.00  0.00    +0.044 C 
ATOM     21  C   UNL     1       1.788  10.640   3.958  0.00  0.00    -0.050 A 
ATOM     22  C   UNL     1       2.959  10.303   3.304  0.00  0.00    +0.004 A 
ATOM     23  C   UNL     1       2.907   9.729   2.047  0.00  0.00    +0.006 A 
ATOM     24  C   UNL     1       1.686   9.493   1.444  0.00  0.00    -0.021 A 
ATOM     25  C   UNL     1       0.516   9.836   2.096  0.00  0.00    +0.006 A 
ATOM     26  C   UNL     1       0.567  10.404   3.355  0.00  0.00    +0.004 A 
ENDBRANCH   1  24
BRANCH  17  27
ATOM     27  C   UNL     1      -0.071   4.248   0.023  0.00  0.00    +0.045 A 
ATOM     28  C   UNL     1      -1.269   3.542   0.054  0.00  0.00    +0.025 A 
ATOM     29  C   UNL     1      -1.259   2.166   0.046  0.00  0.00    +0.015 A 
ATOM     30  C   UNL     1      -0.043   1.478   0.008  0.00  0.00    +0.037 A 
ATOM     31  C   UNL     1       1.159   2.190  -0.018  0.00  0.00    +0.015 A 
ATOM     32  C   UNL     1       1.141   3.567  -0.015  0.00  0.00    +0.025 A 
BRANCH  30  33
ATOM     33  C   UNL     1      -0.028   0.002  -0.000  0.00  0.00    +0.244 C 
ATOM     34  O   UNL     1      -1.074  -0.617   0.027  0.00  0.00    -0.270 OA
ATOM     35  N   UNL     1       1.146  -0.660  -0.038  0.00  0.00    -0.311 N 
ATOM     36  H   UNL     1       1.980  -0.167  -0.059  0.00  0.00    +0.149 HD
BRANCH  35  37
ATOM     37  C   UNL     1       1.161  -2.125  -0.045  0.00  0.00    +0.107 C 
BRANCH  37  38
ATOM     38  C   UNL     1       2.607  -2.620  -0.090  0.00  0.00    -0.000 C 
ATOM     39  C   UNL     1       2.628  -4.146   0.028  0.00  0.00    +0.009 C 
ATOM     40  C   UNL     1       3.249  -2.202  -1.414  0.00  0.00    +0.009 C 
ENDBRANCH  37  38
ENDBRANCH  35  37
ENDBRANCH  30  33
ENDBRANCH  17  27
TORSDOF 5
