REMARK  Name = ZINC06602051
REMARK  6 active torsions:
REMARK  status: ('A' for Active; 'I' for Inactive)
REMARK    1  A    between atoms: C_1  and  C_2
REMARK    2  A    between atoms: C_2  and  C_27
REMARK    3  A    between atoms: C_13  and  C_15
REMARK    4  A    between atoms: C_15  and  O_16
REMARK    5  A    between atoms: O_16  and  C_17
REMARK    6  A    between atoms: C_17  and  C_19
REMARK                            x       y       z     vdW  Elec       q    Type
REMARK                         _______ _______ _______ _____ _____    ______ ____
ROOT
ATOM      1  C   UNL     1      -5.165   8.844  -0.168  0.00  0.00    +0.042 C 
ATOM      2  C   UNL     1      -4.139   9.879   0.299  0.00  0.00    +0.113 C 
ATOM      3  C   UNL     1      -4.318  11.152  -0.480  0.00  0.00    +0.241 C 
ATOM      4  O   UNL     1      -5.422  11.461  -0.875  0.00  0.00    -0.273 OA
ATOM      5  N   UNL     1      -3.267  11.950  -0.749  0.00  0.00    -0.282 N 
ATOM      6  C   UNL     1      -1.976  11.590  -0.349  0.00  0.00    +0.055 A 
ATOM      7  C   UNL     1      -0.945  12.517  -0.364  0.00  0.00    +0.025 A 
ATOM      8  C   UNL     1       0.326  12.138   0.025  0.00  0.00    +0.002 A 
ATOM      9  C   UNL     1       0.576  10.839   0.429  0.00  0.00    +0.002 A 
ATOM     10  C   UNL     1      -0.447   9.908   0.449  0.00  0.00    +0.025 A 
ATOM     11  C   UNL     1      -1.722  10.281   0.062  0.00  0.00    +0.059 A 
ATOM     12  N   UNL     1      -2.781   9.360   0.076  0.00  0.00    -0.253 N 
ATOM     13  C   UNL     1      -2.562   8.044  -0.116  0.00  0.00    +0.258 C 
ATOM     14  O   UNL     1      -3.499   7.280  -0.203  0.00  0.00    -0.271 OA
ATOM     15  C   UNL     1      -4.339  10.164   1.789  0.00  0.00    +0.042 C 
ATOM     16  H   UNL     1      -3.407  12.783  -1.226  0.00  0.00    +0.155 HD
ENDROOT
BRANCH  13  17
ATOM     17  C   UNL     1      -1.152   7.523  -0.222  0.00  0.00    +0.328 C 
BRANCH  17  18
ATOM     18  O   UNL     1      -1.178   6.148  -0.687  0.00  0.00    -0.452 OA
BRANCH  18  19
ATOM     19  C   UNL     1       0.010   5.530  -0.836  0.00  0.00    +0.340 C 
ATOM     20  O   UNL     1       1.039   6.124  -0.585  0.00  0.00    -0.245 OA
BRANCH  19  21
ATOM     21  C   UNL     1       0.061   4.130  -1.305  0.00  0.00    +0.062 A 
ATOM     22  C   UNL     1       1.290   3.487  -1.461  0.00  0.00    +0.035 A 
ATOM     23  C   UNL     1       1.331   2.179  -1.900  0.00  0.00    +0.043 A 
ATOM     24  C   UNL     1       0.156   1.505  -2.187  0.00  0.00    +0.040 A 
ATOM     25  C   UNL     1      -1.066   2.139  -2.039  0.00  0.00    +0.043 A 
ATOM     26  C   UNL     1      -1.121   3.445  -1.595  0.00  0.00    +0.035 A 
ATOM     27 CL   UNL     1      -2.534   1.287  -2.408  0.00  0.00    -0.083 Cl
ATOM     28 CL   UNL     1       2.859   1.378  -2.095  0.00  0.00    -0.083 Cl
ENDBRANCH  19  21
ENDBRANCH  18  19
ENDBRANCH  17  18
ENDBRANCH  13  17
TORSDOF 4
