REMARK  Name = ZINC32107523
REMARK  18 active torsions:
REMARK  status: ('A' for Active; 'I' for Inactive)
REMARK    1  A    between atoms: C_1  and  C_2
REMARK    2  A    between atoms: C_2  and  C_3
REMARK    3  A    between atoms: C_2  and  C_4
REMARK    4  A    between atoms: C_4  and  C_6
REMARK    5  A    between atoms: C_4  and  N_23
REMARK    6  A    between atoms: N_8  and  C_9
REMARK    7  A    between atoms: C_9  and  C_11
REMARK    8  A    between atoms: C_9  and  C_20
REMARK    9  A    between atoms: C_11  and  S_12
REMARK   10  A    between atoms: S_12  and  C_13
REMARK   11  A    between atoms: C_13  and  C_14
REMARK   12  A    between atoms: C_24  and  C_26
REMARK   13  A    between atoms: C_26  and  N_27
REMARK   14  A    between atoms: C_28  and  O_30
REMARK   15  A    between atoms: O_30  and  C_31
REMARK   16  A    between atoms: C_31  and  C_32
REMARK   17  A    between atoms: C_31  and  C_33
REMARK   18  A    between atoms: C_31  and  C_34
REMARK                            x       y       z     vdW  Elec       q    Type
REMARK                         _______ _______ _______ _____ _____    ______ ____
ROOT
ATOM      1  C   UNL     1      -4.056   2.292   1.196  0.00  0.00    +0.234 C 
ATOM      2  O   UNL     1      -3.526   1.969   2.239  0.00  0.00    -0.274 OA
ATOM      3  N   UNL     1      -3.608   1.789   0.029  0.00  0.00    -0.302 N 
ATOM      4  H   UNL     1      -4.089   2.082  -0.916  0.00  0.00    +0.150 HD
ENDROOT
BRANCH   1   5
ATOM      5  C   UNL     1      -5.215   3.256   1.207  0.00  0.00    +0.161 C 
BRANCH   5   6
ATOM      6  N   UNL     1      -5.506   3.653   2.587  0.00  0.00    -0.302 N 
ATOM      7  C   UNL     1      -6.743   4.074   2.920  0.00  0.00    +0.231 C 
ATOM      8  O   UNL     1      -7.614   4.123   2.077  0.00  0.00    -0.274 OA
ATOM      9  H   UNL     1      -4.716   3.608   3.351  0.00  0.00    +0.150 HD
BRANCH   7  10
ATOM     10  C   UNL     1      -7.043   4.483   4.339  0.00  0.00    +0.203 C 
BRANCH  10  11
ATOM     11  N   UNL     1      -8.445   4.897   4.441  0.00  0.00    -0.273 N 
ATOM     12  C   UNL     1      -8.941   5.306   5.625  0.00  0.00    +0.401 C 
ATOM     13  O   UNL     1      -8.226   5.332   6.608  0.00  0.00    -0.226 OA
ATOM     14  H   UNL     1      -9.092   4.873   3.552  0.00  0.00    +0.153 HD
BRANCH  12  15
ATOM     15  O   UNL     1     -10.229   5.687   5.720  0.00  0.00    -0.445 OA
BRANCH  15  16
ATOM     16  C   UNL     1     -10.696   6.116   7.026  0.00  0.00    +0.107 C 
ATOM     17  C   UNL     1      -9.876   7.322   7.490  0.00  0.00    +0.055 C 
ATOM     18  C   UNL     1     -12.172   6.507   6.937  0.00  0.00    +0.055 C 
ATOM     19  C   UNL     1     -10.531   4.971   8.028  0.00  0.00    +0.055 C 
ENDBRANCH  15  16
ENDBRANCH  12  15
ENDBRANCH  10  11
ENDBRANCH   7  10
ENDBRANCH   5   6
BRANCH   5  21
ATOM     20  C   UNL     1      -6.031   5.473   0.396  0.00  0.00    +0.009 C 
ATOM     21  C   UNL     1      -4.855   4.495   0.385  0.00  0.00    +0.012 C 
ATOM     22  C   UNL     1      -3.624   5.171   0.992  0.00  0.00    +0.009 C 
ENDBRANCH   5  21
ENDBRANCH   1   5
BRANCH   3  23
ATOM     23  C   UNL     1      -2.482   0.853   0.018  0.00  0.00    +0.168 C 
BRANCH  23  24
ATOM     24  C   UNL     1      -1.187   1.624   0.017  0.00  0.00    +0.232 C 
ATOM     25  O   UNL     1      -1.204   2.837   0.023  0.00  0.00    -0.274 OA
ATOM     26  N   UNL     1      -0.011   0.966   0.007  0.00  0.00    -0.328 N 
ATOM     27  H   UNL     1       0.934   1.529   0.006  0.00  0.00    +0.145 HD
ATOM     28  H   UNL     1       0.004  -0.134   0.001  0.00  0.00    +0.145 HD
ENDBRANCH  23  24
BRANCH  23  29
ATOM     29  C   UNL     1      -2.557  -0.021  -1.235  0.00  0.00    +0.101 C 
BRANCH  29  30
ATOM     30  S   UNL     1      -4.116  -0.950  -1.233  0.00  0.00    -0.154 S 
BRANCH  30  31
ATOM     31  C   UNL     1      -4.050  -1.922  -2.763  0.00  0.00    +0.104 C 
BRANCH  31  32
ATOM     32  C   UNL     1      -5.302  -2.751  -2.886  0.00  0.00    -0.038 A 
ATOM     33  C   UNL     1      -5.341  -4.027  -2.356  0.00  0.00    +0.004 A 
ATOM     34  C   UNL     1      -6.492  -4.785  -2.464  0.00  0.00    +0.000 A 
ATOM     35  C   UNL     1      -7.600  -4.271  -3.112  0.00  0.00    +0.000 A 
ATOM     36  C   UNL     1      -7.559  -2.997  -3.647  0.00  0.00    +0.000 A 
ATOM     37  C   UNL     1      -6.410  -2.237  -3.533  0.00  0.00    +0.004 A 
ENDBRANCH  31  32
ENDBRANCH  30  31
ENDBRANCH  29  30
ENDBRANCH  23  29
ENDBRANCH   3  23
TORSDOF 13
