REMARK  Name = ZINC07813891
REMARK  3 active torsions:
REMARK  status: ('A' for Active; 'I' for Inactive)
REMARK    1  A    between atoms: C_1  and  C_2
REMARK    2  A    between atoms: C_3  and  C_12
REMARK    3  A    between atoms: N_13  and  N_14
REMARK                            x       y       z     vdW  Elec       q    Type
REMARK                         _______ _______ _______ _____ _____    ______ ____
ROOT
ATOM      1  C   UNL     1      -2.350   0.985   0.018  0.00  0.00    +0.140 C 
ATOM      2  N   UNL     1      -1.234   1.650   0.017  0.00  0.00    -0.189 NA
ENDROOT
BRANCH   1   5
ATOM      3  C   UNL     1      -2.703   4.073   0.051  0.00  0.00    +0.064 C 
ATOM      4  C   UNL     1      -3.812   3.052   0.043  0.00  0.00    +0.023 A 
ATOM      5  C   UNL     1      -3.635   1.704   0.029  0.00  0.00    +0.023 A 
ATOM      6  C   UNL     1      -4.980   1.103   0.032  0.00  0.00    +0.009 A 
ATOM      7  C   UNL     1      -5.454  -0.208   0.027  0.00  0.00    +0.010 A 
ATOM      8  C   UNL     1      -6.801  -0.443   0.033  0.00  0.00    +0.001 A 
ATOM      9  C   UNL     1      -7.700   0.614   0.043  0.00  0.00    +0.002 A 
ATOM     10  C   UNL     1      -7.252   1.917   0.048  0.00  0.00    +0.026 A 
ATOM     11  C   UNL     1      -5.885   2.178   0.042  0.00  0.00    +0.047 A 
ATOM     12  N   UNL     1      -5.145   3.341   0.045  0.00  0.00    -0.358 N 
ATOM     13  H   UNL     1      -5.519   4.236   0.051  0.00  0.00    +0.166 HD
ENDBRANCH   1   5
BRANCH   2  14
ATOM     14  N   UNL     1      -0.011   0.966   0.007  0.00  0.00    -0.220 N 
ATOM     15  C   UNL     1       1.176   1.673  -0.000  0.00  0.00    +0.149 A 
ATOM     16  C   UNL     1       2.423   0.987  -0.016  0.00  0.00    +0.049 A 
ATOM     17  C   UNL     1       2.699  -0.438  -0.026  0.00  0.00    +0.021 A 
ATOM     18  C   UNL     1       3.973  -0.859  -0.040  0.00  0.00    +0.048 A 
ATOM     19  S   UNL     1       4.912   0.657  -0.041  0.00  0.00    -0.077 S 
ATOM     20  C   UNL     1       3.568   1.814  -0.022  0.00  0.00    +0.113 A 
ATOM     21  N   UNL     1       3.467   3.129  -0.015  0.00  0.00    -0.228 NA
ATOM     22  C   UNL     1       2.281   3.707  -0.001  0.00  0.00    +0.224 A 
ATOM     23  N   UNL     1       1.168   2.997   0.002  0.00  0.00    -0.219 NA
ATOM     24  H   UNL     1       0.002  -0.004   0.002  0.00  0.00    +0.176 HD
ENDBRANCH   2  14
TORSDOF 2
