REMARK  Name = ZINC35636291
REMARK  15 active torsions:
REMARK  status: ('A' for Active; 'I' for Inactive)
REMARK    1  A    between atoms: C_2  and  C_3
REMARK    2  A    between atoms: C_3  and  O_4
REMARK    3  A    between atoms: O_4  and  C_5
REMARK    4  A    between atoms: N_7  and  C_8
REMARK    5  A    between atoms: C_10  and  O_39
REMARK    6  A    between atoms: C_12  and  O_22
REMARK    7  A    between atoms: C_14  and  C_20
REMARK    8  A    between atoms: C_17  and  O_19
REMARK    9  A    between atoms: C_20  and  O_21
REMARK   10  A    between atoms: O_22  and  C_23
REMARK   11  A    between atoms: C_25  and  O_38
REMARK   12  A    between atoms: C_27  and  O_37
REMARK   13  A    between atoms: C_29  and  O_36
REMARK   14  A    between atoms: C_31  and  C_34
REMARK   15  A    between atoms: C_34  and  O_35
REMARK                            x       y       z     vdW  Elec       q    Type
REMARK                         _______ _______ _______ _____ _____    ______ ____
ROOT
ATOM      1  C   UNL     1      -3.401  -4.673  -2.166  0.00  0.00    +0.163 C 
ATOM      2  C   UNL     1      -3.401  -5.365  -3.533  0.00  0.00    +0.171 C 
ATOM      3  C   UNL     1      -4.666  -6.219  -3.660  0.00  0.00    +0.183 C 
ATOM      4  C   UNL     1      -4.716  -7.219  -2.502  0.00  0.00    +0.178 C 
ATOM      5  O   UNL     1      -4.682  -6.512  -1.262  0.00  0.00    -0.341 OA
ATOM      6  C   UNL     1      -3.500  -5.732  -1.065  0.00  0.00    +0.271 C 
ENDROOT
BRANCH   1   9
ATOM      7  C   UNL     1      -2.122  -2.856  -1.167  0.00  0.00    +0.401 C 
ATOM      8  O   UNL     1      -3.117  -2.535  -0.548  0.00  0.00    -0.226 OA
ATOM      9  N   UNL     1      -2.159  -3.912  -2.003  0.00  0.00    -0.271 N 
ATOM     10  H   UNL     1      -1.365  -4.169  -2.497  0.00  0.00    +0.153 HD
BRANCH   7  11
ATOM     11  O   UNL     1      -0.981  -2.157  -1.017  0.00  0.00    -0.446 OA
BRANCH  11  12
ATOM     12  C   UNL     1      -1.013  -1.049  -0.114  0.00  0.00    +0.261 C 
BRANCH  12  14
ATOM     13  C   UNL     1       0.441   0.912  -0.132  0.00  0.00    +0.007 C 
ATOM     14  C   UNL     1       0.343  -0.393  -0.077  0.00  0.00    +0.006 C 
ENDBRANCH  12  14
ENDBRANCH  11  12
ENDBRANCH   7  11
ENDBRANCH   1   9
BRANCH   6  15
ATOM     15  O   UNL     1      -3.558  -5.090   0.210  0.00  0.00    -0.365 OA
ATOM     16  H   UNL     1      -3.622  -5.702   0.956  0.00  0.00    +0.213 HD
ENDBRANCH   6  15
BRANCH   2  17
ATOM     17  O   UNL     1      -2.246  -6.199  -3.647  0.00  0.00    -0.387 OA
ATOM     18  H   UNL     1      -1.408  -5.723  -3.569  0.00  0.00    +0.210 HD
ENDBRANCH   2  17
BRANCH   4  19
ATOM     19  C   UNL     1      -6.007  -8.036  -2.589  0.00  0.00    +0.190 C 
BRANCH  19  20
ATOM     20  O   UNL     1      -5.998  -9.050  -1.582  0.00  0.00    -0.392 OA
ATOM     21  H   UNL     1      -6.788  -9.607  -1.577  0.00  0.00    +0.210 HD
ENDBRANCH  19  20
ENDBRANCH   4  19
BRANCH   3  22
ATOM     22  O   UNL     1      -5.819  -5.375  -3.614  0.00  0.00    -0.340 OA
BRANCH  22  23
ATOM     23  C   UNL     1      -6.210  -4.855  -4.886  0.00  0.00    +0.282 C 
ATOM     24  C   UNL     1      -7.267  -3.766  -4.689  0.00  0.00    +0.201 C 
ATOM     25  C   UNL     1      -7.725  -3.256  -6.059  0.00  0.00    +0.179 C 
ATOM     26  C   UNL     1      -8.252  -4.436  -6.881  0.00  0.00    +0.177 C 
ATOM     27  C   UNL     1      -7.157  -5.499  -6.993  0.00  0.00    +0.178 C 
ATOM     28  O   UNL     1      -6.755  -5.908  -5.684  0.00  0.00    -0.341 OA
BRANCH  26  29
ATOM     29  O   UNL     1      -9.397  -4.994  -6.234  0.00  0.00    -0.386 OA
ATOM     30  H   UNL     1     -10.130  -4.373  -6.125  0.00  0.00    +0.210 HD
ENDBRANCH  26  29
BRANCH  25  31
ATOM     31  O   UNL     1      -8.763  -2.289  -5.886  0.00  0.00    -0.386 OA
ATOM     32  H   UNL     1      -8.499  -1.516  -5.369  0.00  0.00    +0.210 HD
ENDBRANCH  25  31
BRANCH  24  33
ATOM     33  O   UNL     1      -8.385  -4.307  -3.982  0.00  0.00    -0.384 OA
ATOM     34  H   UNL     1      -8.166  -4.653  -3.106  0.00  0.00    +0.210 HD
ENDBRANCH  24  33
BRANCH  27  35
ATOM     35  C   UNL     1      -7.696  -6.707  -7.762  0.00  0.00    +0.190 C 
BRANCH  35  36
ATOM     36  O   UNL     1      -6.641  -7.649  -7.968  0.00  0.00    -0.392 OA
ATOM     37  H   UNL     1      -6.911  -8.443  -8.451  0.00  0.00    +0.210 HD
ENDBRANCH  35  36
ENDBRANCH  27  35
ENDBRANCH  22  23
ENDBRANCH   3  22
TORSDOF 15
