REMARK  Name = ZINC38249277
REMARK  6 active torsions:
REMARK  status: ('A' for Active; 'I' for Inactive)
REMARK    1  A    between atoms: C_1  and  C_2
REMARK    2  A    between atoms: C_5  and  C_22
REMARK    3  A    between atoms: C_6  and  C_7
REMARK    4  A    between atoms: C_6  and  C_8
REMARK    5  A    between atoms: N_11  and  N_12
REMARK    6  A    between atoms: C_13  and  C_15
REMARK                            x       y       z     vdW  Elec       q    Type
REMARK                         _______ _______ _______ _____ _____    ______ ____
ROOT
ATOM      1  C   UNL     1      -0.019   1.526   0.010  0.00  0.00    +0.018 C 
ATOM      2  C   UNL     1       0.002  -0.004   0.002  0.00  0.00    +0.014 C 
ATOM      3  C   UNL     1      -1.390  -0.703   0.064  0.00  0.00    +0.014 C 
ATOM      4  C   UNL     1      -1.085  -2.137   0.556  0.00  0.00    +0.018 C 
ATOM      5  C   UNL     1       0.465  -2.165   0.735  0.00  0.00    +0.058 C 
ATOM      6  C   UNL     1       0.727  -0.692   1.212  0.00  0.00    -0.010 C 
ATOM      7  C   UNL     1       0.040  -0.388   2.544  0.00  0.00    +0.013 C 
ATOM      8  C   UNL     1       2.220  -0.359   1.253  0.00  0.00    +0.013 C 
ATOM      9  C   UNL     1       1.022  -2.089  -0.720  0.00  0.00    +0.069 C 
ATOM     10  C   UNL     1       0.731  -0.657  -1.181  0.00  0.00    +0.044 C 
ATOM     11  N   UNL     1       1.011  -0.123  -2.310  0.00  0.00    -0.188 NA
ENDROOT
BRANCH   5  12
ATOM     12  C   UNL     1       1.010  -3.261   1.613  0.00  0.00    +0.218 C 
ATOM     13  O   UNL     1       1.627  -2.982   2.619  0.00  0.00    -0.275 OA
ATOM     14  N   UNL     1       0.811  -4.553   1.282  0.00  0.00    -0.329 N 
ATOM     15  H   UNL     1       0.317  -4.776   0.477  0.00  0.00    +0.145 HD
ATOM     16  H   UNL     1       1.162  -5.258   1.847  0.00  0.00    +0.145 HD
ENDBRANCH   5  12
BRANCH  11  17
ATOM     17  N   UNL     1       1.686  -0.866  -3.288  0.00  0.00    -0.203 N 
ATOM     18  C   UNL     1       1.982  -0.303  -4.476  0.00  0.00    +0.263 C 
ATOM     19  O   UNL     1       1.663   0.848  -4.700  0.00  0.00    -0.268 OA
ATOM     20  H   UNL     1       1.941  -1.784  -3.109  0.00  0.00    +0.178 HD
BRANCH  18  21
ATOM     21  C   UNL     1       2.694  -1.087  -5.508  0.00  0.00    +0.038 A 
ATOM     22  C   UNL     1       3.056  -2.411  -5.256  0.00  0.00    +0.014 A 
ATOM     23  C   UNL     1       3.720  -3.137  -6.222  0.00  0.00    +0.016 A 
ATOM     24  C   UNL     1       4.027  -2.555  -7.441  0.00  0.00    +0.018 A 
ATOM     25  C   UNL     1       3.671  -1.241  -7.696  0.00  0.00    +0.016 A 
ATOM     26  C   UNL     1       3.001  -0.507  -6.740  0.00  0.00    +0.014 A 
ATOM     27 BR   UNL     1       4.938  -3.557  -8.760  0.00  0.00    -0.050 Br
ENDBRANCH  18  21
ENDBRANCH  11  17
TORSDOF 3
