REMARK  Name = ZINC20166678
REMARK  2 active torsions:
REMARK  status: ('A' for Active; 'I' for Inactive)
REMARK    1  A    between atoms: C_9  and  C_12
REMARK    2  A    between atoms: C_23  and  C_25
REMARK                            x       y       z     vdW  Elec       q    Type
REMARK                         _______ _______ _______ _____ _____    ______ ____
ROOT
ATOM      1  C   UNL     1       4.921   2.504   1.088  0.00  0.00    +0.257 C 
ATOM      2  O   UNL     1       5.539   1.621   1.645  0.00  0.00    -0.272 OA
ATOM      3  N   UNL     1       3.926   2.194   0.233  0.00  0.00    -0.284 N 
ATOM      4  C   UNL     1       3.164   3.249  -0.451  0.00  0.00    +0.115 C 
ATOM      5  C   UNL     1       1.702   3.196   0.011  0.00  0.00    +0.076 C 
ATOM      6  C   UNL     1       1.241   1.760  -0.000  0.00  0.00    +0.066 A 
ATOM      7  C   UNL     1       2.068   0.693  -0.017  0.00  0.00    +0.065 A 
ATOM      8  N   UNL     1       1.289  -0.422  -0.013  0.00  0.00    -0.346 N 
ATOM      9  H   UNL     1       1.755  -1.418  -0.023  0.00  0.00    +0.167 HD
ATOM     10  C   UNL     1       0.002  -0.004   0.002  0.00  0.00    +0.197 A 
ATOM     11  N   UNL     1      -0.016   1.303   0.009  0.00  0.00    -0.240 NA
ATOM     12  C   UNL     1       3.573   0.788  -0.039  0.00  0.00    +0.173 C 
ENDROOT
BRANCH   1  21
ATOM     13  C   UNL     1       7.455   7.660   3.848  0.00  0.00    +0.000 A 
ATOM     14  C   UNL     1       8.365   6.620   3.812  0.00  0.00    +0.004 A 
ATOM     15  C   UNL     1       8.005   5.408   3.259  0.00  0.00    +0.046 A 
ATOM     16  C   UNL     1       6.728   5.229   2.736  0.00  0.00    +0.125 A 
ATOM     17  C   UNL     1       5.820   6.273   2.771  0.00  0.00    -0.006 A 
ATOM     18  C   UNL     1       6.187   7.487   3.328  0.00  0.00    +0.007 A 
ATOM     19  C   UNL     1       4.428   6.123   2.211  0.00  0.00    +0.043 C 
ATOM     20  C   UNL     1       4.091   4.637   2.059  0.00  0.00    +0.059 C 
ATOM     21  C   UNL     1       5.265   3.947   1.353  0.00  0.00    +0.259 C 
ATOM     22  O   UNL     1       6.410   4.020   2.204  0.00  0.00    -0.479 OA
ENDBRANCH   1  21
BRANCH  12  23
ATOM     23  C   UNL     1       4.093   0.383  -1.394  0.00  0.00    +0.068 A 
ATOM     24  C   UNL     1       4.313  -0.954  -1.669  0.00  0.00    +0.025 A 
ATOM     25  C   UNL     1       4.786  -1.317  -2.921  0.00  0.00    +0.003 A 
ATOM     26  C   UNL     1       5.031  -0.317  -3.849  0.00  0.00    +0.020 A 
ATOM     27  C   UNL     1       4.793   0.999  -3.501  0.00  0.00    +0.111 A 
ATOM     28  N   UNL     1       4.337   1.307  -2.302  0.00  0.00    -0.258 NA
ENDBRANCH  12  23
TORSDOF 2
