REMARK  Name = ZINC39694518
REMARK  7 active torsions:
REMARK  status: ('A' for Active; 'I' for Inactive)
REMARK    1  A    between atoms: C_1  and  C_2
REMARK    2  A    between atoms: C_3  and  C_14
REMARK    3  A    between atoms: C_4  and  C_7
REMARK    4  A    between atoms: C_18  and  C_27
REMARK    5  A    between atoms: N_29  and  C_30
REMARK    6  A    between atoms: C_30  and  C_31
REMARK    7  A    between atoms: C_31  and  N_32
REMARK                            x       y       z     vdW  Elec       q    Type
REMARK                         _______ _______ _______ _____ _____    ______ ____
ROOT
ATOM      1  C   UNL     1      -2.664  -0.381  -0.022  0.00  0.00    +0.252 C 
ATOM      2  O   UNL     1      -3.260  -0.140  -1.054  0.00  0.00    -0.270 OA
ATOM      3  N   UNL     1      -3.262  -0.170   1.167  0.00  0.00    -0.296 N 
ATOM      4  C   UNL     1      -2.699  -0.395   2.520  0.00  0.00    +0.121 C 
ATOM      5  C   UNL     1      -3.208   0.798   3.358  0.00  0.00    +0.100 C 
ATOM      6  C   UNL     1      -4.477   1.276   2.631  0.00  0.00    -0.004 C 
ATOM      7  C   UNL     1      -4.629   0.347   1.418  0.00  0.00    +0.115 C 
ATOM      8  C   UNL     1      -5.690   1.152   3.548  0.00  0.00    -0.010 C 
ATOM      9  C   UNL     1      -6.928   1.687   2.824  0.00  0.00    -0.082 C 
ATOM     10  N   UNL     1      -6.712   3.090   2.453  0.00  0.00    +0.379 N 
ATOM     11  C   UNL     1      -5.602   3.191   1.498  0.00  0.00    -0.082 C 
ATOM     12  C   UNL     1      -4.307   2.719   2.166  0.00  0.00    -0.010 C 
ATOM     13  H   UNL     1      -7.551   3.458   2.030  0.00  0.00    -0.086 HD
ATOM     14  H   UNL     1      -6.492   3.626   3.279  0.00  0.00    -0.086 HD
ENDROOT
BRANCH   1  17
ATOM     15  C   UNL     1      -0.051   1.333  -0.051  0.00  0.00    +0.090 C 
ATOM     16  C   UNL     1      -0.138  -0.171  -0.084  0.00  0.00    +0.147 A 
ATOM     17  C   UNL     1      -1.288  -0.905  -0.071  0.00  0.00    +0.106 A 
ATOM     18  C   UNL     1      -0.888  -2.320  -0.116  0.00  0.00    +0.127 A 
ATOM     19  N   UNL     1       0.420  -2.344  -0.151  0.00  0.00    -0.077 NA
ATOM     20  O   UNL     1       0.896  -1.014  -0.137  0.00  0.00    -0.359 OA
BRANCH  18  21
ATOM     21  C   UNL     1      -1.795  -3.493  -0.119  0.00  0.00    +0.023 A 
ATOM     22  C   UNL     1      -3.176  -3.311  -0.084  0.00  0.00    +0.011 A 
ATOM     23  C   UNL     1      -4.014  -4.407  -0.088  0.00  0.00    +0.001 A 
ATOM     24  C   UNL     1      -3.487  -5.686  -0.127  0.00  0.00    +0.001 A 
ATOM     25  C   UNL     1      -2.118  -5.874  -0.161  0.00  0.00    +0.020 A 
ATOM     26  C   UNL     1      -1.268  -4.784  -0.164  0.00  0.00    +0.050 A 
ATOM     27 CL   UNL     1       0.451  -5.021  -0.215  0.00  0.00    -0.083 Cl
ENDBRANCH  18  21
ENDBRANCH   1  17
BRANCH   5  28
ATOM     28  C   UNL     1      -3.540   0.352   4.759  0.00  0.00    +0.218 C 
ATOM     29  O   UNL     1      -3.931  -0.778   4.959  0.00  0.00    -0.275 OA
ATOM     30  N   UNL     1      -3.402   1.210   5.790  0.00  0.00    -0.313 N 
ATOM     31  H   UNL     1      -3.090   2.114   5.630  0.00  0.00    +0.149 HD
BRANCH  30  32
ATOM     32  C   UNL     1      -3.725   0.776   7.151  0.00  0.00    +0.127 C 
BRANCH  32  33
ATOM     33  C   UNL     1      -3.483   1.931   8.125  0.00  0.00    +0.162 C 
BRANCH  33  34
ATOM     34  N   UNL     1      -3.806   1.497   9.487  0.00  0.00    -0.270 N 
ATOM     35  C   UNL     1      -2.985   1.562  10.556  0.00  0.00    +0.108 A 
ATOM     36  C   UNL     1      -3.655   1.065  11.621  0.00  0.00    +0.041 A 
ATOM     37  C   UNL     1      -4.929   0.683  11.188  0.00  0.00    +0.134 A 
ATOM     38  N   UNL     1      -5.023   0.948   9.910  0.00  0.00    -0.180 NA
ENDBRANCH  33  34
ENDBRANCH  32  33
ENDBRANCH  30  32
ENDBRANCH   5  28
TORSDOF 6
