REMARK  Name = ZINC62933590
REMARK  5 active torsions:
REMARK  status: ('A' for Active; 'I' for Inactive)
REMARK    1  A    between atoms: C_1  and  C_2
REMARK    2  A    between atoms: C_2  and  C_3
REMARK    3  A    between atoms: C_3  and  C_17
REMARK    4  A    between atoms: N_6  and  C_8
REMARK    5  A    between atoms: C_13  and  C_14
REMARK                            x       y       z     vdW  Elec       q    Type
REMARK                         _______ _______ _______ _____ _____    ______ ____
ROOT
ATOM      1  C   UNL     1       0.718  -0.497  -1.257  0.00  0.00    +0.089 C 
ATOM      2  C   UNL     1       2.221  -0.114  -1.219  0.00  0.00    +0.038 C 
ATOM      3  C   UNL     1       2.845  -1.212  -2.117  0.00  0.00    +0.106 C 
ATOM      4  N   UNL     1       2.075  -2.432  -1.810  0.00  0.00    -0.328 N 
ATOM      5  C   UNL     1       0.756  -2.040  -1.295  0.00  0.00    +0.123 C 
ENDROOT
BRANCH   4   6
ATOM      6  C   UNL     1       2.524  -3.737  -1.981  0.00  0.00    +0.049 A 
ATOM      7  C   UNL     1       3.181  -4.390  -0.948  0.00  0.00    +0.044 A 
ATOM      8  C   UNL     1       3.625  -5.687  -1.120  0.00  0.00    +0.043 A 
ATOM      9  C   UNL     1       3.418  -6.345  -2.323  0.00  0.00    +0.021 A 
ATOM     10  C   UNL     1       2.768  -5.713  -3.360  0.00  0.00    +0.022 A 
ATOM     11  C   UNL     1       2.308  -4.403  -3.198  0.00  0.00    +0.073 A 
ATOM     12 CL   UNL     1       4.448  -6.497   0.177  0.00  0.00    -0.083 Cl
BRANCH  11  13
ATOM     13  C   UNL     1       1.625  -3.742  -4.270  0.00  0.00    +0.101 C 
ATOM     14  N   UNL     1       1.084  -3.218  -5.120  0.00  0.00    -0.191 NA
ENDBRANCH  11  13
ENDBRANCH   4   6
BRANCH   1  15
ATOM     15  C   UNL     1       0.055   0.050  -2.494  0.00  0.00    +0.364 C 
ATOM     16  O   UNL     1      -0.025   1.255  -2.660  0.00  0.00    -0.246 OA
ATOM     17  O   UNL     1      -0.401  -0.712  -3.329  0.00  0.00    -0.246 OA
ENDBRANCH   1  15
BRANCH   1  19
ATOM     18  C   UNL     1      -0.019   1.526   0.010  0.00  0.00    +0.005 C 
ATOM     19  C   UNL     1       0.002  -0.004   0.002  0.00  0.00    +0.016 C 
ENDBRANCH   1  19
TORSDOF 4
