REMARK  Name = ZINC05527732
REMARK  7 active torsions:
REMARK  status: ('A' for Active; 'I' for Inactive)
REMARK    1  A    between atoms: C_1  and  C_2
REMARK    2  A    between atoms: C_2  and  C_4
REMARK    3  A    between atoms: C_2  and  O_17
REMARK    4  A    between atoms: N_6  and  N_7
REMARK    5  A    between atoms: C_8  and  C_9
REMARK    6  A    between atoms: C_14  and  O_15
REMARK    7  A    between atoms: O_17  and  C_18
REMARK                            x       y       z     vdW  Elec       q    Type
REMARK                         _______ _______ _______ _____ _____    ______ ____
ROOT
ATOM      1  C   UNL     1      -0.901   3.173   1.429  0.00  0.00    +0.273 C 
ATOM      2  O   UNL     1      -1.965   3.689   1.156  0.00  0.00    -0.270 OA
ATOM      3  N   UNL     1       0.173   3.943   1.691  0.00  0.00    -0.204 N 
ATOM      4  H   UNL     1       1.024   3.531   1.908  0.00  0.00    +0.177 HD
ENDROOT
BRANCH   1   6
ATOM      5  C   UNL     1       0.167   1.202   0.368  0.00  0.00    +0.062 C 
ATOM      6  C   UNL     1      -0.781   1.671   1.474  0.00  0.00    +0.257 C 
BRANCH   6   7
ATOM      7  O   UNL     1      -2.070   1.085   1.277  0.00  0.00    -0.480 OA
BRANCH   7   8
ATOM      8  C   UNL     1      -2.264  -0.162   1.784  0.00  0.00    +0.122 A 
ATOM      9  C   UNL     1      -3.522  -0.743   1.735  0.00  0.00    +0.047 A 
ATOM     10  C   UNL     1      -3.717  -2.011   2.247  0.00  0.00    +0.023 A 
ATOM     11  C   UNL     1      -2.659  -2.698   2.817  0.00  0.00    +0.041 A 
ATOM     12  C   UNL     1      -1.404  -2.117   2.871  0.00  0.00    +0.023 A 
ATOM     13  C   UNL     1      -1.205  -0.851   2.356  0.00  0.00    +0.047 A 
ATOM     14 CL   UNL     1      -2.907  -4.289   3.465  0.00  0.00    -0.084 Cl
ENDBRANCH   7   8
ENDBRANCH   6   7
ENDBRANCH   1   6
BRANCH   3  15
ATOM     15  N   UNL     1       0.061   5.339   1.649  0.00  0.00    -0.188 NA
ATOM     16  C   UNL     1       1.096   6.081   1.902  0.00  0.00    +0.142 C 
BRANCH  16  17
ATOM     17  C   UNL     1       0.979   7.549   1.858  0.00  0.00    +0.037 A 
ATOM     18  C   UNL     1       2.089   8.351   2.134  0.00  0.00    +0.033 A 
ATOM     19  C   UNL     1       1.973   9.725   2.087  0.00  0.00    +0.042 A 
ATOM     20  C   UNL     1       0.757  10.313   1.776  0.00  0.00    +0.023 A 
ATOM     21  C   UNL     1      -0.348   9.530   1.505  0.00  0.00    +0.047 A 
ATOM     22  C   UNL     1      -0.248   8.149   1.544  0.00  0.00    +0.126 A 
ATOM     23 CL   UNL     1       3.354  10.721   2.425  0.00  0.00    -0.084 Cl
BRANCH  22  24
ATOM     24  O   UNL     1      -1.335   7.379   1.278  0.00  0.00    -0.506 OA
ATOM     25  H   UNL     1      -1.865   7.164   2.058  0.00  0.00    +0.292 HD
ENDBRANCH  22  24
ENDBRANCH  16  17
ENDBRANCH   3  15
TORSDOF 6
