REMARK  Name = ZINC65397897
REMARK  5 active torsions:
REMARK  status: ('A' for Active; 'I' for Inactive)
REMARK    1  A    between atoms: C_1  and  C_2
REMARK    2  A    between atoms: C_9  and  C_12
REMARK    3  A    between atoms: C_15  and  N_19
REMARK    4  A    between atoms: C_16  and  C_18
REMARK    5  A    between atoms: C_20  and  C_22
REMARK                            x       y       z     vdW  Elec       q    Type
REMARK                         _______ _______ _______ _____ _____    ______ ____
ROOT
ATOM      1  C   UNL     1       1.315  -5.075   2.046  0.00  0.00    +0.011 A 
ATOM      2  C   UNL     1       2.480  -4.383   2.325  0.00  0.00    +0.011 A 
ATOM      3  C   UNL     1       3.623  -5.070   2.683  0.00  0.00    +0.024 A 
ATOM      4  C   UNL     1       3.603  -6.457   2.763  0.00  0.00    +0.037 A 
ATOM      5  C   UNL     1       2.431  -7.148   2.483  0.00  0.00    -0.029 A 
ATOM      6  C   UNL     1       1.290  -6.455   2.130  0.00  0.00    +0.014 A 
ATOM      7  C   UNL     1       2.404  -8.652   2.569  0.00  0.00    +0.045 C 
ENDROOT
BRANCH   1  16
ATOM      8  C   UNL     1      -0.002   1.532   0.069  0.00  0.00    +0.044 C 
ATOM      9  C   UNL     1       0.012   0.025   0.054  0.00  0.00    -0.048 A 
ATOM     10  C   UNL     1       0.007  -0.654  -1.149  0.00  0.00    +0.007 A 
ATOM     11  C   UNL     1       0.020  -2.036  -1.168  0.00  0.00    +0.048 A 
ATOM     12  C   UNL     1       0.039  -2.750   0.023  0.00  0.00    +0.144 A 
ATOM     13  C   UNL     1       0.044  -2.065   1.233  0.00  0.00    +0.073 A 
ATOM     14  C   UNL     1       0.037  -0.676   1.245  0.00  0.00    +0.030 A 
ATOM     15  N   UNL     1       0.063  -2.994   2.283  0.00  0.00    -0.303 N 
ATOM     16  C   UNL     1       0.069  -4.322   1.656  0.00  0.00    +0.292 C 
ATOM     17  O   UNL     1       0.053  -4.092   0.245  0.00  0.00    -0.465 OA
ATOM     18  H   UNL     1       0.071  -2.799   3.233  0.00  0.00    +0.150 HD
ENDBRANCH   1  16
BRANCH   4  19
ATOM     19  N   UNL     1       4.759  -7.155   3.125  0.00  0.00    -0.279 N 
ATOM     20  C   UNL     1       5.968  -6.702   2.739  0.00  0.00    +0.284 C 
ATOM     21  O   UNL     1       6.061  -5.644   2.147  0.00  0.00    -0.267 OA
ATOM     22  H   UNL     1       4.691  -7.965   3.654  0.00  0.00    +0.155 HD
BRANCH  20  23
ATOM     23  C   UNL     1       7.178  -7.489   3.035  0.00  0.00    +0.194 A 
ATOM     24  N   UNL     1       7.211  -8.647   3.660  0.00  0.00    -0.232 NA
ATOM     25  C   UNL     1       8.473  -9.062   3.747  0.00  0.00    +0.130 A 
ATOM     26  C   UNL     1       9.269  -8.137   3.157  0.00  0.00    +0.104 A 
ATOM     27  N   UNL     1       8.458  -7.145   2.701  0.00  0.00    -0.341 N 
ATOM     28  H   UNL     1       8.736  -6.344   2.229  0.00  0.00    +0.167 HD
ENDBRANCH  20  23
ENDBRANCH   4  19
TORSDOF 3
