REMARK  Name = ZINC35969298
REMARK  12 active torsions:
REMARK  status: ('A' for Active; 'I' for Inactive)
REMARK    1  A    between atoms: C_1  and  C_2
REMARK    2  A    between atoms: C_2  and  C_4
REMARK    3  A    between atoms: C_2  and  N_11
REMARK    4  A    between atoms: N_6  and  C_7
REMARK    5  A    between atoms: C_7  and  C_8
REMARK    6  A    between atoms: C_8  and  C_9
REMARK    7  A    between atoms: C_8  and  C_10
REMARK    8  A    between atoms: C_17  and  C_26
REMARK    9  A    between atoms: N_22  and  C_23
REMARK   10  A    between atoms: C_23  and  C_24
REMARK   11  A    between atoms: C_30  and  O_32
REMARK   12  A    between atoms: O_32  and  C_33
REMARK                            x       y       z     vdW  Elec       q    Type
REMARK                         _______ _______ _______ _____ _____    ______ ____
ROOT
ATOM      1  N   UNL     1      -1.163  -0.543   0.114  0.00  0.00    -0.281 N 
ATOM      2  C   UNL     1      -1.780  -1.362  -0.940  0.00  0.00    +0.160 C 
ATOM      3  C   UNL     1      -3.216  -1.542  -0.501  0.00  0.00    +0.043 C 
ATOM      4  C   UNL     1      -3.341  -0.882   0.668  0.00  0.00    +0.058 C 
ATOM      5  C   UNL     1      -2.113  -0.293   1.033  0.00  0.00    +0.247 C 
ATOM      6  O   UNL     1      -1.937   0.359   2.046  0.00  0.00    -0.270 OA
ATOM      7  C   UNL     1      -4.698  -0.896   1.343  0.00  0.00    +0.142 C 
ATOM      8  N   UNL     1      -5.774  -1.634   0.661  0.00  0.00    -0.288 N 
ATOM      9  C   UNL     1      -5.494  -2.245  -0.507  0.00  0.00    +0.307 C 
ATOM     10  O   UNL     1      -6.376  -2.856  -1.078  0.00  0.00    -0.252 OA
ATOM     11  N   UNL     1      -4.274  -2.200  -1.059  0.00  0.00    -0.253 N 
ATOM     12  H   UNL     1      -6.665  -1.679   1.043  0.00  0.00    +0.151 HD
ENDROOT
BRANCH   7  13
ATOM     13  C   UNL     1      -4.527  -1.490   2.718  0.00  0.00    -0.019 A 
ATOM     14  C   UNL     1      -4.447  -2.862   2.872  0.00  0.00    +0.006 A 
ATOM     15  C   UNL     1      -4.290  -3.410   4.132  0.00  0.00    +0.004 A 
ATOM     16  C   UNL     1      -4.213  -2.587   5.240  0.00  0.00    +0.046 A 
ATOM     17  C   UNL     1      -4.293  -1.211   5.087  0.00  0.00    +0.129 A 
ATOM     18  C   UNL     1      -4.445  -0.663   3.821  0.00  0.00    +0.052 A 
BRANCH  17  19
ATOM     19  O   UNL     1      -4.218  -0.400   6.175  0.00  0.00    -0.456 OA
BRANCH  19  20
ATOM     20  C   UNL     1      -5.328   0.299   6.528  0.00  0.00    +0.128 A 
ATOM     21  C   UNL     1      -6.529   0.075   5.869  0.00  0.00    +0.046 A 
ATOM     22  C   UNL     1      -7.656   0.787   6.230  0.00  0.00    +0.004 A 
ATOM     23  C   UNL     1      -7.589   1.722   7.246  0.00  0.00    +0.000 A 
ATOM     24  C   UNL     1      -6.394   1.947   7.904  0.00  0.00    +0.004 A 
ATOM     25  C   UNL     1      -5.265   1.233   7.551  0.00  0.00    +0.046 A 
ENDBRANCH  19  20
ENDBRANCH  17  19
ENDBRANCH   7  13
BRANCH   1  27
ATOM     26  C   UNL     1       0.267   1.440   0.188  0.00  0.00    +0.038 C 
ATOM     27  C   UNL     1       0.230  -0.089   0.159  0.00  0.00    +0.159 C 
BRANCH  27  28
ATOM     28  C   UNL     1       0.895  -0.631   1.397  0.00  0.00    +0.233 C 
ATOM     29  O   UNL     1       0.269  -1.328   2.167  0.00  0.00    -0.274 OA
ATOM     30  N   UNL     1       2.187  -0.342   1.650  0.00  0.00    -0.314 N 
ATOM     31  H   UNL     1       2.688   0.216   1.034  0.00  0.00    +0.149 HD
BRANCH  30  32
ATOM     32  C   UNL     1       2.834  -0.869   2.854  0.00  0.00    +0.107 C 
BRANCH  32  33
ATOM     33  C   UNL     1       4.288  -0.395   2.900  0.00  0.00    -0.000 C 
ATOM     34  C   UNL     1       4.324   1.127   3.055  0.00  0.00    +0.009 C 
ATOM     35  C   UNL     1       4.999  -1.045   4.089  0.00  0.00    +0.009 C 
ENDBRANCH  32  33
ENDBRANCH  30  32
ENDBRANCH  27  28
ENDBRANCH   1  27
BRANCH  11  36
ATOM     36  C   UNL     1      -4.064  -2.895  -2.332  0.00  0.00    +0.141 C 
BRANCH  36  37
ATOM     37  C   UNL     1      -3.630  -4.313  -2.064  0.00  0.00    -0.015 C 
ATOM     38  C   UNL     1      -4.297  -5.312  -2.587  0.00  0.00    +0.005 C 
ENDBRANCH  36  37
ENDBRANCH  11  36
TORSDOF 9
