REMARK  Name = ZINC17267587
REMARK  12 active torsions:
REMARK  status: ('A' for Active; 'I' for Inactive)
REMARK    1  A    between atoms: C_1  and  C_2
REMARK    2  A    between atoms: C_2  and  O_3
REMARK    3  A    between atoms: O_3  and  C_4
REMARK    4  A    between atoms: C_7  and  C_10
REMARK    5  A    between atoms: N_12  and  N_13
REMARK    6  A    between atoms: C_14  and  C_16
REMARK    7  A    between atoms: C_16  and  C_18
REMARK    8  A    between atoms: C_16  and  N_21
REMARK    9  A    between atoms: C_18  and  C_19
REMARK   10  A    between atoms: C_18  and  C_20
REMARK   11  A    between atoms: N_21  and  S_22
REMARK   12  A    between atoms: S_22  and  C_25
REMARK                            x       y       z     vdW  Elec       q    Type
REMARK                         _______ _______ _______ _____ _____    ______ ____
ROOT
ATOM      1  N   UNL     1      -3.035   2.188   0.219  0.00  0.00    -0.233 N 
ATOM      2  C   UNL     1      -2.249   1.962   1.290  0.00  0.00    +0.248 C 
ATOM      3  O   UNL     1      -2.744   1.644   2.350  0.00  0.00    -0.273 OA
ATOM      4  H   UNL     1      -2.639   2.442  -0.629  0.00  0.00    +0.173 HD
ENDROOT
BRANCH   1   7
ATOM      5  C   UNL     1      -5.212   2.281  -0.741  0.00  0.00    +0.260 C 
ATOM      6  O   UNL     1      -4.716   2.599  -1.804  0.00  0.00    -0.269 OA
ATOM      7  N   UNL     1      -4.426   2.055   0.330  0.00  0.00    -0.230 N 
ATOM      8  H   UNL     1      -4.822   1.801   1.178  0.00  0.00    +0.173 HD
BRANCH   5  12
ATOM      9  C   UNL     1      -9.426   1.879  -0.402  0.00  0.00    +0.121 A 
ATOM     10  C   UNL     1      -8.860   2.243  -1.618  0.00  0.00    +0.046 A 
ATOM     11  C   UNL     1      -7.494   2.374  -1.732  0.00  0.00    +0.016 A 
ATOM     12  C   UNL     1      -6.677   2.141  -0.623  0.00  0.00    +0.038 A 
ATOM     13  C   UNL     1      -7.250   1.769   0.596  0.00  0.00    +0.016 A 
ATOM     14  C   UNL     1      -8.617   1.646   0.704  0.00  0.00    +0.046 A 
BRANCH   9  15
ATOM     15  O   UNL     1     -10.773   1.750  -0.294  0.00  0.00    -0.492 OA
BRANCH  15  17
ATOM     16  C   UNL     1     -12.814   1.279   0.912  0.00  0.00    +0.048 C 
ATOM     17  C   UNL     1     -11.288   1.373   0.985  0.00  0.00    +0.225 C 
ENDBRANCH  15  17
ENDBRANCH   9  15
ENDBRANCH   5  12
ENDBRANCH   1   7
BRANCH   2  18
ATOM     18  C   UNL     1      -0.753   2.105   1.169  0.00  0.00    +0.166 C 
BRANCH  18  19
ATOM     19  C   UNL     1      -0.231   1.128   0.115  0.00  0.00    +0.010 C 
ATOM     20  C   UNL     1      -0.458  -0.308   0.592  0.00  0.00    +0.009 C 
ATOM     21  C   UNL     1       1.265   1.363  -0.102  0.00  0.00    +0.009 C 
ENDBRANCH  18  19
BRANCH  18  22
ATOM     22  N   UNL     1      -0.129   1.809   2.461  0.00  0.00    -0.178 NA
ATOM     23  H   UNL     1      -0.268   0.945   2.880  0.00  0.00    +0.149 HD
BRANCH  22  24
ATOM     24  S   UNL     1       0.813   2.949   3.207  0.00  0.00    +0.059 S 
ATOM     25  O   UNL     1       1.201   2.399   4.458  0.00  0.00    -0.153 OA
ATOM     26  O   UNL     1       1.758   3.388   2.241  0.00  0.00    -0.153 OA
BRANCH  24  27
ATOM     27  C   UNL     1      -0.223   4.329   3.562  0.00  0.00    +0.105 A 
ATOM     28  C   UNL     1      -0.357   5.349   2.638  0.00  0.00    +0.029 A 
ATOM     29  C   UNL     1      -1.173   6.429   2.914  0.00  0.00    +0.017 A 
ATOM     30  C   UNL     1      -1.847   6.496   4.120  0.00  0.00    +0.018 A 
ATOM     31  C   UNL     1      -1.709   5.478   5.046  0.00  0.00    +0.017 A 
ATOM     32  C   UNL     1      -0.897   4.395   4.767  0.00  0.00    +0.029 A 
ATOM     33 BR   UNL     1      -2.959   7.977   4.502  0.00  0.00    -0.050 Br
ENDBRANCH  24  27
ENDBRANCH  22  24
ENDBRANCH  18  22
ENDBRANCH   2  18
TORSDOF 9
