REMARK  Name = ZINC12380540
REMARK  8 active torsions:
REMARK  status: ('A' for Active; 'I' for Inactive)
REMARK    1  A    between atoms: C_1  and  C_2
REMARK    2  A    between atoms: C_2  and  C_4
REMARK    3  A    between atoms: C_2  and  O_20
REMARK    4  A    between atoms: N_6  and  C_7
REMARK    5  A    between atoms: C_7  and  N_9
REMARK    6  A    between atoms: N_9  and  C_10
REMARK    7  A    between atoms: C_13  and  N_17
REMARK    8  A    between atoms: O_20  and  C_21
REMARK                            x       y       z     vdW  Elec       q    Type
REMARK                         _______ _______ _______ _____ _____    ______ ____
ROOT
ATOM      1  C   UNL     1      -6.130   7.321   0.399  0.00  0.00    +0.259 C 
ATOM      2  O   UNL     1      -5.098   7.953   0.464  0.00  0.00    -0.271 OA
ATOM      3  N   UNL     1      -6.092   5.980   0.267  0.00  0.00    -0.265 N 
ATOM      4  H   UNL     1      -6.917   5.474   0.215  0.00  0.00    +0.157 HD
ENDROOT
BRANCH   1   6
ATOM      5  C   UNL     1      -8.198   7.612   1.736  0.00  0.00    +0.062 C 
ATOM      6  C   UNL     1      -7.456   8.034   0.466  0.00  0.00    +0.256 C 
BRANCH   6   7
ATOM      7  O   UNL     1      -7.237   9.445   0.488  0.00  0.00    -0.478 OA
BRANCH   7   8
ATOM      8  C   UNL     1      -8.263  10.235   0.072  0.00  0.00    +0.140 A 
ATOM      9  C   UNL     1      -9.429   9.662  -0.411  0.00  0.00    +0.048 A 
ATOM     10  C   UNL     1     -10.472  10.466  -0.830  0.00  0.00    +0.023 A 
ATOM     11  C   UNL     1     -10.349  11.843  -0.777  0.00  0.00    +0.043 A 
ATOM     12  C   UNL     1      -9.185  12.418  -0.300  0.00  0.00    +0.043 A 
ATOM     13  C   UNL     1      -8.141  11.617   0.124  0.00  0.00    +0.084 A 
ATOM     14 CL   UNL     1      -6.679  12.338   0.722  0.00  0.00    -0.080 Cl
ATOM     15 CL   UNL     1     -11.659  12.851  -1.309  0.00  0.00    -0.083 Cl
ENDBRANCH   7   8
ENDBRANCH   6   7
ENDBRANCH   1   6
BRANCH   3  16
ATOM     16  C   UNL     1      -4.906   5.343   0.207  0.00  0.00    +0.141 C 
ATOM     17  S   UNL     1      -3.448   6.236   0.299  0.00  0.00    -0.018 S 
BRANCH  16  18
ATOM     18  N   UNL     1      -4.867   4.002   0.075  0.00  0.00    -0.296 N 
ATOM     19  H   UNL     1      -5.692   3.500  -0.019  0.00  0.00    +0.154 HD
BRANCH  18  20
ATOM     20  C   UNL     1      -3.638   3.334   0.073  0.00  0.00    +0.047 A 
ATOM     21  C   UNL     1      -2.623   3.741   0.929  0.00  0.00    +0.026 A 
ATOM     22  C   UNL     1      -1.412   3.077   0.929  0.00  0.00    +0.034 A 
ATOM     23  C   UNL     1      -1.205   2.014   0.069  0.00  0.00    +0.127 A 
ATOM     24  C   UNL     1      -2.213   1.605  -0.786  0.00  0.00    +0.049 A 
ATOM     25  C   UNL     1      -3.429   2.262  -0.786  0.00  0.00    +0.041 A 
ATOM     26 BR   UNL     1      -4.806   1.703  -1.955  0.00  0.00    -0.048 Br
BRANCH  23  27
ATOM     27  N   UNL     1       0.096   1.308   0.067  0.00  0.00    +0.056 N 
ATOM     28  O   UNL     1       0.278   0.368  -0.686  0.00  0.00    -0.126 OA
ATOM     29  O   UNL     1       0.986   1.669   0.816  0.00  0.00    -0.126 OA
ENDBRANCH  23  27
ENDBRANCH  18  20
ENDBRANCH  16  18
ENDBRANCH   3  16
TORSDOF 7
