REMARK  Name = ZINC60812285
REMARK  9 active torsions:
REMARK  status: ('A' for Active; 'I' for Inactive)
REMARK    1  A    between atoms: C_1  and  C_2
REMARK    2  A    between atoms: C_2  and  C_3
REMARK    3  A    between atoms: C_3  and  C_4
REMARK    4  A    between atoms: C_4  and  C_27
REMARK    5  A    between atoms: N_7  and  C_11
REMARK    6  A    between atoms: C_11  and  C_12
REMARK    7  A    between atoms: N_17  and  C_18
REMARK    8  A    between atoms: C_18  and  C_19
REMARK    9  A    between atoms: C_18  and  C_20
REMARK                            x       y       z     vdW  Elec       q    Type
REMARK                         _______ _______ _______ _____ _____    ______ ____
ROOT
ATOM      1  C   UNL     1       4.880  -2.968  -2.570  0.00  0.00    +0.238 C 
ATOM      2  O   UNL     1       4.804  -1.835  -2.145  0.00  0.00    -0.274 OA
ATOM      3  N   UNL     1       6.002  -3.381  -3.192  0.00  0.00    -0.239 N 
ATOM      4  C   UNL     1       7.040  -2.534  -3.342  0.00  0.00    +0.306 C 
ATOM      5  O   UNL     1       6.964  -1.398  -2.916  0.00  0.00    -0.252 OA
ATOM      6  N   UNL     1       8.162  -2.947  -3.965  0.00  0.00    -0.296 N 
ATOM      7  H   UNL     1       6.062  -4.287  -3.532  0.00  0.00    +0.159 HD
ATOM      8  H   UNL     1       8.222  -3.853  -4.305  0.00  0.00    +0.151 HD
ENDROOT
BRANCH   6   9
ATOM      9  C   UNL     1       9.290  -2.027  -4.128  0.00  0.00    +0.075 C 
ATOM     10  C   UNL     1       9.080  -1.180  -5.384  0.00  0.00    +0.028 C 
BRANCH   9  11
ATOM     11  C   UNL     1      10.586  -2.828  -4.263  0.00  0.00    +0.012 C 
ATOM     12  C   UNL     1      11.811  -1.890  -4.175  0.00  0.00    +0.009 C 
ATOM     13  C   UNL     1      12.600  -2.389  -2.925  0.00  0.00    -0.010 C 
ATOM     14  C   UNL     1      11.706  -1.986  -1.713  0.00  0.00    +0.004 C 
ATOM     15  C   UNL     1      10.481  -2.924  -1.802  0.00  0.00    +0.004 C 
ATOM     16  C   UNL     1      10.750  -3.805  -3.059  0.00  0.00    -0.006 C 
ATOM     17  C   UNL     1      12.313  -3.930  -2.998  0.00  0.00    +0.007 C 
ENDBRANCH   9  11
ENDBRANCH   6   9
BRANCH   1  18
ATOM     18  C   UNL     1       3.719  -3.914  -2.402  0.00  0.00    +0.214 C 
BRANCH  18  22
ATOM     19  C   UNL     1       0.760  -2.017  -1.204  0.00  0.00    +0.110 C 
ATOM     20  C   UNL     1       1.649  -2.540  -2.314  0.00  0.00    +0.247 C 
ATOM     21  O   UNL     1       1.509  -2.371  -3.506  0.00  0.00    -0.273 OA
ATOM     22  N   UNL     1       2.630  -3.232  -1.700  0.00  0.00    -0.215 N 
ATOM     23  C   UNL     1       2.485  -3.218  -0.370  0.00  0.00    +0.310 C 
ATOM     24  O   UNL     1       3.245  -3.774   0.398  0.00  0.00    -0.252 OA
ATOM     25  N   UNL     1       1.403  -2.522   0.022  0.00  0.00    -0.285 N 
ATOM     26  C   UNL     1      -0.658  -2.576  -1.337  0.00  0.00    +0.041 C 
ATOM     27  H   UNL     1       1.104  -2.380   0.934  0.00  0.00    +0.151 HD
BRANCH  19  28
ATOM     28  C   UNL     1       0.737  -0.487  -1.208  0.00  0.00    +0.035 C 
BRANCH  28  30
ATOM     29  C   UNL     1       0.005   1.546   0.047  0.00  0.00    +0.004 C 
ATOM     30  C   UNL     1       0.029   0.016   0.052  0.00  0.00    -0.001 C 
ENDBRANCH  28  30
ENDBRANCH  19  28
ENDBRANCH  18  22
ENDBRANCH   1  18
TORSDOF 6
