REMARK  Name = ZINC15015435
REMARK  7 active torsions:
REMARK  status: ('A' for Active; 'I' for Inactive)
REMARK    1  A    between atoms: C_1  and  N_2
REMARK    2  A    between atoms: C_6  and  N_33
REMARK    3  A    between atoms: N_10  and  N_11
REMARK    4  A    between atoms: C_12  and  C_14
REMARK    5  A    between atoms: C_14  and  N_22
REMARK    6  A    between atoms: C_15  and  C_16
REMARK    7  A    between atoms: C_23  and  C_25
REMARK                            x       y       z     vdW  Elec       q    Type
REMARK                         _______ _______ _______ _____ _____    ______ ____
ROOT
ATOM      1  N   UNL     1       2.948  -2.804  -0.430  0.00  0.00    -0.201 N 
ATOM      2  C   UNL     1       3.701  -3.905  -0.626  0.00  0.00    +0.277 C 
ATOM      3  O   UNL     1       3.187  -4.930  -1.032  0.00  0.00    -0.267 OA
ATOM      4  H   UNL     1       3.359  -1.987  -0.106  0.00  0.00    +0.178 HD
ENDROOT
BRANCH   1  14
ATOM      5  C   UNL     1       0.253   1.758   0.461  0.00  0.00    +0.138 C 
ATOM      6  N   UNL     1       0.214   0.358   0.029  0.00  0.00    -0.269 N 
ATOM      7  C   UNL     1      -0.938  -0.302  -0.383  0.00  0.00    +0.046 A 
ATOM      8  C   UNL     1      -2.257   0.123  -0.495  0.00  0.00    +0.026 A 
ATOM      9  C   UNL     1      -3.231  -0.749  -0.938  0.00  0.00    +0.034 A 
ATOM     10  C   UNL     1      -2.910  -2.054  -1.275  0.00  0.00    +0.127 A 
ATOM     11  C   UNL     1      -1.605  -2.494  -1.170  0.00  0.00    +0.044 A 
ATOM     12  C   UNL     1      -0.617  -1.622  -0.725  0.00  0.00    +0.031 A 
ATOM     13  C   UNL     1       0.840  -1.770  -0.503  0.00  0.00    +0.153 C 
ATOM     14  N   UNL     1       1.573  -2.841  -0.694  0.00  0.00    -0.174 NA
ATOM     15  C   UNL     1       1.288  -0.447  -0.024  0.00  0.00    +0.271 C 
ATOM     16  O   UNL     1       2.428  -0.141   0.272  0.00  0.00    -0.268 OA
BRANCH  10  17
ATOM     17  N   UNL     1      -3.966  -2.977  -1.748  0.00  0.00    +0.056 N 
ATOM     18  O   UNL     1      -5.108  -2.592  -1.840  0.00  0.00    -0.126 OA
ATOM     19  O   UNL     1      -3.686  -4.115  -2.042  0.00  0.00    -0.126 OA
ENDBRANCH  10  17
ENDBRANCH   1  14
BRANCH   2  20
ATOM     20  C   UNL     1       5.143  -3.867  -0.350  0.00  0.00    +0.098 C 
ATOM     21  C   UNL     1       5.716  -2.726   0.102  0.00  0.00    +0.036 C 
BRANCH  21  22
ATOM     22  C   UNL     1       7.179  -2.638   0.231  0.00  0.00    -0.023 A 
ATOM     23  C   UNL     1       8.000  -3.546  -0.446  0.00  0.00    +0.008 A 
ATOM     24  C   UNL     1       9.370  -3.458  -0.320  0.00  0.00    +0.001 A 
ATOM     25  C   UNL     1       9.933  -2.474   0.475  0.00  0.00    +0.000 A 
ATOM     26  C   UNL     1       9.128  -1.572   1.148  0.00  0.00    +0.001 A 
ATOM     27  C   UNL     1       7.756  -1.643   1.027  0.00  0.00    +0.008 A 
ENDBRANCH  21  22
BRANCH  20  28
ATOM     28  N   UNL     1       5.924  -5.008  -0.554  0.00  0.00    -0.277 N 
ATOM     29  C   UNL     1       5.959  -5.593  -1.767  0.00  0.00    +0.248 C 
ATOM     30  O   UNL     1       5.229  -5.196  -2.655  0.00  0.00    -0.270 OA
ATOM     31  H   UNL     1       6.441  -5.378   0.179  0.00  0.00    +0.155 HD
BRANCH  29  32
ATOM     32  C   UNL     1       6.884  -6.718  -2.019  0.00  0.00    +0.037 A 
ATOM     33  C   UNL     1       7.638  -7.253  -0.973  0.00  0.00    +0.013 A 
ATOM     34  C   UNL     1       8.500  -8.303  -1.215  0.00  0.00    +0.001 A 
ATOM     35  C   UNL     1       8.617  -8.826  -2.491  0.00  0.00    +0.000 A 
ATOM     36  C   UNL     1       7.873  -8.300  -3.532  0.00  0.00    +0.001 A 
ATOM     37  C   UNL     1       7.003  -7.253  -3.303  0.00  0.00    +0.013 A 
ENDBRANCH  29  32
ENDBRANCH  20  28
ENDBRANCH   2  20
TORSDOF 6
