REMARK  Name = ZINC63480113
REMARK  5 active torsions:
REMARK  status: ('A' for Active; 'I' for Inactive)
REMARK    1  A    between atoms: C_1  and  C_2
REMARK    2  A    between atoms: C_4  and  C_40
REMARK    3  A    between atoms: C_6  and  N_8
REMARK    4  A    between atoms: C_13  and  C_30
REMARK    5  A    between atoms: C_30  and  C_31
REMARK                            x       y       z     vdW  Elec       q    Type
REMARK                         _______ _______ _______ _____ _____    ______ ____
ROOT
ATOM      1  N   UNL     1       0.050  -2.798   2.395  0.00  0.00    -0.210 N 
ATOM      2  C   UNL     1      -0.025  -4.133   2.452  0.00  0.00    +0.232 C 
ATOM      3  O   UNL     1      -0.116  -4.871   1.494  0.00  0.00    -0.274 OA
ATOM      4  C   UNL     1       0.021  -4.578   3.896  0.00  0.00    +0.107 C 
ATOM      5  C   UNL     1      -1.345  -5.179   4.289  0.00  0.00    +0.072 C 
ATOM      6  N   UNL     1      -2.161  -4.017   4.729  0.00  0.00    -0.295 NA
ATOM      7  C   UNL     1      -1.208  -3.163   5.461  0.00  0.00    +0.136 C 
ATOM      8  C   UNL     1       0.127  -3.240   4.681  0.00  0.00    +0.123 C 
ATOM      9  C   UNL     1       0.146  -2.196   3.586  0.00  0.00    +0.233 C 
ATOM     10  O   UNL     1       0.231  -1.000   3.761  0.00  0.00    -0.274 OA
ATOM     11  C   UNL     1      -1.706  -1.750   5.574  0.00  0.00    +0.003 A 
ATOM     12  C   UNL     1      -2.047  -0.788   4.649  0.00  0.00    +0.008 A 
ATOM     13  C   UNL     1      -2.486   0.454   5.072  0.00  0.00    +0.000 A 
ATOM     14  C   UNL     1      -2.580   0.727   6.424  0.00  0.00    +0.002 A 
ATOM     15  C   UNL     1      -2.237  -0.232   7.354  0.00  0.00    +0.023 A 
ATOM     16  C   UNL     1      -1.795  -1.486   6.937  0.00  0.00    +0.039 A 
ATOM     17  N   UNL     1      -1.395  -2.603   7.673  0.00  0.00    -0.283 N 
ATOM     18  C   UNL     1      -1.034  -3.631   6.881  0.00  0.00    +0.243 C 
ATOM     19  O   UNL     1      -0.645  -4.721   7.242  0.00  0.00    -0.273 OA
ATOM     20  H   UNL     1      -2.550  -3.527   3.936  0.00  0.00    +0.124 HD
ATOM     21  H   UNL     1      -1.379  -2.635   8.643  0.00  0.00    +0.155 HD
ENDROOT
BRANCH   1  27
ATOM     22  C   UNL     1      -2.369  -1.345  -1.633  0.00  0.00    +0.044 C 
ATOM     23  C   UNL     1      -1.123  -1.368  -0.785  0.00  0.00    -0.048 A 
ATOM     24  C   UNL     1       0.007  -0.689  -1.200  0.00  0.00    +0.006 A 
ATOM     25  C   UNL     1       1.152  -0.709  -0.425  0.00  0.00    -0.048 A 
ATOM     26  C   UNL     1       1.169  -1.406   0.767  0.00  0.00    +0.027 A 
ATOM     27  C   UNL     1       0.035  -2.088   1.186  0.00  0.00    +0.044 A 
ATOM     28  C   UNL     1      -1.114  -2.063   0.409  0.00  0.00    +0.027 A 
ATOM     29  C   UNL     1       2.383   0.032  -0.881  0.00  0.00    +0.044 C 
ENDBRANCH   1  27
BRANCH   5  30
ATOM     30  C   UNL     1      -1.992  -5.862   3.083  0.00  0.00    +0.052 C 
BRANCH  30  31
ATOM     31  C   UNL     1      -3.263  -6.546   3.516  0.00  0.00    -0.040 C 
ATOM     32  C   UNL     1      -4.519  -6.049   3.446  0.00  0.00    -0.001 A 
ATOM     33  C   UNL     1      -5.057  -4.771   2.965  0.00  0.00    +0.010 A 
ATOM     34  C   UNL     1      -6.391  -4.556   3.025  0.00  0.00    +0.001 A 
ATOM     35  C   UNL     1      -7.271  -5.522   3.533  0.00  0.00    +0.002 A 
ATOM     36  C   UNL     1      -6.852  -6.720   3.993  0.00  0.00    +0.026 A 
ATOM     37  C   UNL     1      -5.469  -7.052   3.978  0.00  0.00    +0.043 A 
ATOM     38  N   UNL     1      -4.826  -8.128   4.362  0.00  0.00    -0.380 N 
ATOM     39  C   UNL     1      -3.393  -7.931   4.111  0.00  0.00    +0.144 C 
ATOM     40  H   UNL     1      -5.229  -8.923   4.744  0.00  0.00    +0.160 HD
ENDBRANCH  30  31
ENDBRANCH   5  30
TORSDOF 3
