REMARK  Name = ZINC03090747
REMARK  7 active torsions:
REMARK  status: ('A' for Active; 'I' for Inactive)
REMARK    1  A    between atoms: C_4  and  C_7
REMARK    2  A    between atoms: C_9  and  C_25
REMARK    3  A    between atoms: C_10  and  C_12
REMARK    4  A    between atoms: C_12  and  S_13
REMARK    5  A    between atoms: S_13  and  C_14
REMARK    6  A    between atoms: C_25  and  S_26
REMARK    7  A    between atoms: S_26  and  C_27
REMARK                            x       y       z     vdW  Elec       q    Type
REMARK                         _______ _______ _______ _____ _____    ______ ____
ROOT
ATOM      1  C   UNL     1      -0.016   1.340   0.009  0.00  0.00    +0.228 A 
ATOM      2  N   UNL     1       1.222   1.774  -0.000  0.00  0.00    -0.213 NA
ATOM      3  C   UNL     1       2.047   0.717  -0.014  0.00  0.00    +0.094 A 
ATOM      4  C   UNL     1       1.291  -0.396  -0.012  0.00  0.00    +0.140 A 
ATOM      5  O   UNL     1       0.002  -0.004   0.002  0.00  0.00    -0.439 OA
ENDROOT
BRANCH   1   9
ATOM      6  C   UNL     1      -3.498   3.773   0.040  0.00  0.00    +0.000 A 
ATOM      7  C   UNL     1      -2.246   4.362   0.037  0.00  0.00    +0.001 A 
ATOM      8  C   UNL     1      -1.111   3.578   0.027  0.00  0.00    +0.013 A 
ATOM      9  C   UNL     1      -1.228   2.187   0.020  0.00  0.00    +0.037 A 
ATOM     10  C   UNL     1      -2.494   1.599   0.017  0.00  0.00    +0.013 A 
ATOM     11  C   UNL     1      -3.620   2.395   0.033  0.00  0.00    +0.001 A 
ENDBRANCH   1   9
BRANCH   4  12
ATOM     12  C   UNL     1       1.793  -1.817  -0.025  0.00  0.00    +0.153 C 
BRANCH  12  13
ATOM     13  S   UNL     1       2.010  -2.395   1.677  0.00  0.00    -0.078 S 
BRANCH  13  14
ATOM     14  C   UNL     1       2.586  -4.033   1.372  0.00  0.00    +0.192 A 
ATOM     15  N   UNL     1       2.716  -4.444   0.117  0.00  0.00    -0.205 NA
ATOM     16  C   UNL     1       3.151  -5.666  -0.164  0.00  0.00    +0.148 A 
ATOM     17  C   UNL     1       3.464  -6.530   0.901  0.00  0.00    +0.147 A 
ATOM     18  C   UNL     1       3.305  -6.054   2.213  0.00  0.00    +0.164 A 
ATOM     19  N   UNL     1       2.869  -4.813   2.404  0.00  0.00    -0.202 NA
ATOM     20  N   UNL     1       3.676  -7.086   3.038  0.00  0.00    -0.329 N 
ATOM     21  H   UNL     1       3.678  -7.072   4.038  0.00  0.00    +0.168 HD
ATOM     22  C   UNL     1       4.040  -8.133   2.243  0.00  0.00    +0.198 A 
ATOM     23  N   UNL     1       3.915  -7.805   0.991  0.00  0.00    -0.231 NA
ATOM     24  N   UNL     1       3.289  -6.084  -1.476  0.00  0.00    -0.341 N 
ATOM     25  H   UNL     1       4.242  -6.333  -1.647  0.00  0.00    +0.144 HD
ATOM     26  H   UNL     1       3.071  -5.480  -2.202  0.00  0.00    +0.144 HD
ENDBRANCH  13  14
ENDBRANCH  12  13
ENDBRANCH   4  12
BRANCH   3  27
ATOM     27  C   UNL     1       3.554   0.767  -0.027  0.00  0.00    +0.136 C 
BRANCH  27  28
ATOM     28  S   UNL     1       4.141   0.795  -1.739  0.00  0.00    -0.080 S 
BRANCH  28  29
ATOM     29  C   UNL     1       5.881   0.851  -1.464  0.00  0.00    +0.192 A 
ATOM     30  N   UNL     1       6.333   0.865  -0.216  0.00  0.00    -0.205 NA
ATOM     31  C   UNL     1       7.635   0.901   0.042  0.00  0.00    +0.148 A 
ATOM     32  C   UNL     1       8.534   0.936  -1.038  0.00  0.00    +0.147 A 
ATOM     33  C   UNL     1       8.010   0.926  -2.341  0.00  0.00    +0.164 A 
ATOM     34  N   UNL     1       6.692   0.883  -2.510  0.00  0.00    -0.202 NA
ATOM     35  N   UNL     1       9.091   0.966  -3.185  0.00  0.00    -0.329 N 
ATOM     36  H   UNL     1       9.063   0.971  -4.184  0.00  0.00    +0.168 HD
ATOM     37  C   UNL     1      10.214   0.999  -2.409  0.00  0.00    +0.198 A 
ATOM     38  N   UNL     1       9.884   0.982  -1.151  0.00  0.00    -0.231 NA
ATOM     39  N   UNL     1       8.097   0.909   1.346  0.00  0.00    -0.341 N 
ATOM     40  H   UNL     1       8.679   0.111   1.499  0.00  0.00    +0.144 HD
ATOM     41  H   UNL     1       7.467   0.885   2.084  0.00  0.00    +0.144 HD
ENDBRANCH  28  29
ENDBRANCH  27  28
ENDBRANCH   3  27
TORSDOF 7
