REMARK  Name = ZINC22064315
REMARK  3 active torsions:
REMARK  status: ('A' for Active; 'I' for Inactive)
REMARK    1  A    between atoms: C_4  and  O_20
REMARK    2  A    between atoms: C_5  and  C_7
REMARK    3  A    between atoms: O_20  and  C_21
REMARK                            x       y       z     vdW  Elec       q    Type
REMARK                         _______ _______ _______ _____ _____    ______ ____
ROOT
ATOM      1  C   UNL     1      -2.086   3.683   1.576  0.00  0.00    +0.255 C 
ATOM      2  O   UNL     1      -1.874   4.698   2.211  0.00  0.00    -0.269 OA
ATOM      3  N   UNL     1      -1.173   3.240   0.690  0.00  0.00    -0.257 N 
ATOM      4  C   UNL     1      -1.345   1.950  -0.003  0.00  0.00    +0.210 C 
ATOM      5  C   UNL     1      -0.020   1.234  -0.037  0.00  0.00    +0.235 C 
ATOM      6  O   UNL     1       0.006   0.021  -0.051  0.00  0.00    -0.274 OA
ATOM      7  N   UNL     1       1.136   1.924  -0.058  0.00  0.00    -0.283 N 
ATOM      8  C   UNL     1       1.136   3.322   0.008  0.00  0.00    +0.055 A 
ATOM      9  C   UNL     1      -0.027   3.993   0.393  0.00  0.00    +0.058 A 
ATOM     10  C   UNL     1      -0.040   5.374   0.470  0.00  0.00    +0.025 A 
ATOM     11  C   UNL     1       1.103   6.089   0.159  0.00  0.00    +0.002 A 
ATOM     12  C   UNL     1       2.254   5.427  -0.226  0.00  0.00    +0.002 A 
ATOM     13  C   UNL     1       2.275   4.046  -0.303  0.00  0.00    +0.025 A 
ATOM     14  H   UNL     1       2.095   1.389  -0.128  0.00  0.00    +0.155 HD
ENDROOT
BRANCH   1  19
ATOM     15  C   UNL     1      -5.331   1.933   0.874  0.00  0.00    +0.001 A 
ATOM     16  C   UNL     1      -5.708   1.538   2.147  0.00  0.00    +0.004 A 
ATOM     17  C   UNL     1      -4.914   1.837   3.236  0.00  0.00    +0.046 A 
ATOM     18  C   UNL     1      -3.729   2.537   3.061  0.00  0.00    +0.139 A 
ATOM     19  C   UNL     1      -3.344   2.938   1.774  0.00  0.00    +0.079 A 
ATOM     20  C   UNL     1      -4.160   2.633   0.682  0.00  0.00    +0.017 A 
BRANCH  18  21
ATOM     21  O   UNL     1      -2.948   2.833   4.130  0.00  0.00    -0.433 OA
BRANCH  21  22
ATOM     22  C   UNL     1      -3.406   2.391   5.410  0.00  0.00    +0.541 C 
ATOM     23  F   UNL     1      -4.651   2.967   5.684  0.00  0.00    -0.166 F 
ATOM     24  F   UNL     1      -3.527   0.998   5.406  0.00  0.00    -0.166 F 
ENDBRANCH  21  22
ENDBRANCH  18  21
ENDBRANCH   1  19
TORSDOF 3
