REMARK  Name = ZINC39211549
REMARK  10 active torsions:
REMARK  status: ('A' for Active; 'I' for Inactive)
REMARK    1  A    between atoms: C_1  and  C_2
REMARK    2  A    between atoms: C_6  and  C_37
REMARK    3  A    between atoms: C_7  and  N_8
REMARK    4  A    between atoms: C_9  and  C_14
REMARK    5  A    between atoms: C_14  and  C_16
REMARK    6  A    between atoms: C_14  and  N_23
REMARK    7  A    between atoms: N_23  and  C_24
REMARK    8  A    between atoms: C_24  and  C_25
REMARK    9  A    between atoms: C_25  and  C_26
REMARK   10  A    between atoms: C_34  and  C_36
REMARK                            x       y       z     vdW  Elec       q    Type
REMARK                         _______ _______ _______ _____ _____    ______ ____
ROOT
ATOM      1  C   UNL     1       2.151  -0.594   3.539  0.00  0.00    +0.126 C 
ENDROOT
BRANCH   1   2
ATOM      2  C   UNL     1       3.163  -0.172   4.572  0.00  0.00    -0.027 A 
ATOM      3  C   UNL     1       4.289   0.533   4.190  0.00  0.00    +0.007 A 
ATOM      4  C   UNL     1       5.217   0.920   5.137  0.00  0.00    +0.020 A 
ATOM      5  C   UNL     1       5.020   0.601   6.469  0.00  0.00    +0.041 A 
ATOM      6  C   UNL     1       3.893  -0.105   6.851  0.00  0.00    +0.020 A 
ATOM      7  C   UNL     1       2.962  -0.486   5.904  0.00  0.00    +0.007 A 
ATOM      8 CL   UNL     1       6.187   1.086   7.660  0.00  0.00    -0.084 Cl
ENDBRANCH   1   2
BRANCH   1  10
ATOM      9  N   UNL     1       0.166   0.179   2.283  0.00  0.00    -0.181 N 
ATOM     10  C   UNL     1       1.250   0.594   3.193  0.00  0.00    +0.222 C 
ATOM     11  N   UNL     1       0.518   1.063   4.385  0.00  0.00    -0.226 N 
ATOM     12  N   UNL     1      -0.841   0.894   4.090  0.00  0.00    -0.063 NA
ATOM     13  N   UNL     1      -1.028   0.429   2.970  0.00  0.00    -0.056 NA
ATOM     14  H   UNL     1       0.899   1.415   5.204  0.00  0.00    +0.172 HD
BRANCH   9  21
ATOM     15  C   UNL     1       0.591   1.988   0.128  0.00  0.00    +0.046 C 
ATOM     16  C   UNL     1       0.511   0.498  -0.085  0.00  0.00    -0.027 A 
ATOM     17  C   UNL     1       0.651  -0.027  -1.354  0.00  0.00    +0.005 A 
ATOM     18  C   UNL     1       0.577  -1.394  -1.550  0.00  0.00    +0.001 A 
ATOM     19  C   UNL     1       0.363  -2.240  -0.476  0.00  0.00    +0.005 A 
ATOM     20  C   UNL     1       0.223  -1.721   0.796  0.00  0.00    -0.027 A 
ATOM     21  C   UNL     1       0.302  -0.348   0.998  0.00  0.00    +0.061 A 
ATOM     22  C   UNL     1      -0.011  -2.643   1.965  0.00  0.00    +0.046 C 
ENDBRANCH   9  21
ENDBRANCH   1  10
BRANCH   1  23
ATOM     23  N   UNL     1       2.847  -1.049   2.328  0.00  0.00    -0.306 NA
ATOM     24  H   UNL     1       2.227  -1.048   1.532  0.00  0.00    +0.123 HD
BRANCH  23  25
ATOM     25  C   UNL     1       3.442  -2.377   2.530  0.00  0.00    +0.086 C 
BRANCH  25  26
ATOM     26  C   UNL     1       4.217  -2.785   1.276  0.00  0.00    +0.052 C 
BRANCH  26  27
ATOM     27  C   UNL     1       4.827  -4.147   1.483  0.00  0.00    -0.018 A 
ATOM     28  C   UNL     1       4.208  -5.437   1.167  0.00  0.00    +0.003 A 
ATOM     29  C   UNL     1       2.980  -5.816   0.625  0.00  0.00    +0.010 A 
ATOM     30  C   UNL     1       2.695  -7.141   0.450  0.00  0.00    +0.001 A 
ATOM     31  C   UNL     1       3.619  -8.114   0.807  0.00  0.00    +0.002 A 
ATOM     32  C   UNL     1       4.838  -7.761   1.345  0.00  0.00    +0.026 A 
ATOM     33  C   UNL     1       5.148  -6.418   1.531  0.00  0.00    +0.047 A 
ATOM     34  N   UNL     1       6.250  -5.761   2.030  0.00  0.00    -0.358 N 
ATOM     35  C   UNL     1       6.043  -4.409   1.988  0.00  0.00    +0.017 A 
ATOM     36  H   UNL     1       7.055  -6.191   2.358  0.00  0.00    +0.166 HD
ATOM     37  C   UNL     1       7.032  -3.368   2.445  0.00  0.00    +0.063 C 
ENDBRANCH  26  27
ENDBRANCH  25  26
ENDBRANCH  23  25
ENDBRANCH   1  23
TORSDOF 7
