REMARK  Name = ZINC38610021
REMARK  8 active torsions:
REMARK  status: ('A' for Active; 'I' for Inactive)
REMARK    1  A    between atoms: C_1  and  N_2
REMARK    2  A    between atoms: C_3  and  C_29
REMARK    3  A    between atoms: C_7  and  S_9
REMARK    4  A    between atoms: S_9  and  C_10
REMARK    5  A    between atoms: C_10  and  C_11
REMARK    6  A    between atoms: N_13  and  N_14
REMARK    7  A    between atoms: C_15  and  C_16
REMARK    8  A    between atoms: C_21  and  C_22
REMARK                            x       y       z     vdW  Elec       q    Type
REMARK                         _______ _______ _______ _____ _____    ______ ____
ROOT
ATOM      1  C   UNL     1      -0.650  -2.570   1.443  0.00  0.00    +0.166 C 
ENDROOT
BRANCH   1   2
ATOM      2  C   UNL     1      -1.487  -3.333   2.438  0.00  0.00    +0.242 C 
ATOM      3  O   UNL     1      -1.375  -3.107   3.624  0.00  0.00    -0.273 OA
ATOM      4  N   UNL     1      -2.360  -4.266   2.008  0.00  0.00    -0.207 N 
ATOM      5  H   UNL     1      -2.449  -4.447   1.059  0.00  0.00    +0.177 HD
BRANCH   4   6
ATOM      6  N   UNL     1      -3.138  -4.975   2.932  0.00  0.00    -0.192 NA
ATOM      7  C   UNL     1      -3.967  -5.862   2.525  0.00  0.00    +0.118 C 
BRANCH   7   8
ATOM      8  C   UNL     1      -4.804  -6.625   3.519  0.00  0.00    +0.125 C 
ATOM      9  C   UNL     1      -4.593  -8.117   3.361  0.00  0.00    +0.123 C 
ATOM     10  N   UNL     1      -5.746  -8.611   3.043  0.00  0.00    -0.161 NA
ATOM     11  N   UNL     1      -6.737  -7.639   2.961  0.00  0.00    -0.153 NA
ATOM     12  C   UNL     1      -6.280  -6.442   3.226  0.00  0.00    +0.084 C 
BRANCH  12  13
ATOM     13  C   UNL     1      -7.037  -5.181   3.237  0.00  0.00    -0.001 A 
ATOM     14  C   UNL     1      -6.392  -3.976   3.537  0.00  0.00    +0.012 A 
ATOM     15  C   UNL     1      -7.107  -2.798   3.545  0.00  0.00    +0.039 A 
ATOM     16  C   UNL     1      -8.464  -2.805   3.258  0.00  0.00    +0.123 A 
ATOM     17  C   UNL     1      -9.110  -3.996   2.960  0.00  0.00    +0.039 A 
ATOM     18  C   UNL     1      -8.405  -5.180   2.943  0.00  0.00    +0.012 A 
ATOM     19  F   UNL     1      -9.159  -1.647   3.269  0.00  0.00    -0.205 F 
ENDBRANCH  12  13
ENDBRANCH   7   8
ENDBRANCH   4   6
ENDBRANCH   1   2
BRANCH   1  20
ATOM     20  S   UNL     1       0.416  -1.397   2.325  0.00  0.00    -0.150 S 
BRANCH  20  26
ATOM     21  C   UNL     1       0.723   1.551   0.032  0.00  0.00    -0.090 C 
ATOM     22  N   UNL     1       0.415   0.115   0.083  0.00  0.00    +0.409 N 
ATOM     23  C   UNL     1       0.622  -0.497  -1.250  0.00  0.00    +0.049 C 
ATOM     24  N   UNL     1       1.995  -1.063  -1.182  0.00  0.00    -0.267 NA
ATOM     25  N   UNL     1       2.077  -1.571   0.196  0.00  0.00    -0.262 NA
ATOM     26  C   UNL     1       1.345  -0.570   1.004  0.00  0.00    +0.077 C 
ATOM     27  H   UNL     1       2.689  -0.349  -1.346  0.00  0.00    +0.139 HD
ATOM     28  H   UNL     1       3.038  -1.647   0.497  0.00  0.00    +0.140 HD
ATOM     29  H   UNL     1      -0.537  -0.025   0.385  0.00  0.00    -0.076 HD
BRANCH  23  30
ATOM     30  C   UNL     1       0.532   0.549  -2.330  0.00  0.00    -0.045 A 
ATOM     31  C   UNL     1       1.593   1.407  -2.552  0.00  0.00    +0.003 A 
ATOM     32  C   UNL     1       1.511   2.367  -3.543  0.00  0.00    +0.001 A 
ATOM     33  C   UNL     1       0.368   2.469  -4.314  0.00  0.00    +0.015 A 
ATOM     34  C   UNL     1      -0.693   1.611  -4.093  0.00  0.00    +0.018 A 
ATOM     35  C   UNL     1      -0.609   0.647  -3.104  0.00  0.00    +0.018 A 
ATOM     36 BR   UNL     1      -2.257   1.750  -5.147  0.00  0.00    -0.050 Br
ENDBRANCH  23  30
ENDBRANCH  20  26
ENDBRANCH   1  20
TORSDOF 7
