REMARK  Name = ZINC39688496
REMARK  8 active torsions:
REMARK  status: ('A' for Active; 'I' for Inactive)
REMARK    1  A    between atoms: C_1  and  C_2
REMARK    2  A    between atoms: C_2  and  C_4
REMARK    3  A    between atoms: C_2  and  N_12
REMARK    4  A    between atoms: C_4  and  C_5
REMARK    5  A    between atoms: C_13  and  C_15
REMARK    6  A    between atoms: C_26  and  C_28
REMARK    7  A    between atoms: C_31  and  O_34
REMARK    8  A    between atoms: O_34  and  C_35
REMARK                            x       y       z     vdW  Elec       q    Type
REMARK                         _______ _______ _______ _____ _____    ______ ____
ROOT
ATOM      1  C   UNL     1      -4.042  -1.422  -0.877  0.00  0.00    +0.100 C 
ATOM      2  C   UNL     1      -4.677  -0.290  -0.040  0.00  0.00    +0.121 C 
ATOM      3  N   UNL     1      -5.230   0.652  -1.042  0.00  0.00    -0.296 N 
ATOM      4  C   UNL     1      -5.793  -0.223  -2.098  0.00  0.00    +0.115 C 
ATOM      5  C   UNL     1      -4.779  -1.378  -2.226  0.00  0.00    -0.004 C 
ATOM      6  C   UNL     1      -5.508  -2.695  -2.474  0.00  0.00    -0.010 C 
ATOM      7  C   UNL     1      -6.184  -2.648  -3.847  0.00  0.00    -0.082 C 
ATOM      8  N   UNL     1      -5.172  -2.423  -4.886  0.00  0.00    +0.379 N 
ATOM      9  C   UNL     1      -4.541  -1.111  -4.693  0.00  0.00    -0.082 C 
ATOM     10  C   UNL     1      -3.795  -1.093  -3.356  0.00  0.00    -0.010 C 
ATOM     11  C   UNL     1      -5.223   1.999  -1.002  0.00  0.00    +0.247 C 
ATOM     12  O   UNL     1      -4.611   2.578  -0.125  0.00  0.00    -0.270 OA
ATOM     13  H   UNL     1      -4.469  -3.144  -4.831  0.00  0.00    -0.086 HD
ATOM     14  H   UNL     1      -5.612  -2.453  -5.793  0.00  0.00    -0.086 HD
ENDROOT
BRANCH  11  15
ATOM     15  C   UNL     1      -5.959   2.771  -2.022  0.00  0.00    +0.037 A 
ATOM     16  C   UNL     1      -6.994   2.171  -2.744  0.00  0.00    +0.016 A 
ATOM     17  C   UNL     1      -7.678   2.895  -3.694  0.00  0.00    +0.047 A 
ATOM     18  C   UNL     1      -7.340   4.221  -3.936  0.00  0.00    +0.130 A 
ATOM     19  C   UNL     1      -6.311   4.822  -3.220  0.00  0.00    +0.047 A 
ATOM     20  C   UNL     1      -5.626   4.107  -2.264  0.00  0.00    +0.016 A 
BRANCH  18  21
ATOM     21  O   UNL     1      -8.017   4.932  -4.875  0.00  0.00    -0.406 OA
BRANCH  21  22
ATOM     22  C   UNL     1      -7.618   6.290  -5.072  0.00  0.00    +0.575 C 
ATOM     23  F   UNL     1      -6.276   6.329  -5.466  0.00  0.00    -0.133 F 
ATOM     24  F   UNL     1      -8.413   6.869  -6.067  0.00  0.00    -0.133 F 
ATOM     25  F   UNL     1      -7.774   7.000  -3.878  0.00  0.00    -0.133 F 
ENDBRANCH  21  22
ENDBRANCH  18  21
ENDBRANCH  11  15
BRANCH   1  27
ATOM     26  N   UNL     1      -1.705  -2.199  -1.108  0.00  0.00    -0.312 N 
ATOM     27  C   UNL     1      -2.570  -1.166  -1.074  0.00  0.00    +0.218 C 
ATOM     28  O   UNL     1      -2.164  -0.031  -1.204  0.00  0.00    -0.275 OA
ATOM     29  H   UNL     1      -2.030  -3.107  -1.004  0.00  0.00    +0.149 HD
BRANCH  26  31
ATOM     30  C   UNL     1       0.376  -1.640   0.050  0.00  0.00    +0.028 C 
ATOM     31  C   UNL     1      -0.274  -1.950  -1.300  0.00  0.00    +0.074 C 
BRANCH  31  32
ATOM     32  C   UNL     1       0.382  -3.191  -1.908  0.00  0.00    +0.057 C 
BRANCH  32  33
ATOM     33  C   UNL     1      -0.171  -3.425  -3.291  0.00  0.00    -0.045 A 
ATOM     34  C   UNL     1      -1.294  -4.213  -3.461  0.00  0.00    +0.006 A 
ATOM     35  C   UNL     1      -1.802  -4.428  -4.728  0.00  0.00    +0.038 A 
ATOM     36  C   UNL     1      -1.186  -3.853  -5.827  0.00  0.00    +0.123 A 
ATOM     37  C   UNL     1      -0.061  -3.065  -5.655  0.00  0.00    +0.038 A 
ATOM     38  C   UNL     1       0.442  -2.847  -4.387  0.00  0.00    +0.006 A 
ATOM     39  F   UNL     1      -1.682  -4.063  -7.066  0.00  0.00    -0.205 F 
ENDBRANCH  32  33
ENDBRANCH  31  32
ENDBRANCH  26  31
ENDBRANCH   1  27
TORSDOF 7
