REMARK  Name = ZINC06906733
REMARK  6 active torsions:
REMARK  status: ('A' for Active; 'I' for Inactive)
REMARK    1  A    between atoms: C_1  and  C_2
REMARK    2  A    between atoms: C_2  and  C_3
REMARK    3  A    between atoms: C_2  and  C_4
REMARK    4  A    between atoms: C_4  and  C_5
REMARK    5  A    between atoms: C_5  and  N_6
REMARK    6  A    between atoms: C_7  and  C_9
REMARK                            x       y       z     vdW  Elec       q    Type
REMARK                         _______ _______ _______ _____ _____    ______ ____
ROOT
ATOM      1  C   UNL     1       5.819   1.661  -2.182  0.00  0.00    +0.167 C 
ATOM      2  C   UNL     1       6.498   1.352  -0.840  0.00  0.00    +0.069 C 
ATOM      3  C   UNL     1       7.997   1.393  -0.992  0.00  0.00    -0.015 A 
ATOM      4  C   UNL     1       8.986   1.468   0.069  0.00  0.00    +0.003 A 
ATOM      5  C   UNL     1       8.872   1.531   1.461  0.00  0.00    +0.010 A 
ATOM      6  C   UNL     1      10.042   1.595   2.176  0.00  0.00    +0.001 A 
ATOM      7  C   UNL     1      11.282   1.599   1.559  0.00  0.00    +0.002 A 
ATOM      8  C   UNL     1      11.423   1.537   0.183  0.00  0.00    +0.026 A 
ATOM      9  C   UNL     1      10.252   1.471  -0.569  0.00  0.00    +0.047 A 
ATOM     10  N   UNL     1      10.029   1.400  -1.913  0.00  0.00    -0.356 N 
ATOM     11  H   UNL     1      10.720   1.379  -2.593  0.00  0.00    +0.166 HD
ATOM     12  C   UNL     1       8.683   1.363  -2.157  0.00  0.00    +0.046 A 
ATOM     13  C   UNL     1       8.008   1.316  -3.506  0.00  0.00    +0.155 C 
ATOM     14  N   UNL     1       6.588   0.992  -3.238  0.00  0.00    -0.273 N 
ATOM     15  C   UNL     1       6.211   0.009  -4.065  0.00  0.00    +0.248 C 
ATOM     16  O   UNL     1       5.064  -0.354  -4.246  0.00  0.00    -0.270 OA
ATOM     17  C   UNL     1       7.391  -0.564  -4.720  0.00  0.00    +0.042 A 
ATOM     18  C   UNL     1       8.516   0.208  -4.364  0.00  0.00    -0.009 A 
ATOM     19  C   UNL     1       9.780  -0.118  -4.801  0.00  0.00    +0.006 A 
ATOM     20  C   UNL     1       9.898  -1.237  -5.621  0.00  0.00    +0.000 A 
ATOM     21  C   UNL     1       8.801  -1.991  -5.986  0.00  0.00    +0.001 A 
ATOM     22  C   UNL     1       7.522  -1.680  -5.549  0.00  0.00    +0.013 A 
ENDROOT
BRANCH   1  24
ATOM     23  N   UNL     1       3.369   2.001  -2.160  0.00  0.00    -0.314 N 
ATOM     24  C   UNL     1       4.405   1.139  -2.172  0.00  0.00    +0.234 C 
ATOM     25  O   UNL     1       4.200  -0.056  -2.174  0.00  0.00    -0.274 OA
ATOM     26  H   UNL     1       3.534   2.957  -2.159  0.00  0.00    +0.149 HD
BRANCH  23  27
ATOM     27  C   UNL     1       1.995   1.494  -2.150  0.00  0.00    +0.104 C 
BRANCH  27  28
ATOM     28  C   UNL     1       1.017   2.671  -2.138  0.00  0.00    +0.022 C 
BRANCH  28  30
ATOM     29  C   UNL     1      -0.697   1.397  -3.434  0.00  0.00    +0.007 C 
ATOM     30  C   UNL     1      -0.418   2.141  -2.127  0.00  0.00    -0.016 C 
ATOM     31  C   UNL     1      -1.393   3.313  -1.989  0.00  0.00    +0.007 C 
ENDBRANCH  28  30
ENDBRANCH  27  28
ENDBRANCH  23  27
ENDBRANCH   1  24
TORSDOF 4
