REMARK  Name = ZINC54621830
REMARK  5 active torsions:
REMARK  status: ('A' for Active; 'I' for Inactive)
REMARK    1  A    between atoms: C_6  and  C_12
REMARK    2  A    between atoms: C_7  and  O_11
REMARK    3  A    between atoms: C_12  and  C_14
REMARK    4  A    between atoms: C_12  and  N_19
REMARK    5  A    between atoms: N_19  and  C_20
REMARK                            x       y       z     vdW  Elec       q    Type
REMARK                         _______ _______ _______ _____ _____    ______ ____
ROOT
ATOM      1  C   UNL     1       5.995  -0.906  -0.060  0.00  0.00    +0.141 C 
ENDROOT
BRANCH   1   7
ATOM      2  C   UNL     1      -0.043   1.248   0.501  0.00  0.00    +0.020 A 
ATOM      3  C   UNL     1       1.104   1.971   0.333  0.00  0.00    +0.011 A 
ATOM      4  C   UNL     1       2.321   1.272   0.234  0.00  0.00    +0.004 A 
ATOM      5  C   UNL     1       3.540   1.947   0.061  0.00  0.00    +0.010 A 
ATOM      6  C   UNL     1       4.699   1.237  -0.030  0.00  0.00    +0.010 A 
ATOM      7  C   UNL     1       4.694  -0.153   0.046  0.00  0.00    +0.021 A 
ATOM      8  C   UNL     1       3.528  -0.845   0.213  0.00  0.00    +0.148 A 
ATOM      9  C   UNL     1       2.309  -0.143   0.312  0.00  0.00    +0.113 A 
ATOM     10  N   UNL     1       1.152  -0.790   0.478  0.00  0.00    -0.251 NA
ATOM     11  C   UNL     1       0.016  -0.142   0.570  0.00  0.00    +0.111 A 
BRANCH   8  12
ATOM     12  O   UNL     1       3.543  -2.201   0.284  0.00  0.00    -0.504 OA
ATOM     13  H   UNL     1       3.646  -2.547   1.182  0.00  0.00    +0.292 HD
ENDBRANCH   8  12
ENDBRANCH   1   7
BRANCH   1  14
ATOM     14  C   UNL     1       6.236  -1.294  -1.497  0.00  0.00    +0.014 A 
ATOM     15  C   UNL     1       6.020  -2.484  -2.107  0.00  0.00    +0.013 A 
ATOM     16  C   UNL     1       6.317  -2.612  -3.451  0.00  0.00    +0.008 A 
ATOM     17  C   UNL     1       6.816  -1.542  -4.119  0.00  0.00    +0.045 A 
ATOM     18  S   UNL     1       6.872  -0.301  -2.837  0.00  0.00    -0.099 S 
ENDBRANCH   1  14
BRANCH   1  19
ATOM     19  N   UNL     1       7.092  -0.055   0.406  0.00  0.00    -0.332 N 
ATOM     20  H   UNL     1       6.997   0.910   0.389  0.00  0.00    +0.147 HD
BRANCH  19  21
ATOM     21  C   UNL     1       8.274  -0.633   0.876  0.00  0.00    +0.029 A 
ATOM     22  C   UNL     1       8.413  -2.015   0.896  0.00  0.00    +0.024 A 
ATOM     23  C   UNL     1       9.582  -2.584   1.361  0.00  0.00    +0.023 A 
ATOM     24  C   UNL     1      10.615  -1.779   1.807  0.00  0.00    +0.059 A 
ATOM     25  C   UNL     1      10.480  -0.401   1.789  0.00  0.00    +0.061 A 
ATOM     26  C   UNL     1       9.314   0.173   1.319  0.00  0.00    +0.044 A 
ATOM     27 CL   UNL     1      11.778   0.605   2.351  0.00  0.00    -0.082 Cl
ATOM     28 CL   UNL     1      12.084  -2.499   2.391  0.00  0.00    -0.082 Cl
ENDBRANCH  19  21
ENDBRANCH   1  19
TORSDOF 5
