REMARK  Name = ZINC09530910
REMARK  6 active torsions:
REMARK  status: ('A' for Active; 'I' for Inactive)
REMARK    1  A    between atoms: C_1  and  C_2
REMARK    2  A    between atoms: C_2  and  O_3
REMARK    3  A    between atoms: O_3  and  C_4
REMARK    4  A    between atoms: C_4  and  C_5
REMARK    5  A    between atoms: C_13  and  C_14
REMARK    6  A    between atoms: N_16  and  C_17
REMARK                            x       y       z     vdW  Elec       q    Type
REMARK                         _______ _______ _______ _____ _____    ______ ____
ROOT
ATOM      1  C   UNL     1       2.349   5.231  -0.093  0.00  0.00    +0.284 C 
ATOM      2  O   UNL     1       1.290   5.830  -0.080  0.00  0.00    -0.266 OA
ATOM      3  N   UNL     1       2.364   3.886   0.001  0.00  0.00    -0.278 N 
ATOM      4  H   UNL     1       3.209   3.413   0.056  0.00  0.00    +0.155 HD
ENDROOT
BRANCH   3   5
ATOM      5  C   UNL     1       1.159   3.172   0.019  0.00  0.00    +0.056 A 
ATOM      6  C   UNL     1       0.041   3.713   0.639  0.00  0.00    +0.074 A 
ATOM      7  C   UNL     1      -1.150   3.007   0.656  0.00  0.00    +0.168 A 
ATOM      8  C   UNL     1      -1.225   1.756   0.047  0.00  0.00    +0.168 A 
ATOM      9  C   UNL     1      -0.106   1.217  -0.566  0.00  0.00    +0.071 A 
ATOM     10  C   UNL     1       1.083   1.923  -0.583  0.00  0.00    +0.066 A 
ATOM     11 CL   UNL     1       2.482   1.246  -1.358  0.00  0.00    -0.081 Cl
ATOM     12  O   UNL     1      -2.492   1.271   0.204  0.00  0.00    -0.453 OA
ATOM     13  C   UNL     1      -3.079   2.056   1.259  0.00  0.00    +0.466 C 
ATOM     14  O   UNL     1      -2.371   3.308   1.188  0.00  0.00    -0.453 OA
ENDBRANCH   3   5
BRANCH   1  23
ATOM     15  C   UNL     1       3.718   7.323  -0.312  0.00  0.00    +0.036 A 
ATOM     16  C   UNL     1       5.149   7.611  -0.408  0.00  0.00    +0.026 A 
ATOM     17  C   UNL     1       5.901   8.782  -0.530  0.00  0.00    +0.012 A 
ATOM     18  C   UNL     1       7.264   8.708  -0.596  0.00  0.00    +0.001 A 
ATOM     19  C   UNL     1       7.905   7.477  -0.543  0.00  0.00    +0.004 A 
ATOM     20  C   UNL     1       7.181   6.311  -0.423  0.00  0.00    +0.047 A 
ATOM     21  C   UNL     1       5.794   6.361  -0.354  0.00  0.00    +0.136 A 
ATOM     22  O   UNL     1       4.841   5.416  -0.232  0.00  0.00    -0.450 OA
ATOM     23  C   UNL     1       3.612   5.973  -0.212  0.00  0.00    +0.196 A 
BRANCH  15  24
ATOM     24  C   UNL     1       2.591   8.323  -0.323  0.00  0.00    +0.199 C 
BRANCH  24  25
ATOM     25  O   UNL     1       2.305   8.733   1.016  0.00  0.00    -0.375 OA
BRANCH  25  27
ATOM     26  C   UNL     1       1.027  10.050   2.588  0.00  0.00    +0.034 C 
ATOM     27  C   UNL     1       1.245   9.685   1.118  0.00  0.00    +0.157 C 
ENDBRANCH  25  27
ENDBRANCH  24  25
ENDBRANCH  15  24
ENDBRANCH   1  23
TORSDOF 5
