REMARK  Name = ZINC09076374
REMARK  9 active torsions:
REMARK  status: ('A' for Active; 'I' for Inactive)
REMARK    1  A    between atoms: C_1  and  C_2
REMARK    2  A    between atoms: C_2  and  C_34
REMARK    3  A    between atoms: C_7  and  C_33
REMARK    4  A    between atoms: C_10  and  N_11
REMARK    5  A    between atoms: C_10  and  N_66
REMARK    6  A    between atoms: N_19  and  N_20
REMARK    7  A    between atoms: C_21  and  C_23
REMARK    8  A    between atoms: C_26  and  O_29
REMARK    9  A    between atoms: O_29  and  C_30
REMARK                            x       y       z     vdW  Elec       q    Type
REMARK                         _______ _______ _______ _____ _____    ______ ____
ROOT
ATOM      1  N   UNL     1       4.984   3.614  -0.026  0.00  0.00    -0.282 N 
ATOM      2  C   UNL     1       5.733   2.443  -0.040  0.00  0.00    +0.044 A 
ATOM      3  C   UNL     1       7.107   2.224  -0.054  0.00  0.00    +0.024 A 
ATOM      4  C   UNL     1       7.603   0.936  -0.049  0.00  0.00    +0.002 A 
ATOM      5  C   UNL     1       6.745  -0.150  -0.044  0.00  0.00    +0.001 A 
ATOM      6  C   UNL     1       5.379   0.047  -0.035  0.00  0.00    +0.012 A 
ATOM      7  C   UNL     1       4.869   1.341  -0.031  0.00  0.00    +0.028 A 
ATOM      8  C   UNL     1       3.493   1.888  -0.021  0.00  0.00    +0.153 C 
ATOM      9  N   UNL     1       2.366   1.217  -0.014  0.00  0.00    -0.174 NA
ATOM     10  C   UNL     1       3.666   3.355  -0.014  0.00  0.00    +0.270 C 
ATOM     11  O   UNL     1       2.773   4.181  -0.001  0.00  0.00    -0.268 OA
ENDROOT
BRANCH   9  12
ATOM     12  N   UNL     1       1.143   1.901   0.001  0.00  0.00    -0.202 N 
ATOM     13  C   UNL     1      -0.014   1.212   0.009  0.00  0.00    +0.263 C 
ATOM     14  O   UNL     1       0.002  -0.004   0.002  0.00  0.00    -0.268 OA
ATOM     15  H   UNL     1       1.130   2.871   0.007  0.00  0.00    +0.178 HD
BRANCH  13  16
ATOM     16  C   UNL     1      -1.302   1.931   0.019  0.00  0.00    +0.039 A 
ATOM     17  C   UNL     1      -1.323   3.329   0.032  0.00  0.00    +0.016 A 
ATOM     18  C   UNL     1      -2.526   3.997   0.037  0.00  0.00    +0.046 A 
ATOM     19  C   UNL     1      -3.720   3.284   0.039  0.00  0.00    +0.120 A 
ATOM     20  C   UNL     1      -3.703   1.894   0.030  0.00  0.00    +0.046 A 
ATOM     21  C   UNL     1      -2.504   1.218   0.021  0.00  0.00    +0.016 A 
BRANCH  19  22
ATOM     22  O   UNL     1      -4.904   3.947   0.050  0.00  0.00    -0.495 OA
ATOM     23  C   UNL     1      -4.849   5.375   0.058  0.00  0.00    +0.277 C 
ENDBRANCH  19  22
ENDBRANCH  13  16
ENDBRANCH   9  12
BRANCH   1  24
ATOM     24  C   UNL     1       5.560   4.962  -0.023  0.00  0.00    +0.039 C 
BRANCH  24  35
ATOM     25  C   UNL     1       8.505   6.790  -0.541  0.00  0.00    +0.011 C 
ATOM     26  C   UNL     1       7.965   7.546   0.690  0.00  0.00    -0.036 C 
ATOM     27  C   UNL     1       6.460   7.652   0.582  0.00  0.00    -0.009 C 
ATOM     28  C   UNL     1       5.644   6.846   1.579  0.00  0.00    -0.065 C 
ATOM     29  C   UNL     1       6.305   7.033   2.975  0.00  0.00    -0.011 C 
ATOM     30  C   UNL     1       7.556   6.132   2.788  0.00  0.00    -0.048 C 
ATOM     31  C   UNL     1       8.550   6.925   1.940  0.00  0.00    +0.011 C 
ATOM     32  C   UNL     1       7.032   4.950   1.938  0.00  0.00    -0.070 C 
ATOM     33  C   UNL     1       8.150   5.670   4.126  0.00  0.00    +0.009 C 
ATOM     34  C   UNL     1       8.533   8.985   0.588  0.00  0.00    +0.011 C 
ATOM     35  N   UNL     1       5.737   5.380   1.410  0.00  0.00    +0.393 N 
ATOM     36  H   UNL     1       4.993   4.938   1.962  0.00  0.00    -0.079 HD
ENDBRANCH  24  35
ENDBRANCH   1  24
TORSDOF 5
