REMARK  Name = ZINC27574735
REMARK  12 active torsions:
REMARK  status: ('A' for Active; 'I' for Inactive)
REMARK    1  A    between atoms: C_1  and  C_2
REMARK    2  A    between atoms: C_2  and  C_3
REMARK    3  A    between atoms: C_3  and  C_5
REMARK    4  A    between atoms: C_3  and  N_6
REMARK    5  A    between atoms: N_6  and  S_7
REMARK    6  A    between atoms: S_7  and  C_10
REMARK    7  A    between atoms: C_13  and  C_16
REMARK    8  A    between atoms: N_18  and  C_19
REMARK    9  A    between atoms: C_19  and  C_20
REMARK   10  A    between atoms: C_20  and  C_22
REMARK   11  A    between atoms: C_20  and  N_27
REMARK   12  A    between atoms: C_30  and  C_33
REMARK                            x       y       z     vdW  Elec       q    Type
REMARK                         _______ _______ _______ _____ _____    ______ ____
ROOT
ATOM      1  C   UNL     1       2.400  -1.796   5.520  0.00  0.00    +0.244 C 
ATOM      2  O   UNL     1       1.821  -1.888   6.585  0.00  0.00    -0.270 OA
ATOM      3  N   UNL     1       3.731  -2.003   5.457  0.00  0.00    -0.313 N 
ATOM      4  H   UNL     1       4.255  -1.920   4.493  0.00  0.00    +0.149 HD
ENDROOT
BRANCH   1   8
ATOM      5  C   UNL     1       0.232  -0.824   2.000  0.00  0.00    +0.105 A 
ATOM      6  C   UNL     1       1.597  -1.040   1.930  0.00  0.00    +0.029 A 
ATOM      7  C   UNL     1       2.308  -1.352   3.071  0.00  0.00    +0.015 A 
ATOM      8  C   UNL     1       1.645  -1.458   4.295  0.00  0.00    +0.037 A 
ATOM      9  C   UNL     1       0.268  -1.243   4.357  0.00  0.00    +0.015 A 
ATOM     10  C   UNL     1      -0.431  -0.928   3.210  0.00  0.00    +0.029 A 
BRANCH   5  11
ATOM     11  S   UNL     1      -0.668  -0.420   0.539  0.00  0.00    +0.059 S 
ATOM     12  O   UNL     1      -2.015  -0.807   0.772  0.00  0.00    -0.153 OA
ATOM     13  O   UNL     1       0.090  -0.919  -0.555  0.00  0.00    -0.153 OA
BRANCH  11  14
ATOM     14  N   UNL     1      -0.666   1.230   0.403  0.00  0.00    -0.187 NA
ATOM     15  H   UNL     1      -1.582   1.790   0.642  0.00  0.00    +0.148 HD
BRANCH  14  16
ATOM     16  C   UNL     1       0.593   1.946   0.182  0.00  0.00    +0.073 C 
ATOM     17  C   UNL     1       1.152   2.421   1.524  0.00  0.00    +0.025 C 
BRANCH  16  19
ATOM     18  C   UNL     1      -0.100   2.672  -2.106  0.00  0.00    +0.005 C 
ATOM     19  C   UNL     1       0.341   3.154  -0.722  0.00  0.00    +0.017 C 
ENDBRANCH  16  19
ENDBRANCH  14  16
ENDBRANCH  11  14
ENDBRANCH   5  11
ENDBRANCH   1   8
BRANCH   3  20
ATOM     20  C   UNL     1       4.478  -2.338   6.671  0.00  0.00    +0.094 C 
BRANCH  20  21
ATOM     21  C   UNL     1       5.958  -2.520   6.325  0.00  0.00    -0.013 C 
BRANCH  21  22
ATOM     22  N   UNL     1       6.453  -1.316   5.646  0.00  0.00    +0.386 N 
ATOM     23  C   UNL     1       6.040  -0.101   6.360  0.00  0.00    -0.078 C 
ATOM     24  C   UNL     1       6.447   1.132   5.550  0.00  0.00    -0.015 C 
ATOM     25  C   UNL     1       7.965   1.127   5.349  0.00  0.00    -0.018 C 
ATOM     26  C   UNL     1       8.374  -0.171   4.647  0.00  0.00    -0.015 C 
ATOM     27  C   UNL     1       7.912  -1.366   5.483  0.00  0.00    -0.078 C 
ATOM     28  C   UNL     1       8.371   2.325   4.488  0.00  0.00    +0.007 C 
ATOM     29  H   UNL     1       6.005  -1.283   4.642  0.00  0.00    -0.081 HD
ENDBRANCH  21  22
BRANCH  21  30
ATOM     30  C   UNL     1       6.746  -2.744   7.590  0.00  0.00    -0.022 A 
ATOM     31  C   UNL     1       7.317  -3.883   8.050  0.00  0.00    +0.009 A 
ATOM     32  C   UNL     1       8.001  -3.853   9.250  0.00  0.00    +0.008 A 
ATOM     33  C   UNL     1       8.080  -2.685   9.933  0.00  0.00    +0.045 A 
ATOM     34  S   UNL     1       7.175  -1.574   8.868  0.00  0.00    -0.103 S 
ENDBRANCH  21  30
ENDBRANCH  20  21
ENDBRANCH   3  20
TORSDOF 9
