REMARK  Name = ZINC27985542
REMARK  2 active torsions:
REMARK  status: ('A' for Active; 'I' for Inactive)
REMARK    1  A    between atoms: C_5  and  C_7
REMARK    2  A    between atoms: C_7  and  N_8
REMARK                            x       y       z     vdW  Elec       q    Type
REMARK                         _______ _______ _______ _____ _____    ______ ____
ROOT
ATOM      1  N   UNL     1      -1.847  -0.812  -1.346  0.00  0.00    -0.323 N 
ATOM      2  C   UNL     1      -3.044  -1.471  -1.588  0.00  0.00    +0.148 A 
ATOM      3  C   UNL     1      -3.597  -1.506  -2.947  0.00  0.00    +0.027 A 
ATOM      4  C   UNL     1      -2.950  -0.888  -4.018  0.00  0.00    +0.012 A 
ATOM      5  C   UNL     1      -3.507  -0.947  -5.276  0.00  0.00    +0.001 A 
ATOM      6  C   UNL     1      -4.706  -1.614  -5.490  0.00  0.00    +0.001 A 
ATOM      7  C   UNL     1      -5.363  -2.231  -4.448  0.00  0.00    +0.012 A 
ATOM      8  C   UNL     1      -4.816  -2.184  -3.167  0.00  0.00    +0.031 A 
ATOM      9  C   UNL     1      -5.470  -2.821  -2.019  0.00  0.00    +0.185 A 
ATOM     10  N   UNL     1      -6.581  -3.514  -1.871  0.00  0.00    -0.128 NA
ATOM     11  N   UNL     1      -6.707  -3.856  -0.636  0.00  0.00    -0.136 NA
ATOM     12  C   UNL     1      -5.696  -3.405   0.061  0.00  0.00    +0.249 A 
ATOM     13  N   UNL     1      -4.878  -2.736  -0.786  0.00  0.00    -0.198 N 
ATOM     14  N   UNL     1      -3.671  -2.062  -0.607  0.00  0.00    -0.148 NA
ATOM     15  H   UNL     1      -1.315  -0.317  -2.171  0.00  0.00    +0.148 HD
ENDROOT
BRANCH   1  16
ATOM     16  C   UNL     1      -1.292  -0.775   0.010  0.00  0.00    +0.139 C 
BRANCH  16  21
ATOM     17  C   UNL     1       2.396   0.029  -0.021  0.00  0.00    +0.000 A 
ATOM     18  C   UNL     1       2.378   1.411  -0.013  0.00  0.00    +0.001 A 
ATOM     19  C   UNL     1       1.173   2.087   0.002  0.00  0.00    +0.020 A 
ATOM     20  C   UNL     1      -0.017   1.379   0.010  0.00  0.00    +0.046 A 
ATOM     21  C   UNL     1       0.002  -0.004   0.002  0.00  0.00    -0.012 A 
ATOM     22  C   UNL     1       1.209  -0.679  -0.013  0.00  0.00    +0.006 A 
ATOM     23 CL   UNL     1      -1.532   2.227   0.021  0.00  0.00    -0.083 Cl
ENDBRANCH  16  21
ENDBRANCH   1  16
TORSDOF 2
