REMARK  Name = ZINC40688806
REMARK  11 active torsions:
REMARK  status: ('A' for Active; 'I' for Inactive)
REMARK    1  A    between atoms: C_1  and  C_2
REMARK    2  A    between atoms: C_2  and  C_3
REMARK    3  A    between atoms: C_3  and  C_5
REMARK    4  A    between atoms: C_3  and  N_6
REMARK    5  A    between atoms: C_8  and  N_33
REMARK    6  A    between atoms: C_9  and  N_13
REMARK    7  A    between atoms: N_13  and  C_14
REMARK    8  A    between atoms: C_17  and  C_21
REMARK    9  A    between atoms: C_19  and  C_20
REMARK   10  A    between atoms: C_21  and  C_23
REMARK   11  A    between atoms: C_21  and  C_25
REMARK                            x       y       z     vdW  Elec       q    Type
REMARK                         _______ _______ _______ _____ _____    ______ ____
ROOT
ATOM      1  C   UNL     1       0.865   0.722   8.300  0.00  0.00    +0.037 A 
ATOM      2  C   UNL     1       2.235   0.490   8.310  0.00  0.00    +0.043 A 
ATOM      3  C   UNL     1       2.933   0.537   9.501  0.00  0.00    +0.047 A 
ATOM      4  C   UNL     1       2.269   0.816  10.684  0.00  0.00    -0.008 A 
ATOM      5  C   UNL     1       0.906   1.047  10.676  0.00  0.00    +0.011 A 
ATOM      6  C   UNL     1       0.203   1.007   9.488  0.00  0.00    -0.029 A 
ATOM      7  C   UNL     1      -1.281   1.266   9.480  0.00  0.00    +0.045 C 
ATOM      8 CL   UNL     1       4.645   0.247   9.515  0.00  0.00    -0.083 Cl
ENDROOT
BRANCH   1   9
ATOM      9  N   UNL     1       0.155   0.675   7.097  0.00  0.00    -0.298 N 
ATOM     10  H   UNL     1      -0.797   0.491   7.102  0.00  0.00    +0.154 HD
BRANCH   9  14
ATOM     11  N   UNL     1       0.235   0.814   2.262  0.00  0.00    -0.325 N 
ATOM     12  C   UNL     1       0.854   0.962   3.498  0.00  0.00    +0.145 A 
ATOM     13  C   UNL     1       0.145   0.730   4.678  0.00  0.00    +0.105 A 
ATOM     14  C   UNL     1       0.815   0.893   5.892  0.00  0.00    +0.149 A 
ATOM     15  N   UNL     1       2.094   1.261   5.878  0.00  0.00    -0.219 NA
ATOM     16  C   UNL     1       2.726   1.470   4.742  0.00  0.00    +0.225 A 
ATOM     17  N   UNL     1       2.133   1.322   3.574  0.00  0.00    -0.219 NA
ATOM     18  H   UNL     1      -0.698   0.551   2.216  0.00  0.00    +0.148 HD
BRANCH  13  19
ATOM     19  N   UNL     1      -1.205   0.344   4.645  0.00  0.00    -0.353 N 
ATOM     20  H   UNL     1      -1.657   0.235   3.794  0.00  0.00    +0.143 HD
ATOM     21  H   UNL     1      -1.684   0.186   5.473  0.00  0.00    +0.143 HD
ENDBRANCH  13  19
BRANCH  11  22
ATOM     22  C   UNL     1       0.991   1.054   1.031  0.00  0.00    +0.068 C 
ATOM     23  C   UNL     1       1.748  -0.217   0.640  0.00  0.00    +0.028 C 
BRANCH  22  25
ATOM     24  C   UNL     1      -0.638   2.776   0.242  0.00  0.00    +0.005 C 
ATOM     25  C   UNL     1       0.027   1.440  -0.093  0.00  0.00    +0.018 C 
ENDBRANCH  22  25
ENDBRANCH  11  22
ENDBRANCH   9  14
ENDBRANCH   1   9
BRANCH   4  26
ATOM     26  C   UNL     1       3.033   0.866  11.981  0.00  0.00    +0.153 C 
BRANCH  26  27
ATOM     27  C   UNL     1       2.602  -0.277  12.863  0.00  0.00    -0.026 A 
ATOM     28  C   UNL     1       1.319  -0.307  13.377  0.00  0.00    +0.006 A 
ATOM     29  C   UNL     1       0.922  -1.356  14.186  0.00  0.00    +0.020 A 
ATOM     30  C   UNL     1       1.810  -2.375  14.481  0.00  0.00    +0.041 A 
ATOM     31  C   UNL     1       3.094  -2.345  13.966  0.00  0.00    +0.020 A 
ATOM     32  C   UNL     1       3.487  -1.298  13.153  0.00  0.00    +0.006 A 
ATOM     33 CL   UNL     1       1.312  -3.692  15.497  0.00  0.00    -0.084 Cl
ENDBRANCH  26  27
BRANCH  26  34
ATOM     34  C   UNL     1       2.759   2.142  12.663  0.00  0.00    +0.075 C 
ATOM     35  N   UNL     1       2.548   3.126  13.189  0.00  0.00    -0.196 NA
ENDBRANCH  26  34
ENDBRANCH   4  26
TORSDOF 8
