REMARK  Name = ZINC66114828
REMARK  7 active torsions:
REMARK  status: ('A' for Active; 'I' for Inactive)
REMARK    1  A    between atoms: C_4  and  C_7
REMARK    2  A    between atoms: C_7  and  O_8
REMARK    3  A    between atoms: O_8  and  C_9
REMARK    4  A    between atoms: C_18  and  C_19
REMARK    5  A    between atoms: C_19  and  N_20
REMARK    6  A    between atoms: C_23  and  C_26
REMARK    7  A    between atoms: N_28  and  N_29
REMARK                            x       y       z     vdW  Elec       q    Type
REMARK                         _______ _______ _______ _____ _____    ______ ____
ROOT
ATOM      1  C   UNL     1       5.319  -1.605   1.466  0.00  0.00    +0.123 A 
ATOM      2  C   UNL     1       6.046  -2.006   0.341  0.00  0.00    +0.046 A 
ATOM      3  C   UNL     1       7.227  -2.667   0.472  0.00  0.00    +0.012 A 
ATOM      4  C   UNL     1       7.729  -2.952   1.754  0.00  0.00    -0.017 A 
ATOM      5  C   UNL     1       8.946  -3.632   1.925  0.00  0.00    +0.008 A 
ATOM      6  C   UNL     1       9.403  -3.892   3.180  0.00  0.00    +0.001 A 
ATOM      7  C   UNL     1       8.680  -3.493   4.303  0.00  0.00    +0.001 A 
ATOM      8  C   UNL     1       7.497  -2.832   4.177  0.00  0.00    +0.009 A 
ATOM      9  C   UNL     1       6.994  -2.546   2.896  0.00  0.00    -0.013 A 
ATOM     10  C   UNL     1       5.779  -1.861   2.726  0.00  0.00    -0.015 A 
ENDROOT
BRANCH   1  11
ATOM     11  O   UNL     1       4.141  -0.946   1.304  0.00  0.00    -0.487 OA
BRANCH  11  12
ATOM     12  C   UNL     1       3.711  -0.707  -0.038  0.00  0.00    +0.264 C 
BRANCH  12  16
ATOM     13  C   UNL     1      -0.017   1.378   0.010  0.00  0.00    +0.000 A 
ATOM     14  C   UNL     1       1.171   2.086   0.002  0.00  0.00    +0.000 A 
ATOM     15  C   UNL     1       2.377   1.411  -0.013  0.00  0.00    +0.007 A 
ATOM     16  C   UNL     1       2.396   0.029  -0.020  0.00  0.00    -0.010 A 
ATOM     17  C   UNL     1       1.208  -0.679  -0.012  0.00  0.00    +0.007 A 
ATOM     18  C   UNL     1       0.002  -0.004   0.002  0.00  0.00    +0.000 A 
ENDBRANCH  12  16
ENDBRANCH  11  12
ENDBRANCH   1  11
BRANCH  10  19
ATOM     19  C   UNL     1       4.986  -1.417   3.928  0.00  0.00    -0.039 C 
BRANCH  19  20
ATOM     20  N   UNL     1       4.052  -2.481   4.320  0.00  0.00    +0.383 N 
ATOM     21  C   UNL     1       4.811  -3.658   4.759  0.00  0.00    -0.078 C 
ATOM     22  C   UNL     1       3.845  -4.798   5.091  0.00  0.00    -0.006 C 
ATOM     23  C   UNL     1       2.901  -4.350   6.211  0.00  0.00    +0.073 C 
ATOM     24  C   UNL     1       2.170  -3.078   5.771  0.00  0.00    -0.006 C 
ATOM     25  C   UNL     1       3.198  -2.003   5.414  0.00  0.00    -0.078 C 
ATOM     26  H   UNL     1       3.477  -2.730   3.529  0.00  0.00    -0.081 HD
BRANCH  23  27
ATOM     27  C   UNL     1       1.897  -5.438   6.489  0.00  0.00    +0.229 C 
ATOM     28  O   UNL     1       1.931  -6.471   5.855  0.00  0.00    -0.274 OA
ATOM     29  N   UNL     1       0.961  -5.263   7.443  0.00  0.00    -0.253 N 
ATOM     30  H   UNL     1       0.934  -4.437   7.950  0.00  0.00    +0.169 HD
BRANCH  29  31
ATOM     31  N   UNL     1       0.050  -6.250   7.696  0.00  0.00    -0.254 NA
ATOM     32  H   UNL     1       0.511  -7.119   7.919  0.00  0.00    +0.140 HD
ATOM     33  H   UNL     1      -0.584  -5.977   8.432  0.00  0.00    +0.140 HD
ENDBRANCH  29  31
ENDBRANCH  23  27
ENDBRANCH  19  20
ENDBRANCH  10  19
TORSDOF 7
