REMARK  Name = ZINC41953279
REMARK  8 active torsions:
REMARK  status: ('A' for Active; 'I' for Inactive)
REMARK    1  A    between atoms: C_3  and  C_6
REMARK    2  A    between atoms: C_6  and  C_8
REMARK    3  A    between atoms: C_6  and  N_25
REMARK    4  A    between atoms: C_8  and  C_9
REMARK    5  A    between atoms: N_11  and  C_12
REMARK    6  A    between atoms: C_12  and  C_13
REMARK    7  A    between atoms: C_13  and  C_15
REMARK    8  A    between atoms: C_13  and  N_20
REMARK                            x       y       z     vdW  Elec       q    Type
REMARK                         _______ _______ _______ _____ _____    ______ ____
ROOT
ATOM      1  C   UNL     1       5.623   2.481   1.472  0.00  0.00    +0.215 C 
ATOM      2  O   UNL     1       6.000   3.074   0.483  0.00  0.00    -0.276 OA
ATOM      3  N   UNL     1       6.385   2.470   2.583  0.00  0.00    -0.316 N 
ATOM      4  H   UNL     1       6.083   1.997   3.374  0.00  0.00    +0.149 HD
ENDROOT
BRANCH   1   5
ATOM      5  C   UNL     1       4.301   1.758   1.458  0.00  0.00    +0.123 C 
BRANCH   5   6
ATOM      6  C   UNL     1       3.642   1.926   0.087  0.00  0.00    +0.120 C 
BRANCH   6   7
ATOM      7  N   UNL     1       4.458   1.262  -0.932  0.00  0.00    -0.292 N 
ATOM      8  C   UNL     1       4.698  -0.061  -0.847  0.00  0.00    +0.298 C 
ATOM      9  O   UNL     1       4.237  -0.704   0.076  0.00  0.00    -0.253 OA
ATOM     10  N   UNL     1       5.449  -0.672  -1.785  0.00  0.00    -0.313 N 
ATOM     11  H   UNL     1       4.827   1.776  -1.669  0.00  0.00    +0.151 HD
ATOM     12  H   UNL     1       5.817  -0.159  -2.521  0.00  0.00    +0.146 HD
ATOM     13  H   UNL     1       5.622  -1.624  -1.723  0.00  0.00    +0.146 HD
ENDBRANCH   6   7
BRANCH   6  16
ATOM     14  C   UNL     1      -0.081   1.136   0.245  0.00  0.00    +0.008 A 
ATOM     15  C   UNL     1       1.063   1.912   0.254  0.00  0.00    +0.013 A 
ATOM     16  C   UNL     1       2.268   1.308   0.111  0.00  0.00    +0.010 A 
ATOM     17  S   UNL     1       1.805  -0.409  -0.043  0.00  0.00    -0.100 S 
ATOM     18  C   UNL     1       0.036  -0.206   0.094  0.00  0.00    +0.045 A 
ENDBRANCH   6  16
ENDBRANCH   5   6
ENDBRANCH   1   5
BRANCH   3  19
ATOM     19  C   UNL     1       7.670   3.174   2.597  0.00  0.00    +0.094 C 
BRANCH  19  20
ATOM     20  C   UNL     1       8.279   3.095   3.999  0.00  0.00    -0.013 C 
BRANCH  20  21
ATOM     21  N   UNL     1       9.500   3.910   4.048  0.00  0.00    +0.386 N 
ATOM     22  C   UNL     1       9.174   5.338   3.797  0.00  0.00    -0.078 C 
ATOM     23  C   UNL     1      10.376   6.091   4.421  0.00  0.00    -0.020 C 
ATOM     24  C   UNL     1      10.690   5.255   5.683  0.00  0.00    -0.020 C 
ATOM     25  C   UNL     1      10.090   3.864   5.404  0.00  0.00    -0.078 C 
ATOM     26  H   UNL     1      10.167   3.580   3.367  0.00  0.00    -0.081 HD
ENDBRANCH  20  21
BRANCH  20  27
ATOM     27  C   UNL     1       8.618   1.663   4.320  0.00  0.00    -0.022 A 
ATOM     28  C   UNL     1       7.924   0.768   5.065  0.00  0.00    +0.009 A 
ATOM     29  C   UNL     1       8.432  -0.508   5.225  0.00  0.00    +0.008 A 
ATOM     30  C   UNL     1       9.609  -0.826   4.633  0.00  0.00    +0.045 A 
ATOM     31  S   UNL     1      10.033   0.701   3.811  0.00  0.00    -0.103 S 
ENDBRANCH  20  27
ENDBRANCH  19  20
ENDBRANCH   3  19
TORSDOF 8
