REMARK  Name = ZINC09678884
REMARK  10 active torsions:
REMARK  status: ('A' for Active; 'I' for Inactive)
REMARK    1  A    between atoms: C_1  and  C_2
REMARK    2  A    between atoms: C_2  and  C_3
REMARK    3  A    between atoms: C_2  and  C_4
REMARK    4  A    between atoms: C_14  and  C_39
REMARK    5  A    between atoms: C_18  and  C_19
REMARK    6  A    between atoms: C_18  and  C_20
REMARK    7  A    between atoms: C_20  and  N_84
REMARK    8  A    between atoms: C_21  and  N_84
REMARK    9  A    between atoms: N_31  and  C_32
REMARK   10  A    between atoms: C_32  and  C_33
REMARK                            x       y       z     vdW  Elec       q    Type
REMARK                         _______ _______ _______ _____ _____    ______ ____
ROOT
ATOM      1  C   UNL     1       1.169   1.762  -4.409  0.00  0.00    -0.073 C 
ENDROOT
BRANCH   1  15
ATOM      2  C   UNL     1       8.599   1.882  -4.616  0.00  0.00    -0.045 A 
ATOM      3  C   UNL     1       8.383   3.090  -3.979  0.00  0.00    +0.004 A 
ATOM      4  C   UNL     1       7.097   3.567  -3.834  0.00  0.00    +0.005 A 
ATOM      5  C   UNL     1       6.018   2.842  -4.324  0.00  0.00    -0.038 A 
ATOM      6  C   UNL     1       6.230   1.636  -4.952  0.00  0.00    -0.043 A 
ATOM      7  C   UNL     1       7.528   1.160  -5.100  0.00  0.00    +0.007 A 
ATOM      8  C   UNL     1       5.109   0.785  -5.488  0.00  0.00    +0.036 C 
ATOM      9  C   UNL     1       3.819   1.595  -5.602  0.00  0.00    +0.009 C 
ATOM     10  C   UNL     1       3.592   2.324  -4.276  0.00  0.00    +0.004 C 
ATOM     11  C   UNL     1       4.638   3.426  -4.140  0.00  0.00    -0.004 C 
ATOM     12  C   UNL     1       4.417   4.493  -5.217  0.00  0.00    +0.011 C 
ATOM     13  C   UNL     1       3.007   5.069  -5.097  0.00  0.00    +0.001 C 
ATOM     14  C   UNL     1       1.986   3.947  -5.300  0.00  0.00    +0.005 C 
ATOM     15  C   UNL     1       2.181   2.892  -4.209  0.00  0.00    -0.044 C 
ATOM     16  C   UNL     1       1.960   3.534  -2.838  0.00  0.00    +0.009 C 
ATOM     17  C   UNL     1       4.534   4.068  -2.755  0.00  0.00    +0.016 C 
BRANCH   2  19
ATOM     18  C   UNL     1      10.829   2.353  -5.594  0.00  0.00    +0.012 C 
ATOM     19  C   UNL     1      10.001   1.355  -4.782  0.00  0.00    +0.013 C 
ATOM     20  C   UNL     1      10.640   1.164  -3.404  0.00  0.00    +0.012 C 
ENDBRANCH   2  19
ENDBRANCH   1  15
BRANCH   1  21
ATOM     21  N   UNL     1      -0.196   2.316  -4.327  0.00  0.00    +0.394 N 
ATOM     22  H   UNL     1      -0.318   3.026  -5.058  0.00  0.00    -0.083 HD
ATOM     23  H   UNL     1      -0.332   2.747  -3.405  0.00  0.00    -0.083 HD
BRANCH  21  24
ATOM     24  C   UNL     1      -1.194   1.247  -4.516  0.00  0.00    +0.046 C 
ATOM     25  C   UNL     1      -2.300   1.730  -5.416  0.00  0.00    -0.059 C 
ATOM     26  C   UNL     1      -3.433   1.682  -4.715  0.00  0.00    +0.014 C 
ATOM     27  C   UNL     1      -4.780   2.090  -5.267  0.00  0.00    +0.040 C 
ATOM     28  C   UNL     1      -4.556   2.928  -6.530  0.00  0.00    +0.005 C 
ATOM     29  C   UNL     1      -3.592   2.192  -7.466  0.00  0.00    +0.005 C 
ATOM     30  C   UNL     1      -2.188   2.189  -6.846  0.00  0.00    +0.031 C 
ATOM     31  C   UNL     1      -3.154   1.179  -3.368  0.00  0.00    +0.241 C 
ATOM     32  O   UNL     1      -3.987   1.017  -2.497  0.00  0.00    -0.270 OA
ATOM     33  N   UNL     1      -1.838   0.923  -3.234  0.00  0.00    -0.305 N 
BRANCH  33  34
ATOM     34  C   UNL     1      -1.171   0.410  -2.034  0.00  0.00    +0.138 C 
BRANCH  34  35
ATOM     35  C   UNL     1      -0.716   1.583  -1.164  0.00  0.00    +0.136 C 
ATOM     36  C   UNL     1       0.095   1.060   0.037  0.00  0.00    +0.035 C 
ATOM     37  C   UNL     1      -0.678   1.576   1.275  0.00  0.00    +0.031 C 
ATOM     38  C   UNL     1      -1.496   2.752   0.677  0.00  0.00    +0.160 C 
ATOM     39  O   UNL     1      -1.859   2.277  -0.637  0.00  0.00    -0.375 OA
ENDBRANCH  34  35
ENDBRANCH  33  34
ENDBRANCH  21  24
ENDBRANCH   1  21
TORSDOF 6
