REMARK  Name = ZINC05842167
REMARK  17 active torsions:
REMARK  status: ('A' for Active; 'I' for Inactive)
REMARK    1  A    between atoms: C_1  and  C_2
REMARK    2  A    between atoms: C_2  and  C_3
REMARK    3  A    between atoms: C_6  and  C_38
REMARK    4  A    between atoms: C_7  and  C_19
REMARK    5  A    between atoms: C_8  and  O_18
REMARK    6  A    between atoms: C_10  and  C_15
REMARK    7  A    between atoms: C_11  and  O_14
REMARK    8  A    between atoms: C_12  and  O_13
REMARK    9  A    between atoms: C_15  and  C_17
REMARK   10  A    between atoms: C_20  and  C_37
REMARK   11  A    between atoms: C_23  and  C_35
REMARK   12  A    between atoms: C_24  and  O_34
REMARK   13  A    between atoms: C_25  and  O_33
REMARK   14  A    between atoms: C_26  and  C_30
REMARK   15  A    between atoms: C_28  and  O_29
REMARK   16  A    between atoms: C_30  and  C_32
REMARK   17  A    between atoms: C_35  and  C_36
REMARK                            x       y       z     vdW  Elec       q    Type
REMARK                         _______ _______ _______ _____ _____    ______ ____
ROOT
ATOM      1  C   UNL     1      -0.149  -0.155   0.057  0.00  0.00    +0.005 A 
ATOM      2  C   UNL     1      -0.158   1.244  -0.081  0.00  0.00    -0.007 A 
ATOM      3  C   UNL     1      -1.368   1.951  -0.203  0.00  0.00    +0.013 A 
ATOM      4  C   UNL     1      -1.358   3.303  -0.340  0.00  0.00    -0.039 A 
ATOM      5  C   UNL     1      -0.150   4.017  -0.351  0.00  0.00    +0.031 A 
ATOM      6  C   UNL     1       1.064   3.347  -0.226  0.00  0.00    +0.133 A 
ATOM      7  C   UNL     1       1.067   1.953  -0.090  0.00  0.00    +0.039 A 
ATOM      8  C   UNL     1       2.321   1.206   0.044  0.00  0.00    +0.073 A 
ATOM      9  C   UNL     1       2.261  -0.184   0.177  0.00  0.00    +0.170 A 
ATOM     10  C   UNL     1       1.023  -0.839   0.181  0.00  0.00    +0.163 A 
ATOM     11  C   UNL     1      -2.662   4.046  -0.477  0.00  0.00    +0.044 C 
ENDROOT
BRANCH   5  12
ATOM     12  C   UNL     1      -0.166   5.490  -0.495  0.00  0.00    +0.031 A 
ATOM     13  C   UNL     1      -0.115   6.067  -1.773  0.00  0.00    -0.039 A 
ATOM     14  C   UNL     1      -0.130   7.417  -1.931  0.00  0.00    +0.013 A 
ATOM     15  C   UNL     1      -0.196   8.258  -0.806  0.00  0.00    -0.007 A 
ATOM     16  C   UNL     1      -0.212   9.657  -0.950  0.00  0.00    +0.005 A 
ATOM     17  C   UNL     1      -0.276  10.473   0.140  0.00  0.00    +0.163 A 
ATOM     18  C   UNL     1      -0.329   9.958   1.441  0.00  0.00    +0.170 A 
ATOM     19  C   UNL     1      -0.317   8.576   1.653  0.00  0.00    +0.073 A 
ATOM     20  C   UNL     1      -0.248   7.689   0.489  0.00  0.00    +0.039 A 
ATOM     21  C   UNL     1      -0.238   6.296   0.637  0.00  0.00    +0.133 A 
ATOM     22  C   UNL     1      -0.044   5.177  -2.988  0.00  0.00    +0.044 C 
BRANCH  19  23
ATOM     23  C   UNL     1      -0.373   8.028   3.007  0.00  0.00    +0.164 C 
ATOM     24  O   UNL     1       0.655   7.803   3.613  0.00  0.00    -0.292 OA
ATOM     25  C   UNL     1      -1.705   7.743   3.650  0.00  0.00    +0.092 C 
ENDBRANCH  19  23
BRANCH  21  26
ATOM     26  O   UNL     1      -0.293   5.738   1.874  0.00  0.00    -0.506 OA
ATOM     27  H   UNL     1       0.573   5.607   2.285  0.00  0.00    +0.292 HD
ENDBRANCH  21  26
BRANCH  18  28
ATOM     28  O   UNL     1      -0.392  10.803   2.499  0.00  0.00    -0.503 OA
ATOM     29  H   UNL     1      -1.292  11.035   2.764  0.00  0.00    +0.292 HD
ENDBRANCH  18  28
BRANCH  17  30
ATOM     30  O   UNL     1      -0.289  11.820  -0.041  0.00  0.00    -0.503 OA
ATOM     31  H   UNL     1      -1.175  12.195  -0.134  0.00  0.00    +0.292 HD
ENDBRANCH  17  30
BRANCH  16  32
ATOM     32  C   UNL     1      -0.156  10.263  -2.328  0.00  0.00    +0.036 C 
ATOM     33  C   UNL     1      -1.578  10.445  -2.863  0.00  0.00    +0.009 C 
ENDBRANCH  16  32
ENDBRANCH   5  12
BRANCH   8  34
ATOM     34  C   UNL     1       3.607   1.900   0.039  0.00  0.00    +0.164 C 
ATOM     35  O   UNL     1       4.173   2.121  -1.012  0.00  0.00    -0.292 OA
ATOM     36  C   UNL     1       4.231   2.342   1.338  0.00  0.00    +0.092 C 
ENDBRANCH   8  34
BRANCH   1  38
ATOM     37  C   UNL     1      -1.825  -1.305  -1.364  0.00  0.00    +0.009 C 
ATOM     38  C   UNL     1      -1.453  -0.909   0.067  0.00  0.00    +0.036 C 
ENDBRANCH   1  38
BRANCH  10  39
ATOM     39  O   UNL     1       0.990  -2.192   0.312  0.00  0.00    -0.503 OA
ATOM     40  H   UNL     1       1.023  -2.669  -0.528  0.00  0.00    +0.292 HD
ENDBRANCH  10  39
BRANCH   9  41
ATOM     41  O   UNL     1       3.404  -0.901   0.303  0.00  0.00    -0.503 OA
ATOM     42  H   UNL     1       3.779  -1.195  -0.538  0.00  0.00    +0.292 HD
ENDBRANCH   9  41
BRANCH   6  43
ATOM     43  O   UNL     1       2.233   4.038  -0.237  0.00  0.00    -0.506 OA
ATOM     44  H   UNL     1       2.574   4.220  -1.124  0.00  0.00    +0.292 HD
ENDBRANCH   6  43
TORSDOF 11
