REMARK  Name = ZINC16569817
REMARK  5 active torsions:
REMARK  status: ('A' for Active; 'I' for Inactive)
REMARK    1  A    between atoms: C_4  and  C_7
REMARK    2  A    between atoms: C_21  and  C_23
REMARK    3  A    between atoms: C_23  and  N_24
REMARK    4  A    between atoms: N_24  and  C_25
REMARK    5  A    between atoms: N_30  and  C_31
REMARK                            x       y       z     vdW  Elec       q    Type
REMARK                         _______ _______ _______ _____ _____    ______ ____
ROOT
ATOM      1  C   UNL     1      -0.465  -2.799   0.241  0.00  0.00    +0.159 C 
ATOM      2  C   UNL     1      -1.416  -3.927   0.545  0.00  0.00    +0.049 A 
ATOM      3  C   UNL     1      -2.112  -4.702  -0.293  0.00  0.00    +0.025 A 
ATOM      4  C   UNL     1      -2.854  -5.612   0.492  0.00  0.00    +0.020 A 
ATOM      5  C   UNL     1      -2.578  -5.350   1.789  0.00  0.00    +0.092 A 
ATOM      6  N   UNL     1      -1.701  -4.319   1.835  0.00  0.00    -0.316 N 
ATOM      7  C   UNL     1      -1.117  -3.677   2.936  0.00  0.00    +0.068 A 
ATOM      8  C   UNL     1      -1.171  -4.215   4.207  0.00  0.00    +0.028 A 
ATOM      9  C   UNL     1      -0.559  -3.555   5.258  0.00  0.00    +0.002 A 
ATOM     10  C   UNL     1       0.104  -2.362   5.037  0.00  0.00    +0.002 A 
ATOM     11  C   UNL     1       0.158  -1.815   3.769  0.00  0.00    +0.025 A 
ATOM     12  C   UNL     1      -0.455  -2.465   2.709  0.00  0.00    +0.061 A 
ATOM     13  N   UNL     1      -0.417  -1.918   1.419  0.00  0.00    -0.255 N 
ATOM     14  C   UNL     1      -0.342  -0.582   1.258  0.00  0.00    +0.238 C 
ATOM     15  O   UNL     1      -0.405   0.150   2.223  0.00  0.00    -0.273 OA
ENDROOT
BRANCH   1  19
ATOM     16  C   UNL     1       3.426  -4.377  -0.546  0.00  0.00    +0.000 A 
ATOM     17  C   UNL     1       2.615  -3.982  -1.594  0.00  0.00    +0.000 A 
ATOM     18  C   UNL     1       1.356  -3.472  -1.339  0.00  0.00    +0.006 A 
ATOM     19  C   UNL     1       0.908  -3.356  -0.037  0.00  0.00    -0.021 A 
ATOM     20  C   UNL     1       1.720  -3.746   1.011  0.00  0.00    +0.006 A 
ATOM     21  C   UNL     1       2.978  -4.261   0.756  0.00  0.00    +0.000 A 
ENDBRANCH   1  19
BRANCH  14  22
ATOM     22  C   UNL     1      -0.179   0.002  -0.122  0.00  0.00    +0.205 C 
BRANCH  22  23
ATOM     23  N   UNL     1      -0.003   1.453  -0.020  0.00  0.00    -0.274 N 
ATOM     24  C   UNL     1       1.234   1.975   0.101  0.00  0.00    +0.303 C 
ATOM     25  O   UNL     1       1.386   3.181   0.116  0.00  0.00    -0.253 OA
ATOM     26  N   UNL     1       2.302   1.160   0.207  0.00  0.00    -0.294 N 
ATOM     27  H   UNL     1       2.190   0.200   0.124  0.00  0.00    +0.151 HD
BRANCH  26  28
ATOM     28  C   UNL     1       3.633   1.723   0.447  0.00  0.00    +0.037 C 
ATOM     29  C   UNL     1       4.001   2.668  -0.699  0.00  0.00    +0.029 C 
ATOM     30  C   UNL     1       5.391   3.256  -0.448  0.00  0.00    -0.008 C 
ATOM     31  C   UNL     1       6.418   2.124  -0.370  0.00  0.00    +0.007 C 
ATOM     32  C   UNL     1       6.050   1.180   0.775  0.00  0.00    -0.008 C 
ATOM     33  C   UNL     1       4.660   0.591   0.525  0.00  0.00    +0.029 C 
ATOM     34  C   UNL     1       6.045   1.955   2.094  0.00  0.00    +0.007 C 
ATOM     35  C   UNL     1       5.018   3.087   2.017  0.00  0.00    -0.008 C 
ATOM     36  C   UNL     1       5.386   4.032   0.871  0.00  0.00    +0.007 C 
ATOM     37  C   UNL     1       3.628   2.498   1.766  0.00  0.00    +0.029 C 
ENDBRANCH  26  28
BRANCH  23  38
ATOM     38  C   UNL     1      -1.170   2.337  -0.057  0.00  0.00    +0.078 C 
ATOM     39  C   UNL     1      -0.926   3.819  -0.351  0.00  0.00    +0.024 C 
ATOM     40  C   UNL     1      -1.308   3.372   1.062  0.00  0.00    +0.024 C 
ENDBRANCH  23  38
ENDBRANCH  22  23
ENDBRANCH  14  22
TORSDOF 5
