REMARK  Name = ZINC39232615
REMARK  10 active torsions:
REMARK  status: ('A' for Active; 'I' for Inactive)
REMARK    1  A    between atoms: C_1  and  C_2
REMARK    2  A    between atoms: C_4  and  C_9
REMARK    3  A    between atoms: C_5  and  C_8
REMARK    4  A    between atoms: C_9  and  C_10
REMARK    5  A    between atoms: C_11  and  C_25
REMARK    6  A    between atoms: N_13  and  C_18
REMARK    7  A    between atoms: C_21  and  C_24
REMARK    8  A    between atoms: C_28  and  C_31
REMARK    9  A    between atoms: C_31  and  C_32
REMARK   10  A    between atoms: C_31  and  C_33
REMARK                            x       y       z     vdW  Elec       q    Type
REMARK                         _______ _______ _______ _____ _____    ______ ____
ROOT
ATOM      1  C   UNL     1      -0.998   0.504  -3.049  0.00  0.00    +0.076 C 
ATOM      2  C   UNL     1      -1.842   1.281  -2.067  0.00  0.00    +0.147 C 
ATOM      3  N   UNL     1      -2.981   1.805  -2.830  0.00  0.00    -0.262 N 
ATOM      4  C   UNL     1      -2.845   1.399  -4.106  0.00  0.00    +0.289 C 
ATOM      5  O   UNL     1      -3.619   1.660  -5.006  0.00  0.00    -0.266 OA
ATOM      6  C   UNL     1      -1.614   0.596  -4.252  0.00  0.00    +0.249 C 
ATOM      7  O   UNL     1      -1.174   0.037  -5.403  0.00  0.00    -0.282 OA
ENDROOT
BRANCH   3   8
ATOM      8  C   UNL     1      -4.072   2.624  -2.297  0.00  0.00    +0.208 C 
ATOM      9  C   UNL     1      -5.355   1.820  -2.209  0.00  0.00    +0.057 C 
ATOM     10  C   UNL     1      -6.119   2.164  -3.224  0.00  0.00    +0.121 C 
ATOM     11  O   UNL     1      -5.535   3.097  -4.014  0.00  0.00    -0.409 OA
ATOM     12  N   UNL     1      -4.428   3.710  -3.247  0.00  0.00    -0.131 NA
ATOM     13  C   UNL     1      -7.488   1.587  -3.478  0.00  0.00    +0.088 C 
ATOM     14  H   UNL     1      -4.741   4.533  -2.754  0.00  0.00    +0.170 HD
ENDBRANCH   3   8
BRANCH   2  15
ATOM     15  C   UNL     1      -1.043   2.417  -1.481  0.00  0.00    -0.022 A 
ATOM     16  C   UNL     1      -0.787   3.544  -2.239  0.00  0.00    +0.006 A 
ATOM     17  C   UNL     1      -0.054   4.586  -1.702  0.00  0.00    +0.004 A 
ATOM     18  C   UNL     1       0.423   4.500  -0.407  0.00  0.00    -0.045 A 
ATOM     19  C   UNL     1       0.166   3.373   0.351  0.00  0.00    +0.004 A 
ATOM     20  C   UNL     1      -0.571   2.333  -0.185  0.00  0.00    +0.006 A 
BRANCH  18  21
ATOM     21  C   UNL     1       1.223   5.636   0.178  0.00  0.00    +0.013 C 
ATOM     22  C   UNL     1       0.507   6.179   1.416  0.00  0.00    +0.012 C 
ATOM     23  C   UNL     1       2.612   5.130   0.572  0.00  0.00    +0.012 C 
ENDBRANCH  18  21
ENDBRANCH   2  15
BRANCH   1  24
ATOM     24  C   UNL     1       0.252  -0.207  -2.759  0.00  0.00    +0.193 C 
ATOM     25  O   UNL     1       1.271   0.420  -2.535  0.00  0.00    -0.287 OA
BRANCH  24  28
ATOM     26  C   UNL     1      -1.913  -2.373  -1.753  0.00  0.00    +0.035 C 
ATOM     27  C   UNL     1      -0.908  -2.611  -2.883  0.00  0.00    +0.110 C 
ATOM     28  C   UNL     1       0.273  -1.677  -2.737  0.00  0.00    +0.026 C 
ATOM     29  C   UNL     1       1.352  -2.475  -2.582  0.00  0.00    -0.026 C 
ATOM     30  C   UNL     1       0.923  -3.874  -2.622  0.00  0.00    +0.082 C 
ATOM     31  N   UNL     1      -0.354  -3.967  -2.792  0.00  0.00    -0.383 N 
ATOM     32  C   UNL     1       2.771  -2.001  -2.399  0.00  0.00    +0.046 C 
ATOM     33  H   UNL     1      -0.861  -4.792  -2.850  0.00  0.00    +0.160 HD
ENDBRANCH  24  28
ENDBRANCH   1  24
TORSDOF 5
