REMARK  Name = ZINC12212697
REMARK  10 active torsions:
REMARK  status: ('A' for Active; 'I' for Inactive)
REMARK    1  A    between atoms: C_1  and  O_2
REMARK    2  A    between atoms: O_2  and  C_3
REMARK    3  A    between atoms: C_3  and  C_5
REMARK    4  A    between atoms: N_7  and  C_10
REMARK    5  A    between atoms: C_13  and  C_22
REMARK    6  A    between atoms: C_16  and  C_17
REMARK    7  A    between atoms: C_16  and  N_56
REMARK    8  A    between atoms: N_24  and  C_25
REMARK    9  A    between atoms: C_25  and  C_26
REMARK   10  A    between atoms: C_30  and  C_32
REMARK                            x       y       z     vdW  Elec       q    Type
REMARK                         _______ _______ _______ _____ _____    ______ ____
ROOT
ATOM      1  C   UNL     1      -2.720   6.048   4.708  0.00  0.00    +0.091 C 
ATOM      2  C   UNL     1      -4.057   6.569   4.140  0.00  0.00    +0.019 C 
ATOM      3  C   UNL     1      -3.733   7.976   3.587  0.00  0.00    +0.022 C 
ATOM      4  C   UNL     1      -1.704   7.181   4.453  0.00  0.00    -0.050 C 
ATOM      5  N   UNL     1      -2.540   8.374   4.343  0.00  0.00    +0.391 N 
ATOM      6  H   UNL     1      -2.810   8.701   5.279  0.00  0.00    -0.080 HD
ENDROOT
BRANCH   1   9
ATOM      7  C   UNL     1      -1.474   3.436   2.553  0.00  0.00    +0.189 A 
ATOM      8  C   UNL     1      -1.643   4.762   2.837  0.00  0.00    +0.145 A 
ATOM      9  N   UNL     1      -2.310   4.829   4.006  0.00  0.00    -0.250 N 
ATOM     10  N   UNL     1      -2.531   3.509   4.423  0.00  0.00    -0.065 NA
ATOM     11  N   UNL     1      -2.027   2.715   3.545  0.00  0.00    -0.123 NA
BRANCH   7  12
ATOM     12  C   UNL     1      -0.797   2.888   1.364  0.00  0.00    +0.361 C 
ATOM     13  O   UNL     1      -0.334   3.639   0.529  0.00  0.00    -0.243 OA
BRANCH  12  15
ATOM     14  C   UNL     1      -0.013   1.086   0.008  0.00  0.00    +0.280 C 
ATOM     15  O   UNL     1      -0.692   1.554   1.203  0.00  0.00    -0.463 OA
ENDBRANCH  12  15
ENDBRANCH   7  12
ENDBRANCH   1   9
BRANCH   3  16
ATOM     16  C   UNL     1      -4.883   8.918   3.838  0.00  0.00    +0.200 C 
ATOM     17  O   UNL     1      -4.737   9.868   4.578  0.00  0.00    -0.278 OA
ATOM     18  N   UNL     1      -6.072   8.704   3.241  0.00  0.00    -0.313 N 
ATOM     19  H   UNL     1      -6.188   7.944   2.650  0.00  0.00    +0.149 HD
BRANCH  18  20
ATOM     20  C   UNL     1      -7.189   9.619   3.486  0.00  0.00    +0.139 C 
BRANCH  20  21
ATOM     21  C   UNL     1      -8.394   9.160   2.706  0.00  0.00    -0.030 A 
ATOM     22  C   UNL     1      -8.604   9.624   1.421  0.00  0.00    +0.005 A 
ATOM     23  C   UNL     1      -9.707   9.199   0.704  0.00  0.00    +0.001 A 
ATOM     24  C   UNL     1     -10.606   8.318   1.276  0.00  0.00    +0.012 A 
ATOM     25  C   UNL     1     -10.399   7.859   2.563  0.00  0.00    +0.055 A 
ATOM     26  C   UNL     1      -9.293   8.280   3.278  0.00  0.00    +0.017 A 
BRANCH  25  27
ATOM     27  C   UNL     1     -11.379   6.899   3.187  0.00  0.00    +0.417 C 
ATOM     28  F   UNL     1     -12.376   7.618   3.854  0.00  0.00    -0.166 F 
ATOM     29  F   UNL     1     -11.961   6.112   2.188  0.00  0.00    -0.166 F 
ATOM     30  F   UNL     1     -10.709   6.075   4.098  0.00  0.00    -0.166 F 
ENDBRANCH  25  27
ENDBRANCH  20  21
ENDBRANCH  18  20
ENDBRANCH   3  16
BRANCH   5  31
ATOM     31  C   UNL     1      -1.812   9.471   3.631  0.00  0.00    -0.041 C 
BRANCH  31  32
ATOM     32  C   UNL     1      -0.679   9.975   4.488  0.00  0.00    -0.057 A 
ATOM     33  C   UNL     1       0.573   9.394   4.408  0.00  0.00    +0.009 A 
ATOM     34  C   UNL     1       1.571   9.871   5.192  0.00  0.00    +0.045 A 
ATOM     35  S   UNL     1       0.746  11.181   6.082  0.00  0.00    -0.105 S 
ATOM     36  C   UNL     1      -0.870  11.008   5.344  0.00  0.00    +0.047 A 
ENDBRANCH  31  32
ENDBRANCH   5  31
TORSDOF 9
