REMARK  Name = ZINC64055487
REMARK  9 active torsions:
REMARK  status: ('A' for Active; 'I' for Inactive)
REMARK    1  A    between atoms: C_1  and  C_2
REMARK    2  A    between atoms: C_6  and  N_8
REMARK    3  A    between atoms: C_9  and  S_23
REMARK    4  A    between atoms: C_13  and  C_14
REMARK    5  A    between atoms: S_23  and  C_24
REMARK    6  A    between atoms: C_24  and  C_26
REMARK    7  A    between atoms: C_24  and  C_29
REMARK    8  A    between atoms: C_26  and  C_27
REMARK    9  A    between atoms: C_26  and  C_28
REMARK                            x       y       z     vdW  Elec       q    Type
REMARK                         _______ _______ _______ _____ _____    ______ ____
ROOT
ATOM      1  N   UNL     1       0.253  -2.369   2.190  0.00  0.00    -0.254 N 
ATOM      2  C   UNL     1      -0.031  -3.803   2.364  0.00  0.00    +0.242 C 
ATOM      3  N   UNL     1       0.126  -4.030   3.810  0.00  0.00    -0.237 N 
ATOM      4  N   UNL     1       0.472  -2.796   4.372  0.00  0.00    -0.169 NA
ATOM      5  C   UNL     1       0.549  -1.864   3.459  0.00  0.00    +0.151 C 
ATOM      6  H   UNL     1       0.011  -4.870   4.281  0.00  0.00    +0.171 HD
ENDROOT
BRANCH   5   7
ATOM      7  C   UNL     1       0.883  -0.526   3.720  0.00  0.00    +0.022 C 
ATOM      8  C   UNL     1       1.084   0.065   4.968  0.00  0.00    +0.006 A 
ATOM      9  C   UNL     1       1.025  -0.442   6.283  0.00  0.00    +0.010 A 
ATOM     10  C   UNL     1       1.273   0.382   7.334  0.00  0.00    +0.001 A 
ATOM     11  C   UNL     1       1.588   1.729   7.149  0.00  0.00    +0.002 A 
ATOM     12  C   UNL     1       1.662   2.283   5.914  0.00  0.00    +0.026 A 
ATOM     13  C   UNL     1       1.416   1.485   4.767  0.00  0.00    +0.043 A 
ATOM     14  N   UNL     1       1.427   1.779   3.481  0.00  0.00    -0.380 N 
ATOM     15  C   UNL     1       1.107   0.575   2.707  0.00  0.00    +0.152 C 
ATOM     16  H   UNL     1       1.619   2.653   3.106  0.00  0.00    +0.160 HD
ENDBRANCH   5   7
BRANCH   1  22
ATOM     17  C   UNL     1      -2.292  -0.049  -1.317  0.00  0.00    +0.044 C 
ATOM     18  C   UNL     1      -0.984  -0.517  -0.734  0.00  0.00    -0.049 A 
ATOM     19  C   UNL     1       0.203  -0.239  -1.388  0.00  0.00    +0.003 A 
ATOM     20  C   UNL     1       1.406  -0.666  -0.856  0.00  0.00    +0.002 A 
ATOM     21  C   UNL     1       1.426  -1.373   0.330  0.00  0.00    +0.023 A 
ATOM     22  C   UNL     1       0.236  -1.654   0.990  0.00  0.00    +0.038 A 
ATOM     23  C   UNL     1      -0.970  -1.218   0.455  0.00  0.00    +0.027 A 
ENDBRANCH   1  22
BRANCH   2  24
ATOM     24  S   UNL     1       1.157  -4.804   1.428  0.00  0.00    -0.105 S 
BRANCH  24  25
ATOM     25  C   UNL     1       2.757  -4.407   2.185  0.00  0.00    +0.138 C 
BRANCH  25  26
ATOM     26  C   UNL     1       2.807  -4.973   3.580  0.00  0.00    +0.234 C 
ATOM     27  O   UNL     1       2.117  -5.925   3.873  0.00  0.00    -0.274 OA
ATOM     28  N   UNL     1       3.619  -4.419   4.503  0.00  0.00    -0.239 N 
ATOM     29  C   UNL     1       3.663  -4.925   5.752  0.00  0.00    +0.303 C 
ATOM     30  O   UNL     1       2.972  -5.881   6.045  0.00  0.00    -0.253 OA
ATOM     31  N   UNL     1       4.475  -4.372   6.675  0.00  0.00    -0.313 N 
ATOM     32  H   UNL     1       4.171  -3.657   4.269  0.00  0.00    +0.159 HD
ATOM     33  H   UNL     1       5.027  -3.610   6.440  0.00  0.00    +0.146 HD
ATOM     34  H   UNL     1       4.507  -4.736   7.573  0.00  0.00    +0.146 HD
ENDBRANCH  25  26
BRANCH  25  35
ATOM     35  C   UNL     1       3.883  -5.016   1.347  0.00  0.00    +0.005 C 
ATOM     36  C   UNL     1       3.835  -4.438  -0.069  0.00  0.00    +0.009 C 
ATOM     37  C   UNL     1       5.232  -4.685   1.988  0.00  0.00    +0.009 C 
ENDBRANCH  25  35
ENDBRANCH  24  25
ENDBRANCH   2  24
TORSDOF 6
