REMARK  Name = ZINC31576334
REMARK  15 active torsions:
REMARK  status: ('A' for Active; 'I' for Inactive)
REMARK    1  A    between atoms: C_1  and  C_2
REMARK    2  A    between atoms: C_2  and  O_3
REMARK    3  A    between atoms: O_3  and  C_4
REMARK    4  A    between atoms: C_4  and  C_6
REMARK    5  A    between atoms: C_7  and  C_32
REMARK    6  A    between atoms: C_11  and  C_15
REMARK    7  A    between atoms: C_15  and  S_16
REMARK    8  A    between atoms: S_16  and  C_17
REMARK    9  A    between atoms: N_23  and  C_24
REMARK   10  A    between atoms: C_24  and  C_25
REMARK   11  A    between atoms: C_25  and  C_27
REMARK   12  A    between atoms: C_25  and  O_31
REMARK   13  A    between atoms: C_27  and  N_28
REMARK   14  A    between atoms: N_28  and  C_29
REMARK   15  A    between atoms: N_28  and  C_30
REMARK                            x       y       z     vdW  Elec       q    Type
REMARK                         _______ _______ _______ _____ _____    ______ ____
ROOT
ATOM      1  C   UNL     1       6.865   6.654  -1.096  0.00  0.00    +0.102 A 
ATOM      2  C   UNL     1       5.848   5.845  -0.689  0.00  0.00    -0.017 A 
ATOM      3  C   UNL     1       4.725   6.399  -0.063  0.00  0.00    +0.051 A 
ATOM      4  C   UNL     1       3.557   5.748   0.438  0.00  0.00    +0.131 A 
ATOM      5  N   UNL     1       2.603   6.475   0.996  0.00  0.00    -0.216 NA
ATOM      6  C   UNL     1       2.695   7.787   1.115  0.00  0.00    +0.142 A 
ATOM      7  N   UNL     1       3.748   8.448   0.673  0.00  0.00    -0.224 NA
ATOM      8  C   UNL     1       4.745   7.806   0.099  0.00  0.00    +0.115 A 
ATOM      9  S   UNL     1       6.299   8.277  -0.617  0.00  0.00    -0.062 S 
ATOM     10  N   UNL     1       3.424   4.378   0.338  0.00  0.00    -0.326 N 
ATOM     11  C   UNL     1       5.931   4.357  -0.913  0.00  0.00    +0.046 C 
ATOM     12  H   UNL     1       4.170   3.792  -0.219  0.00  0.00    +0.148 HD
ENDROOT
BRANCH   1  13
ATOM     13  C   UNL     1       8.117   6.284  -1.764  0.00  0.00    +0.346 C 
ATOM     14  O   UNL     1       8.301   5.135  -2.117  0.00  0.00    -0.244 OA
BRANCH  13  15
ATOM     15  O   UNL     1       9.066   7.217  -1.985  0.00  0.00    -0.461 OA
BRANCH  15  17
ATOM     16  C   UNL     1      11.229   7.967  -2.813  0.00  0.00    +0.048 C 
ATOM     17  C   UNL     1      10.279   6.779  -2.650  0.00  0.00    +0.229 C 
ENDBRANCH  15  17
ENDBRANCH  13  15
ENDBRANCH   1  13
BRANCH   6  18
ATOM     18  C   UNL     1       1.569   8.548   1.768  0.00  0.00    +0.150 C 
BRANCH  18  19
ATOM     19  S   UNL     1       0.361   9.039   0.507  0.00  0.00    -0.117 S 
BRANCH  19  20
ATOM     20  C   UNL     1      -0.875   9.906   1.416  0.00  0.00    +0.008 A 
ATOM     21  C   UNL     1      -0.751  10.056   2.792  0.00  0.00    +0.015 A 
ATOM     22  C   UNL     1      -1.718  10.741   3.500  0.00  0.00    +0.001 A 
ATOM     23  C   UNL     1      -2.816  11.268   2.844  0.00  0.00    +0.000 A 
ATOM     24  C   UNL     1      -2.945  11.115   1.475  0.00  0.00    +0.001 A 
ATOM     25  C   UNL     1      -1.979  10.436   0.760  0.00  0.00    +0.015 A 
ENDBRANCH  19  20
ENDBRANCH  18  19
ENDBRANCH   6  18
BRANCH  10  26
ATOM     26  C   UNL     1       2.288   3.705   0.972  0.00  0.00    +0.132 C 
BRANCH  26  27
ATOM     27  C   UNL     1       2.376   2.200   0.711  0.00  0.00    +0.115 C 
BRANCH  27  28
ATOM     28  O   UNL     1       2.348   1.958  -0.697  0.00  0.00    -0.392 OA
ATOM     29  H   UNL     1       2.402   0.928  -1.079  0.00  0.00    +0.210 HD
ENDBRANCH  27  28
BRANCH  27  30
ATOM     30  C   UNL     1       1.190   1.497   1.374  0.00  0.00    -0.046 C 
BRANCH  30  31
ATOM     31  N   UNL     1       1.221   0.066   1.042  0.00  0.00    +0.378 N 
ATOM     32  C   UNL     1       2.249  -0.634   1.824  0.00  0.00    -0.096 C 
ATOM     33  C   UNL     1      -0.099  -0.548   1.237  0.00  0.00    -0.096 C 
ATOM     34  H   UNL     1       1.484  -0.028  -0.022  0.00  0.00    -0.083 HD
ENDBRANCH  30  31
ENDBRANCH  27  30
ENDBRANCH  26  27
ENDBRANCH  10  26
TORSDOF 11
