REMARK  Name = ZINC15673138
REMARK  8 active torsions:
REMARK  status: ('A' for Active; 'I' for Inactive)
REMARK    1  A    between atoms: C_1  and  C_2
REMARK    2  A    between atoms: C_2  and  C_3
REMARK    3  A    between atoms: C_12  and  C_24
REMARK    4  A    between atoms: C_12  and  C_25
REMARK    5  A    between atoms: N_13  and  C_16
REMARK    6  A    between atoms: C_16  and  C_17
REMARK    7  A    between atoms: C_17  and  N_77
REMARK    8  A    between atoms: N_27  and  C_28
REMARK                            x       y       z     vdW  Elec       q    Type
REMARK                         _______ _______ _______ _____ _____    ______ ____
ROOT
ATOM      1  C   UNL     1       3.314  -5.769   7.345  0.00  0.00    -0.008 A 
ATOM      2  C   UNL     1       2.224  -5.027   7.058  0.00  0.00    +0.037 A 
ATOM      3  C   UNL     1       2.333  -3.906   6.223  0.00  0.00    +0.057 A 
ATOM      4  C   UNL     1       3.621  -3.635   5.736  0.00  0.00    +0.038 A 
ATOM      5  S   UNL     1       4.606  -4.929   6.445  0.00  0.00    -0.092 S 
ATOM      6  C   UNL     1       3.586  -2.502   4.932  0.00  0.00    +0.048 A 
ATOM      7  C   UNL     1       2.295  -2.063   4.914  0.00  0.00    +0.106 A 
ATOM      8  N   UNL     1       1.523  -2.919   5.691  0.00  0.00    -0.333 N 
ATOM      9  C   UNL     1       0.078  -2.732   5.848  0.00  0.00    +0.157 C 
ATOM     10  C   UNL     1      -0.247  -1.240   5.723  0.00  0.00    +0.128 C 
ATOM     11  N   UNL     1       0.409  -0.620   4.578  0.00  0.00    -0.282 N 
ATOM     12  C   UNL     1       1.689  -0.907   4.241  0.00  0.00    +0.264 C 
ATOM     13  O   UNL     1       2.303  -0.243   3.426  0.00  0.00    -0.268 OA
ATOM     14  C   UNL     1      -1.761  -1.075   5.573  0.00  0.00    +0.043 C 
ENDROOT
BRANCH  10  15
ATOM     15  C   UNL     1       0.195  -0.533   6.978  0.00  0.00    +0.238 C 
ATOM     16  O   UNL     1      -0.583  -0.387   7.898  0.00  0.00    -0.273 OA
ATOM     17  N   UNL     1       1.454  -0.063   7.080  0.00  0.00    -0.311 N 
ATOM     18  H   UNL     1       2.075  -0.179   6.344  0.00  0.00    +0.149 HD
BRANCH  17  19
ATOM     19  C   UNL     1       1.883   0.624   8.300  0.00  0.00    +0.073 C 
ATOM     20  C   UNL     1       1.421   2.094   8.235  0.00  0.00    +0.022 C 
ATOM     21  C   UNL     1       1.394   2.650   9.633  0.00  0.00    +0.002 C 
ATOM     22  C   UNL     1       2.701   3.376  10.005  0.00  0.00    +0.000 C 
ATOM     23  C   UNL     1       3.958   2.630   9.518  0.00  0.00    +0.000 C 
ATOM     24  C   UNL     1       3.861   1.143   9.724  0.00  0.00    +0.002 C 
ATOM     25  C   UNL     1       3.328   0.502   8.426  0.00  0.00    +0.022 C 
ENDBRANCH  17  19
ENDBRANCH  10  15
BRANCH   1  27
ATOM     26  C   UNL     1       3.187  -8.245   7.353  0.00  0.00    +0.009 C 
ATOM     27  C   UNL     1       3.415  -6.999   8.210  0.00  0.00    +0.039 C 
ENDBRANCH   1  27
BRANCH  11  28
ATOM     28  C   UNL     1      -0.337   0.347   3.770  0.00  0.00    +0.091 C 
BRANCH  28  29
ATOM     29  C   UNL     1      -1.060  -0.384   2.637  0.00  0.00    -0.060 C 
BRANCH  29  36
ATOM     30  C   UNL     1      -1.902   0.033   0.397  0.00  0.00    -0.079 C 
ATOM     31  C   UNL     1      -3.174  -0.762   0.279  0.00  0.00    -0.019 C 
ATOM     32  C   UNL     1      -4.291   0.166  -0.241  0.00  0.00    -0.002 C 
ATOM     33  C   UNL     1      -4.832   1.020   0.810  0.00  0.00    -0.002 C 
ATOM     34  C   UNL     1      -3.760   1.952   1.414  0.00  0.00    -0.019 C 
ATOM     35  C   UNL     1      -2.923   1.155   2.377  0.00  0.00    -0.079 C 
ATOM     36  N   UNL     1      -1.659   0.630   1.756  0.00  0.00    +0.381 N 
ATOM     37  H   UNL     1      -1.000   1.411   1.654  0.00  0.00    -0.082 HD
ENDBRANCH  29  36
ENDBRANCH  28  29
ENDBRANCH  11  28
TORSDOF 6
