REMARK  Name = ZINC64343504
REMARK  9 active torsions:
REMARK  status: ('A' for Active; 'I' for Inactive)
REMARK    1  A    between atoms: C_1  and  C_2
REMARK    2  A    between atoms: C_2  and  C_4
REMARK    3  A    between atoms: C_2  and  N_11
REMARK    4  A    between atoms: N_9  and  C_10
REMARK    5  A    between atoms: N_11  and  C_12
REMARK    6  A    between atoms: C_12  and  C_13
REMARK    7  A    between atoms: C_13  and  C_15
REMARK    8  A    between atoms: C_13  and  C_21
REMARK    9  A    between atoms: C_29  and  C_31
REMARK                            x       y       z     vdW  Elec       q    Type
REMARK                         _______ _______ _______ _____ _____    ______ ____
ROOT
ATOM      1  C   UNL     1      -3.461  -0.669   1.287  0.00  0.00    +0.031 C 
ENDROOT
BRANCH   1   2
ATOM      2  C   UNL     1      -4.047  -0.505   2.666  0.00  0.00    -0.028 C 
ATOM      3  C   UNL     1      -3.562   0.260   3.670  0.00  0.00    +0.000 A 
ATOM      4  C   UNL     1      -2.388   1.135   3.774  0.00  0.00    +0.010 A 
ATOM      5  C   UNL     1      -2.157   1.786   4.937  0.00  0.00    +0.001 A 
ATOM      6  C   UNL     1      -3.008   1.647   6.042  0.00  0.00    +0.002 A 
ATOM      7  C   UNL     1      -4.106   0.861   6.022  0.00  0.00    +0.026 A 
ATOM      8  C   UNL     1      -4.445   0.130   4.850  0.00  0.00    +0.043 A 
ATOM      9  N   UNL     1      -5.438  -0.684   4.587  0.00  0.00    -0.374 N 
ATOM     10  C   UNL     1      -5.300  -1.159   3.205  0.00  0.00    +0.137 C 
ATOM     11  H   UNL     1      -6.147  -0.929   5.201  0.00  0.00    +0.161 HD
BRANCH  10  12
ATOM     12  C   UNL     1      -5.153  -2.659   3.186  0.00  0.00    -0.021 A 
ATOM     13  C   UNL     1      -4.447  -3.296   4.189  0.00  0.00    +0.006 A 
ATOM     14  C   UNL     1      -4.312  -4.672   4.172  0.00  0.00    +0.000 A 
ATOM     15  C   UNL     1      -4.883  -5.410   3.152  0.00  0.00    +0.000 A 
ATOM     16  C   UNL     1      -5.590  -4.772   2.150  0.00  0.00    +0.000 A 
ATOM     17  C   UNL     1      -5.729  -3.397   2.169  0.00  0.00    +0.006 A 
ENDBRANCH  10  12
ENDBRANCH   1   2
BRANCH   1  18
ATOM     18  C   UNL     1      -4.369  -0.018   0.275  0.00  0.00    -0.042 A 
ATOM     19  C   UNL     1      -4.639   1.335   0.360  0.00  0.00    +0.004 A 
ATOM     20  C   UNL     1      -5.472   1.933  -0.568  0.00  0.00    +0.000 A 
ATOM     21  C   UNL     1      -6.033   1.178  -1.581  0.00  0.00    +0.000 A 
ATOM     22  C   UNL     1      -5.762  -0.175  -1.666  0.00  0.00    +0.000 A 
ATOM     23  C   UNL     1      -4.926  -0.772  -0.740  0.00  0.00    +0.004 A 
ENDBRANCH   1  18
BRANCH   1  24
ATOM     24  C   UNL     1      -2.083  -0.008   1.236  0.00  0.00    -0.069 C 
BRANCH  24  25
ATOM     25  N   UNL     1      -1.449  -0.294  -0.058  0.00  0.00    +0.387 N 
ATOM     26  H   UNL     1      -2.025   0.070  -0.802  0.00  0.00    -0.085 HD
ATOM     27  H   UNL     1      -1.348  -1.292  -0.169  0.00  0.00    -0.085 HD
BRANCH  25  29
ATOM     28  C   UNL     1      -0.288   1.862  -0.063  0.00  0.00    -0.004 C 
ATOM     29  C   UNL     1      -0.126   0.341  -0.106  0.00  0.00    +0.013 C 
BRANCH  29  30
ATOM     30  C   UNL     1       0.574  -0.054  -1.381  0.00  0.00    +0.206 C 
ATOM     31  O   UNL     1       0.025  -0.791  -2.171  0.00  0.00    -0.277 OA
ATOM     32  N   UNL     1       1.811   0.413  -1.643  0.00  0.00    -0.242 N 
ATOM     33  C   UNL     1       2.437   0.060  -2.783  0.00  0.00    +0.306 C 
ATOM     34  O   UNL     1       1.887  -0.679  -3.575  0.00  0.00    -0.252 OA
ATOM     35  N   UNL     1       3.674   0.527  -3.045  0.00  0.00    -0.302 N 
ATOM     36  C   UNL     1       4.355   0.144  -4.285  0.00  0.00    +0.129 C 
ATOM     37  H   UNL     1       2.251   1.003  -1.011  0.00  0.00    +0.159 HD
ATOM     38  H   UNL     1       4.114   1.117  -2.413  0.00  0.00    +0.150 HD
ENDBRANCH  29  30
ENDBRANCH  25  29
ENDBRANCH  24  25
ENDBRANCH   1  24
TORSDOF 7
