REMARK  Name = ZINC20240018
REMARK  14 active torsions:
REMARK  status: ('A' for Active; 'I' for Inactive)
REMARK    1  A    between atoms: C_1  and  C_2
REMARK    2  A    between atoms: C_3  and  S_9
REMARK    3  A    between atoms: C_4  and  C_8
REMARK    4  A    between atoms: S_9  and  N_12
REMARK    5  A    between atoms: N_12  and  C_13
REMARK    6  A    between atoms: N_12  and  C_26
REMARK    7  A    between atoms: C_13  and  C_14
REMARK    8  A    between atoms: N_16  and  C_17
REMARK    9  A    between atoms: C_20  and  C_23
REMARK   10  A    between atoms: C_23  and  C_24
REMARK   11  A    between atoms: C_23  and  C_25
REMARK   12  A    between atoms: C_29  and  C_32
REMARK   13  A    between atoms: C_32  and  C_33
REMARK   14  A    between atoms: C_32  and  C_34
REMARK                            x       y       z     vdW  Elec       q    Type
REMARK                         _______ _______ _______ _____ _____    ______ ____
ROOT
ATOM      1  N   UNL     1       2.740  -0.851   0.711  0.00  0.00    -0.194 N 
ENDROOT
BRANCH   1   2
ATOM      2  C   UNL     1       3.320  -1.413   1.850  0.00  0.00    +0.052 A 
ATOM      3  C   UNL     1       4.466  -2.190   1.737  0.00  0.00    +0.025 A 
ATOM      4  C   UNL     1       5.040  -2.741   2.866  0.00  0.00    +0.006 A 
ATOM      5  C   UNL     1       4.469  -2.528   4.107  0.00  0.00    -0.045 A 
ATOM      6  C   UNL     1       3.325  -1.759   4.223  0.00  0.00    +0.006 A 
ATOM      7  C   UNL     1       2.749  -1.201   3.099  0.00  0.00    +0.025 A 
BRANCH   5   8
ATOM      8  C   UNL     1       5.095  -3.134   5.337  0.00  0.00    +0.013 C 
ATOM      9  C   UNL     1       5.120  -4.658   5.197  0.00  0.00    +0.012 C 
ATOM     10  C   UNL     1       6.525  -2.612   5.491  0.00  0.00    +0.012 C 
ENDBRANCH   5   8
ENDBRANCH   1   2
BRANCH   1  11
ATOM     11  S   UNL     1       2.927  -1.585  -0.762  0.00  0.00    +0.079 S 
ATOM     12  O   UNL     1       2.967  -2.984  -0.516  0.00  0.00    -0.150 OA
ATOM     13  O   UNL     1       1.976  -0.992  -1.635  0.00  0.00    -0.150 OA
BRANCH  11  16
ATOM     14  C   UNL     1       4.012   1.320  -1.845  0.00  0.00    +0.067 C 
ATOM     15  C   UNL     1       4.887   0.094  -1.800  0.00  0.00    +0.060 A 
ATOM     16  C   UNL     1       4.518  -1.134  -1.370  0.00  0.00    +0.151 A 
ATOM     17  C   UNL     1       5.624  -1.982  -1.488  0.00  0.00    +0.087 A 
ATOM     18  N   UNL     1       6.619  -1.290  -1.980  0.00  0.00    -0.177 NA
ATOM     19  N   UNL     1       6.180   0.025  -2.182  0.00  0.00    -0.280 N 
ATOM     20  H   UNL     1       6.688   0.921  -2.569  0.00  0.00    +0.189 HD
ATOM     21  C   UNL     1       5.662  -3.442  -1.116  0.00  0.00    +0.069 C 
ENDBRANCH  11  16
ENDBRANCH   1  11
BRANCH   1  22
ATOM     22  C   UNL     1       1.966   0.388   0.819  0.00  0.00    +0.227 C 
BRANCH  22  23
ATOM     23  C   UNL     1       0.538   0.059   1.172  0.00  0.00    +0.236 C 
ATOM     24  O   UNL     1       0.200  -1.096   1.319  0.00  0.00    -0.274 OA
ATOM     25  N   UNL     1      -0.365   1.049   1.318  0.00  0.00    -0.284 N 
ATOM     26  H   UNL     1      -0.040   2.099   1.284  0.00  0.00    +0.155 HD
BRANCH  25  27
ATOM     27  C   UNL     1      -1.716   0.741   1.514  0.00  0.00    +0.033 A 
ATOM     28  C   UNL     1      -2.271  -0.375   0.902  0.00  0.00    +0.023 A 
ATOM     29  C   UNL     1      -3.603  -0.680   1.102  0.00  0.00    +0.006 A 
ATOM     30  C   UNL     1      -4.386   0.130   1.903  0.00  0.00    -0.045 A 
ATOM     31  C   UNL     1      -3.838   1.245   2.510  0.00  0.00    +0.006 A 
ATOM     32  C   UNL     1      -2.505   1.552   2.318  0.00  0.00    +0.023 A 
BRANCH  30  33
ATOM     33  C   UNL     1      -5.841  -0.203   2.115  0.00  0.00    +0.013 C 
ATOM     34  C   UNL     1      -6.565  -0.204   0.767  0.00  0.00    +0.012 C 
ATOM     35  C   UNL     1      -5.959  -1.586   2.759  0.00  0.00    +0.012 C 
ENDBRANCH  30  33
ENDBRANCH  25  27
ENDBRANCH  22  23
ENDBRANCH   1  22
TORSDOF 8
