REMARK  Name = ZINC33810486
REMARK  8 active torsions:
REMARK  status: ('A' for Active; 'I' for Inactive)
REMARK    1  A    between atoms: C_1  and  C_2
REMARK    2  A    between atoms: C_2  and  C_3
REMARK    3  A    between atoms: C_3  and  S_4
REMARK    4  A    between atoms: S_4  and  C_5
REMARK    5  A    between atoms: C_15  and  C_17
REMARK    6  A    between atoms: C_22  and  N_23
REMARK    7  A    between atoms: C_32  and  C_34
REMARK    8  A    between atoms: C_32  and  C_35
REMARK                            x       y       z     vdW  Elec       q    Type
REMARK                         _______ _______ _______ _____ _____    ______ ____
ROOT
ATOM      1  C   UNL     1      -0.191   0.068  -4.228  0.00  0.00    +0.171 A 
ATOM      2  N   UNL     1       0.624   0.533  -5.152  0.00  0.00    -0.185 NA
ATOM      3  C   UNL     1       1.556  -0.255  -5.711  0.00  0.00    +0.280 A 
ATOM      4  O   UNL     1       2.306   0.192  -6.566  0.00  0.00    -0.265 OA
ATOM      5  C   UNL     1       1.664  -1.603  -5.305  0.00  0.00    +0.069 A 
ATOM      6  C   UNL     1       0.819  -2.070  -4.347  0.00  0.00    +0.111 A 
ATOM      7  N   UNL     1      -0.112  -1.224  -3.803  0.00  0.00    -0.322 N 
ATOM      8  N   UNL     1       0.906  -3.375  -3.923  0.00  0.00    -0.304 N 
ATOM      9  C   UNL     1       2.039  -4.109  -4.147  0.00  0.00    +0.017 C 
ATOM     10  C   UNL     1       2.929  -3.729  -5.089  0.00  0.00    +0.024 C 
ATOM     11  C   UNL     1       2.693  -2.498  -5.928  0.00  0.00    +0.095 C 
ATOM     12  C   UNL     1       4.103  -4.469  -5.316  0.00  0.00    +0.162 C 
ATOM     13  O   UNL     1       4.880  -4.104  -6.176  0.00  0.00    -0.292 OA
ATOM     14  C   UNL     1       4.415  -5.702  -4.514  0.00  0.00    +0.086 C 
ATOM     15  C   UNL     1       3.766  -5.577  -3.132  0.00  0.00    -0.023 C 
ATOM     16  C   UNL     1       2.265  -5.351  -3.321  0.00  0.00    +0.058 C 
ATOM     17  C   UNL     1       4.375  -4.390  -2.384  0.00  0.00    +0.011 C 
ATOM     18  C   UNL     1       3.996  -6.864  -2.337  0.00  0.00    +0.011 C 
ATOM     19  H   UNL     1       0.156  -3.781  -3.460  0.00  0.00    +0.153 HD
ATOM     20  H   UNL     1      -0.718  -1.546  -3.118  0.00  0.00    +0.169 HD
ENDROOT
BRANCH  11  21
ATOM     21  C   UNL     1       2.220  -2.917  -7.296  0.00  0.00    -0.001 A 
ATOM     22  C   UNL     1       1.099  -3.716  -7.424  0.00  0.00    +0.056 A 
ATOM     23  C   UNL     1       0.663  -4.102  -8.681  0.00  0.00    +0.167 A 
ATOM     24  C   UNL     1       1.355  -3.682  -9.814  0.00  0.00    +0.168 A 
ATOM     25  C   UNL     1       2.477  -2.881  -9.679  0.00  0.00    +0.082 A 
ATOM     26  C   UNL     1       2.904  -2.495  -8.421  0.00  0.00    +0.134 A 
ATOM     27  O   UNL     1       0.734  -4.190 -10.918  0.00  0.00    -0.453 OA
ATOM     28  C   UNL     1      -0.102  -5.257 -10.432  0.00  0.00    +0.466 C 
ATOM     29  O   UNL     1      -0.393  -4.873  -9.075  0.00  0.00    -0.453 OA
BRANCH  26  30
ATOM     30  N   UNL     1       4.099  -1.634  -8.279  0.00  0.00    +0.057 N 
ATOM     31  O   UNL     1       4.271  -0.709  -9.038  0.00  0.00    -0.126 OA
ATOM     32  O   UNL     1       4.904  -1.856  -7.404  0.00  0.00    -0.126 OA
ENDBRANCH  26  30
ENDBRANCH  11  21
BRANCH   1  33
ATOM     33  S   UNL     1      -1.401   1.139  -3.523  0.00  0.00    -0.088 S 
BRANCH  33  34
ATOM     34  C   UNL     1      -1.138   2.719  -4.375  0.00  0.00    +0.077 C 
BRANCH  34  36
ATOM     35  C   UNL     1      -1.914   5.085  -4.569  0.00  0.00    +0.004 C 
ATOM     36  C   UNL     1      -2.136   3.753  -3.851  0.00  0.00    +0.008 C 
ENDBRANCH  34  36
ENDBRANCH  33  34
ENDBRANCH   1  33
TORSDOF 5
