REMARK  Name = ZINC05961457
REMARK  5 active torsions:
REMARK  status: ('A' for Active; 'I' for Inactive)
REMARK    1  A    between atoms: C_1  and  C_2
REMARK    2  A    between atoms: C_2  and  C_3
REMARK    3  A    between atoms: C_8  and  O_9
REMARK    4  A    between atoms: C_11  and  C_24
REMARK    5  A    between atoms: C_12  and  C_15
REMARK                            x       y       z     vdW  Elec       q    Type
REMARK                         _______ _______ _______ _____ _____    ______ ____
ROOT
ATOM      1  C   UNL     1      -0.742   1.585  -1.213  0.00  0.00    -0.005 A 
ATOM      2  C   UNL     1      -0.272   2.678  -1.885  0.00  0.00    +0.022 A 
ATOM      3  C   UNL     1      -0.949   3.138  -3.015  0.00  0.00    +0.065 A 
ATOM      4  C   UNL     1      -2.110   2.484  -3.465  0.00  0.00    +0.143 A 
ATOM      5  C   UNL     1      -2.573   1.375  -2.770  0.00  0.00    +0.092 A 
ATOM      6  C   UNL     1      -1.887   0.927  -1.654  0.00  0.00    +0.124 A 
ATOM      7  O   UNL     1      -2.762   2.931  -4.557  0.00  0.00    -0.450 OA
ATOM      8  C   UNL     1      -2.365   3.992  -5.265  0.00  0.00    +0.219 A 
ATOM      9  C   UNL     1      -1.262   4.715  -4.943  0.00  0.00    +0.077 A 
ATOM     10  C   UNL     1      -0.472   4.314  -3.766  0.00  0.00    +0.201 A 
ATOM     11  O   UNL     1       0.527   4.925  -3.429  0.00  0.00    -0.286 OA
ENDROOT
BRANCH   9  12
ATOM     12  C   UNL     1      -0.860   5.885  -5.760  0.00  0.00    -0.007 A 
ATOM     13  C   UNL     1      -0.454   5.708  -7.081  0.00  0.00    +0.012 A 
ATOM     14  C   UNL     1      -0.084   6.798  -7.842  0.00  0.00    +0.050 A 
ATOM     15  C   UNL     1      -0.106   8.071  -7.293  0.00  0.00    +0.166 A 
ATOM     16  C   UNL     1      -0.506   8.254  -5.971  0.00  0.00    +0.167 A 
ATOM     17  C   UNL     1      -0.882   7.164  -5.206  0.00  0.00    +0.058 A 
ATOM     18  O   UNL     1      -0.440   9.585  -5.675  0.00  0.00    -0.453 OA
ATOM     19  C   UNL     1      -0.388  10.259  -6.946  0.00  0.00    +0.466 C 
ATOM     20  O   UNL     1       0.211   9.289  -7.824  0.00  0.00    -0.453 OA
ENDBRANCH   9  12
BRANCH   8  21
ATOM     21  C   UNL     1      -3.174   4.402  -6.469  0.00  0.00    +0.451 C 
ATOM     22  F   UNL     1      -2.687   3.744  -7.604  0.00  0.00    -0.163 F 
ATOM     23  F   UNL     1      -4.515   4.057  -6.270  0.00  0.00    -0.163 F 
ATOM     24  F   UNL     1      -3.070   5.785  -6.651  0.00  0.00    -0.163 F 
ENDBRANCH   8  21
BRANCH   1  26
ATOM     25  C   UNL     1      -0.729   1.579   1.267  0.00  0.00    +0.009 C 
ATOM     26  C   UNL     1      -0.013   1.086   0.008  0.00  0.00    +0.035 C 
ENDBRANCH   1  26
BRANCH   6  27
ATOM     27  O   UNL     1      -2.340  -0.161  -0.979  0.00  0.00    -0.506 OA
ATOM     28  H   UNL     1      -3.244  -0.685  -1.323  0.00  0.00    +0.292 HD
ENDBRANCH   6  27
TORSDOF 4
