REMARK  Name = ZINC66615333
REMARK  4 active torsions:
REMARK  status: ('A' for Active; 'I' for Inactive)
REMARK    1  A    between atoms: C_1  and  O_2
REMARK    2  A    between atoms: O_2  and  C_3
REMARK    3  A    between atoms: C_9  and  C_11
REMARK    4  A    between atoms: C_16  and  C_19
REMARK                            x       y       z     vdW  Elec       q    Type
REMARK                         _______ _______ _______ _____ _____    ______ ____
ROOT
ATOM      1  C   UNL     1      -3.278  -2.503  -1.228  0.00  0.00    +0.236 C 
ATOM      2  O   UNL     1      -2.754  -1.981  -2.189  0.00  0.00    -0.274 OA
ATOM      3  N   UNL     1      -4.586  -2.827  -1.267  0.00  0.00    -0.296 N 
ATOM      4  C   UNL     1      -5.404  -2.567  -2.465  0.00  0.00    +0.113 C 
ATOM      5  C   UNL     1      -5.902  -3.913  -2.997  0.00  0.00    +0.054 C 
ATOM      6  C   UNL     1      -6.424  -4.759  -1.874  0.00  0.00    -0.039 C 
ATOM      7  C   UNL     1      -6.136  -4.569  -0.608  0.00  0.00    -0.004 C 
ATOM      8  C   UNL     1      -5.251  -3.461  -0.120  0.00  0.00    +0.135 C 
ENDROOT
BRANCH   6   9
ATOM      9  C   UNL     1      -7.320  -5.881  -2.216  0.00  0.00    +0.003 A 
ATOM     10  C   UNL     1      -8.623  -5.793  -2.589  0.00  0.00    +0.091 A 
ATOM     11  N   UNL     1      -9.119  -7.043  -2.824  0.00  0.00    -0.360 N 
ATOM     12  H   UNL     1     -10.028  -7.236  -3.103  0.00  0.00    +0.165 HD
ATOM     13  C   UNL     1      -8.143  -7.992  -2.608  0.00  0.00    +0.050 A 
ATOM     14  C   UNL     1      -6.974  -7.313  -2.224  0.00  0.00    +0.007 A 
ATOM     15  C   UNL     1      -5.811  -8.028  -1.944  0.00  0.00    +0.013 A 
ATOM     16  C   UNL     1      -5.812  -9.401  -2.048  0.00  0.00    +0.039 A 
ATOM     17  C   UNL     1      -6.966 -10.074  -2.430  0.00  0.00    +0.125 A 
ATOM     18  C   UNL     1      -8.127  -9.380  -2.703  0.00  0.00    +0.064 A 
ATOM     19  F   UNL     1      -6.954 -11.421  -2.529  0.00  0.00    -0.205 F 
ENDBRANCH   6   9
BRANCH   1  26
ATOM     20  C   UNL     1      -1.189  -0.632   0.010  0.00  0.00    +0.403 C 
ATOM     21  O   UNL     1      -2.217   0.016   0.023  0.00  0.00    -0.226 OA
ATOM     22  N   UNL     1      -1.241  -1.978   0.003  0.00  0.00    -0.256 N 
ATOM     23  C   UNL     1      -0.078  -2.883  -0.006  0.00  0.00    +0.112 C 
ATOM     24  C   UNL     1      -0.601  -4.208   0.602  0.00  0.00    +0.021 C 
ATOM     25  C   UNL     1      -2.039  -4.270   0.024  0.00  0.00    +0.033 C 
ATOM     26  C   UNL     1      -2.468  -2.788   0.011  0.00  0.00    +0.165 C 
BRANCH  20  28
ATOM     27  C   UNL     1      -0.017   1.425   0.010  0.00  0.00    +0.282 C 
ATOM     28  O   UNL     1       0.002  -0.004   0.002  0.00  0.00    -0.454 OA
ENDBRANCH  20  28
ENDBRANCH   1  26
TORSDOF 3
