REMARK  Name = ZINC39711231
REMARK  10 active torsions:
REMARK  status: ('A' for Active; 'I' for Inactive)
REMARK    1  A    between atoms: C_1  and  C_2
REMARK    2  A    between atoms: C_6  and  C_15
REMARK    3  A    between atoms: C_13  and  C_14
REMARK    4  A    between atoms: C_15  and  C_17
REMARK    5  A    between atoms: C_15  and  N_29
REMARK    6  A    between atoms: N_22  and  C_23
REMARK    7  A    between atoms: N_29  and  C_30
REMARK    8  A    between atoms: N_29  and  C_37
REMARK    9  A    between atoms: C_30  and  C_31
REMARK   10  A    between atoms: C_37  and  C_38
REMARK                            x       y       z     vdW  Elec       q    Type
REMARK                         _______ _______ _______ _____ _____    ______ ____
ROOT
ATOM      1  C   UNL     1      -1.733  -5.638  -2.499  0.00  0.00    -0.008 C 
ENDROOT
BRANCH   1   7
ATOM      2  C   UNL     1      -0.968   0.493   1.083  0.00  0.00    +0.044 C 
ATOM      3  C   UNL     1      -0.729  -0.979   0.868  0.00  0.00    -0.047 A 
ATOM      4  C   UNL     1      -0.857  -1.497  -0.381  0.00  0.00    +0.013 A 
ATOM      5  C   UNL     1      -0.622  -2.928  -0.578  0.00  0.00    -0.007 A 
ATOM      6  C   UNL     1      -0.739  -3.493  -1.813  0.00  0.00    -0.006 C 
ATOM      7  C   UNL     1      -0.476  -4.982  -1.925  0.00  0.00    +0.088 C 
ATOM      8  C   UNL     1      -0.106  -5.719  -0.658  0.00  0.00    +0.223 C 
ATOM      9  O   UNL     1       0.116  -6.915  -0.690  0.00  0.00    -0.275 OA
ATOM     10  N   UNL     1      -0.024  -5.059   0.485  0.00  0.00    -0.285 N 
ATOM     11  C   UNL     1      -0.254  -3.750   0.588  0.00  0.00    +0.041 A 
ATOM     12  C   UNL     1      -0.147  -3.114   1.838  0.00  0.00    +0.027 A 
ATOM     13  C   UNL     1      -0.374  -1.779   1.954  0.00  0.00    -0.046 A 
ATOM     14  C   UNL     1      -0.242  -1.138   3.312  0.00  0.00    +0.044 C 
ATOM     15  H   UNL     1       0.215  -5.551   1.287  0.00  0.00    +0.155 HD
ENDBRANCH   1   7
BRANCH   1  16
ATOM     16  C   UNL     1      -2.086  -4.983  -3.836  0.00  0.00    +0.205 C 
ATOM     17  N   UNL     1      -0.867  -4.708  -4.609  0.00  0.00    -0.152 NA
ATOM     18  N   UNL     1      -0.780  -3.493  -4.798  0.00  0.00    -0.070 NA
ATOM     19  N   UNL     1      -1.837  -2.780  -4.233  0.00  0.00    -0.179 N 
ATOM     20  N   UNL     1      -2.695  -3.655  -3.615  0.00  0.00    -0.185 NA
ATOM     21  H   UNL     1      -1.949  -1.817  -4.272  0.00  0.00    +0.191 HD
BRANCH  20  22
ATOM     22  C   UNL     1      -4.038  -3.587  -4.207  0.00  0.00    +0.080 C 
ATOM     23  C   UNL     1      -3.930  -3.692  -5.729  0.00  0.00    +0.021 C 
ATOM     24  C   UNL     1      -5.328  -3.621  -6.346  0.00  0.00    +0.002 C 
ATOM     25  C   UNL     1      -5.984  -2.290  -5.972  0.00  0.00    +0.000 C 
ATOM     26  C   UNL     1      -6.091  -2.184  -4.449  0.00  0.00    +0.002 C 
ATOM     27  C   UNL     1      -4.693  -2.256  -3.833  0.00  0.00    +0.021 C 
ENDBRANCH  20  22
ENDBRANCH   1  16
BRANCH   1  28
ATOM     28  N   UNL     1      -1.486  -7.072  -2.706  0.00  0.00    +0.392 N 
ATOM     29  H   UNL     1      -1.107  -7.473  -1.862  0.00  0.00    -0.080 HD
BRANCH  28  30
ATOM     30  C   UNL     1      -0.528  -7.249  -3.806  0.00  0.00    -0.040 C 
BRANCH  30  31
ATOM     31  C   UNL     1       0.876  -7.121  -3.274  0.00  0.00    -0.046 A 
ATOM     32  C   UNL     1       1.670  -6.045  -3.639  0.00  0.00    +0.005 A 
ATOM     33  C   UNL     1       2.955  -5.968  -3.126  0.00  0.00    +0.020 A 
ATOM     34  C   UNL     1       3.400  -6.961  -2.273  0.00  0.00    +0.111 A 
ATOM     35  N   UNL     1       2.618  -7.971  -1.948  0.00  0.00    -0.263 NA
ATOM     36  C   UNL     1       1.387  -8.073  -2.412  0.00  0.00    +0.112 A 
ENDBRANCH  30  31
ENDBRANCH  28  30
BRANCH  28  37
ATOM     37  C   UNL     1      -2.748  -7.743  -3.043  0.00  0.00    -0.002 C 
BRANCH  37  38
ATOM     38  C   UNL     1      -3.684  -7.675  -1.864  0.00  0.00    +0.089 A 
ATOM     39  C   UNL     1      -4.648  -6.755  -1.676  0.00  0.00    +0.042 A 
ATOM     40  C   UNL     1      -5.278  -7.067  -0.449  0.00  0.00    +0.041 A 
ATOM     41  C   UNL     1      -4.661  -8.158   0.040  0.00  0.00    +0.195 A 
ATOM     42  O   UNL     1      -3.700  -8.525  -0.824  0.00  0.00    -0.470 OA
ENDBRANCH  37  38
ENDBRANCH  28  37
ENDBRANCH   1  28
TORSDOF 8
