REMARK  Name = ZINC22238401
REMARK  7 active torsions:
REMARK  status: ('A' for Active; 'I' for Inactive)
REMARK    1  A    between atoms: C_2  and  C_26
REMARK    2  A    between atoms: N_6  and  C_7
REMARK    3  A    between atoms: C_7  and  C_9
REMARK    4  A    between atoms: C_9  and  S_10
REMARK    5  A    between atoms: S_10  and  C_11
REMARK    6  A    between atoms: C_11  and  C_12
REMARK    7  A    between atoms: C_26  and  N_27
REMARK                            x       y       z     vdW  Elec       q    Type
REMARK                         _______ _______ _______ _____ _____    ______ ____
ROOT
ATOM      1  C   UNL     1       1.691  -2.541  -0.028  0.00  0.00    +0.248 C 
ATOM      2  O   UNL     1       0.474  -2.551  -0.016  0.00  0.00    -0.273 OA
ENDROOT
BRANCH   1   8
ATOM      3  C   UNL     1      -0.022   1.779   0.012  0.00  0.00    +0.067 A 
ATOM      4  C   UNL     1       1.283   2.074   0.001  0.00  0.00    +0.008 A 
ATOM      5  N   UNL     1       2.157   1.033  -0.013  0.00  0.00    -0.341 N 
ATOM      6  C   UNL     1       1.667  -0.236  -0.015  0.00  0.00    +0.163 A 
ATOM      7  S   UNL     1       0.002  -0.004   0.002  0.00  0.00    -0.061 S 
ATOM      8  N   UNL     1       2.344  -1.386  -0.028  0.00  0.00    -0.156 NA
ATOM      9  H   UNL     1       3.114   1.192  -0.022  0.00  0.00    +0.167 HD
BRANCH   4  10
ATOM     10  C   UNL     1       1.764   3.502   0.004  0.00  0.00    -0.024 C 
BRANCH  10  11
ATOM     11  N   UNL     1       2.487   3.773   1.253  0.00  0.00    +0.383 N 
ATOM     12  C   UNL     1       1.560   3.664   2.386  0.00  0.00    -0.078 C 
ATOM     13  C   UNL     1       2.325   3.865   3.696  0.00  0.00    -0.019 C 
ATOM     14  C   UNL     1       2.972   5.253   3.695  0.00  0.00    -0.004 C 
ATOM     15  C   UNL     1       3.879   5.382   2.468  0.00  0.00    -0.019 C 
ATOM     16  C   UNL     1       3.057   5.125   1.204  0.00  0.00    -0.078 C 
ATOM     17  H   UNL     1       3.230   3.099   1.363  0.00  0.00    -0.081 HD
ENDBRANCH  10  11
ENDBRANCH   4  10
ENDBRANCH   1   8
BRANCH   1  18
ATOM     18  C   UNL     1       2.455  -3.840  -0.043  0.00  0.00    +0.167 C 
BRANCH  18  19
ATOM     19  S   UNL     1       1.288  -5.228  -0.039  0.00  0.00    -0.144 S 
BRANCH  19  20
ATOM     20  C   UNL     1       2.353  -6.697  -0.057  0.00  0.00    +0.143 C 
BRANCH  20  21
ATOM     21  C   UNL     1       1.497  -7.937  -0.056  0.00  0.00    +0.121 A 
ATOM     22  N   UNL     1       2.093  -9.157  -0.063  0.00  0.00    -0.310 N 
ATOM     23  H   UNL     1       3.062  -9.213  -0.068  0.00  0.00    +0.170 HD
ATOM     24  C   UNL     1       1.367 -10.291  -0.062  0.00  0.00    +0.260 A 
ATOM     25  O   UNL     1       1.916 -11.380  -0.068  0.00  0.00    -0.267 OA
ATOM     26  C   UNL     1      -0.062 -10.195  -0.053  0.00  0.00    +0.075 A 
ATOM     27  C   UNL     1      -1.045 -11.288  -0.050  0.00  0.00    -0.023 A 
ATOM     28  C   UNL     1      -2.343 -10.939  -0.043  0.00  0.00    -0.004 A 
ATOM     29  S   UNL     1      -2.340  -9.160  -0.036  0.00  0.00    -0.073 S 
ATOM     30  C   UNL     1      -0.586  -8.895  -0.046  0.00  0.00    +0.116 A 
ATOM     31  N   UNL     1       0.196  -7.819  -0.042  0.00  0.00    -0.226 NA
ATOM     32  C   UNL     1      -3.254 -12.136  -0.046  0.00  0.00    +0.043 C 
ATOM     33  C   UNL     1      -2.353 -13.309  -0.491  0.00  0.00    +0.010 C 
ATOM     34  C   UNL     1      -0.960 -12.817  -0.051  0.00  0.00    +0.037 C 
ENDBRANCH  20  21
ENDBRANCH  19  20
ENDBRANCH  18  19
ENDBRANCH   1  18
TORSDOF 7
