REMARK  Name = ZINC32926223
REMARK  9 active torsions:
REMARK  status: ('A' for Active; 'I' for Inactive)
REMARK    1  A    between atoms: C_1  and  C_2
REMARK    2  A    between atoms: C_2  and  C_3
REMARK    3  A    between atoms: C_3  and  C_4
REMARK    4  A    between atoms: C_4  and  S_5
REMARK    5  A    between atoms: S_5  and  N_8
REMARK    6  A    between atoms: N_8  and  C_9
REMARK    7  A    between atoms: C_13  and  N_15
REMARK    8  A    between atoms: N_15  and  S_16
REMARK    9  A    between atoms: S_16  and  C_19
REMARK                            x       y       z     vdW  Elec       q    Type
REMARK                         _______ _______ _______ _____ _____    ______ ____
ROOT
ATOM      1  N   UNL     1      -4.610   0.792  -1.632  0.00  0.00    -0.215 N 
ATOM      2  H   UNL     1      -5.321   1.389  -2.222  0.00  0.00    +0.174 HD
ENDROOT
BRANCH   1   7
ATOM      3  C   UNL     1      -1.501   1.536   0.191  0.00  0.00    +0.050 A 
ATOM      4  C   UNL     1      -1.867   2.693   0.868  0.00  0.00    +0.026 A 
ATOM      5  C   UNL     1      -3.135   3.219   0.706  0.00  0.00    +0.024 A 
ATOM      6  C   UNL     1      -4.047   2.589  -0.120  0.00  0.00    +0.063 A 
ATOM      7  C   UNL     1      -3.688   1.428  -0.796  0.00  0.00    +0.068 A 
ATOM      8  C   UNL     1      -2.414   0.902  -0.640  0.00  0.00    +0.050 A 
ATOM      9 CL   UNL     1      -5.641   3.248  -0.315  0.00  0.00    -0.082 Cl
BRANCH   3  10
ATOM     10  N   UNL     1      -0.217   1.009   0.351  0.00  0.00    -0.221 N 
ATOM     11  H   UNL     1      -0.082  -0.070   0.513  0.00  0.00    +0.173 HD
BRANCH  10  12
ATOM     12  S   UNL     1       1.101   2.010   0.297  0.00  0.00    +0.043 S 
ATOM     13  O   UNL     1       0.814   3.040   1.233  0.00  0.00    -0.155 OA
ATOM     14  O   UNL     1       2.217   1.150   0.486  0.00  0.00    -0.155 OA
BRANCH  12  15
ATOM     15  C   UNL     1       1.108   2.681  -1.388  0.00  0.00    +0.188 C 
BRANCH  15  16
ATOM     16  C   UNL     1       2.364   3.531  -1.593  0.00  0.00    +0.024 C 
BRANCH  16  18
ATOM     17  C   UNL     1       3.625   4.948  -3.220  0.00  0.00    +0.004 C 
ATOM     18  C   UNL     1       2.369   4.098  -3.015  0.00  0.00    -0.002 C 
ENDBRANCH  16  18
ENDBRANCH  15  16
ENDBRANCH  12  15
ENDBRANCH  10  12
ENDBRANCH   3  10
ENDBRANCH   1   7
BRANCH   1  19
ATOM     19  S   UNL     1      -4.632  -0.861  -1.735  0.00  0.00    +0.072 S 
ATOM     20  O   UNL     1      -5.745  -1.202  -2.550  0.00  0.00    -0.150 OA
ATOM     21  O   UNL     1      -3.306  -1.266  -2.047  0.00  0.00    -0.150 OA
BRANCH  19  22
ATOM     22  C   UNL     1      -4.981  -1.478  -0.122  0.00  0.00    +0.109 A 
ATOM     23  C   UNL     1      -3.943  -1.756   0.750  0.00  0.00    +0.030 A 
ATOM     24  C   UNL     1      -4.213  -2.237   2.016  0.00  0.00    +0.025 A 
ATOM     25  C   UNL     1      -5.527  -2.449   2.410  0.00  0.00    +0.037 A 
ATOM     26  C   UNL     1      -6.566  -2.174   1.531  0.00  0.00    -0.024 A 
ATOM     27  C   UNL     1      -6.291  -1.689   0.268  0.00  0.00    +0.034 A 
ATOM     28  C   UNL     1      -7.992  -2.404   1.960  0.00  0.00    +0.046 C 
ATOM     29  C   UNL     1      -8.057  -3.614   2.893  0.00  0.00    +0.101 C 
ATOM     30  C   UNL     1      -7.003  -3.493   3.961  0.00  0.00    +0.218 C 
ATOM     31  O   UNL     1      -7.236  -3.900   5.080  0.00  0.00    -0.275 OA
ATOM     32  N   UNL     1      -5.807  -2.940   3.689  0.00  0.00    -0.285 N 
ATOM     33  H   UNL     1      -5.047  -2.875   4.482  0.00  0.00    +0.155 HD
ENDBRANCH  19  22
ENDBRANCH   1  19
TORSDOF 8
