REMARK  Name = ZINC40155524
REMARK  10 active torsions:
REMARK  status: ('A' for Active; 'I' for Inactive)
REMARK    1  A    between atoms: C_1  and  C_2
REMARK    2  A    between atoms: C_2  and  C_3
REMARK    3  A    between atoms: C_2  and  C_4
REMARK    4  A    between atoms: C_2  and  C_5
REMARK    5  A    between atoms: C_5  and  C_7
REMARK    6  A    between atoms: C_5  and  N_12
REMARK    7  A    between atoms: N_12  and  C_13
REMARK    8  A    between atoms: C_13  and  N_14
REMARK    9  A    between atoms: N_26  and  C_29
REMARK   10  A    between atoms: C_29  and  C_30
REMARK                            x       y       z     vdW  Elec       q    Type
REMARK                         _______ _______ _______ _____ _____    ______ ____
ROOT
ATOM      1  N   UNL     1      -1.250  -3.382  -1.020  0.00  0.00    -0.256 N 
ATOM      2  C   UNL     1      -1.529  -4.206  -2.049  0.00  0.00    +0.182 A 
ATOM      3  S   UNL     1      -1.675  -3.755  -3.694  0.00  0.00    -0.011 S 
ATOM      4  N   UNL     1      -1.673  -5.451  -1.548  0.00  0.00    -0.257 N 
ATOM      5  C   UNL     1      -1.963  -6.662  -2.173  0.00  0.00    +0.064 A 
ATOM      6  C   UNL     1      -2.159  -6.729  -3.544  0.00  0.00    +0.027 A 
ATOM      7  C   UNL     1      -2.445  -7.942  -4.139  0.00  0.00    +0.002 A 
ATOM      8  C   UNL     1      -2.538  -9.096  -3.378  0.00  0.00    +0.001 A 
ATOM      9  C   UNL     1      -2.347  -9.048  -2.013  0.00  0.00    +0.015 A 
ATOM     10  C   UNL     1      -2.057  -7.830  -1.401  0.00  0.00    +0.064 A 
ATOM     11  C   UNL     1      -1.845  -7.738   0.055  0.00  0.00    +0.263 A 
ATOM     12  O   UNL     1      -1.919  -8.731   0.754  0.00  0.00    -0.267 OA
ATOM     13  N   UNL     1      -1.567  -6.537   0.600  0.00  0.00    -0.273 N 
ATOM     14  C   UNL     1      -1.480  -5.396  -0.186  0.00  0.00    +0.238 A 
ATOM     15  N   UNL     1      -1.219  -4.160   0.144  0.00  0.00    -0.133 NA
ENDROOT
BRANCH   1  16
ATOM     16  C   UNL     1      -1.017  -1.938  -1.103  0.00  0.00    +0.069 C 
BRANCH  16  17
ATOM     17  N   UNL     1       0.420  -1.665  -0.960  0.00  0.00    +0.397 N 
ATOM     18  H   UNL     1       0.917  -2.061  -1.744  0.00  0.00    -0.082 HD
ATOM     19  H   UNL     1       0.757  -2.080  -0.104  0.00  0.00    -0.082 HD
BRANCH  17  20
ATOM     20  C   UNL     1       0.641  -0.213  -0.921  0.00  0.00    -0.026 C 
BRANCH  20  21
ATOM     21  C   UNL     1       0.273   0.386  -2.254  0.00  0.00    -0.024 A 
ATOM     22  C   UNL     1      -0.366   1.552  -2.518  0.00  0.00    +0.009 A 
ATOM     23  C   UNL     1      -0.600   1.905  -3.834  0.00  0.00    +0.008 A 
ATOM     24  C   UNL     1      -0.181   1.076  -4.822  0.00  0.00    +0.045 A 
ATOM     25  S   UNL     1       0.574  -0.250  -3.895  0.00  0.00    -0.103 S 
ENDBRANCH  20  21
BRANCH  20  27
ATOM     26  C   UNL     1       2.366   1.578  -0.679  0.00  0.00    +0.009 C 
ATOM     27  C   UNL     1       2.115   0.070  -0.624  0.00  0.00    -0.046 C 
ATOM     28  C   UNL     1       2.989  -0.631  -1.666  0.00  0.00    +0.009 C 
ATOM     29  C   UNL     1       2.464  -0.454   0.770  0.00  0.00    +0.009 C 
ENDBRANCH  20  27
ENDBRANCH  17  20
ENDBRANCH  16  17
ENDBRANCH   1  16
BRANCH  13  30
ATOM     30  C   UNL     1      -1.355  -6.433   2.046  0.00  0.00    +0.155 C 
BRANCH  30  31
ATOM     31  C   UNL     1       0.107  -6.634   2.354  0.00  0.00    -0.013 C 
ATOM     32  C   UNL     1       0.763  -5.727   3.036  0.00  0.00    +0.005 C 
ENDBRANCH  30  31
ENDBRANCH  13  30
TORSDOF 7
