REMARK  Name = ZINC21077725
REMARK  7 active torsions:
REMARK  status: ('A' for Active; 'I' for Inactive)
REMARK    1  A    between atoms: C_5  and  C_7
REMARK    2  A    between atoms: N_8  and  N_9
REMARK    3  A    between atoms: C_12  and  S_15
REMARK    4  A    between atoms: S_15  and  C_16
REMARK    5  A    between atoms: C_16  and  C_17
REMARK    6  A    between atoms: C_17  and  C_18
REMARK    7  A    between atoms: N_20  and  C_21
REMARK                            x       y       z     vdW  Elec       q    Type
REMARK                         _______ _______ _______ _____ _____    ______ ____
ROOT
ATOM      1  N   UNL     1       0.814   0.518  -6.242  0.00  0.00    -0.205 N 
ATOM      2  C   UNL     1       0.732   0.574  -4.858  0.00  0.00    +0.232 A 
ATOM      3  N   UNL     1      -0.220   1.238  -4.135  0.00  0.00    -0.186 NA
ATOM      4  C   UNL     1       0.049   1.049  -2.809  0.00  0.00    +0.210 A 
ATOM      5  N   UNL     1       1.125   0.305  -2.715  0.00  0.00    -0.144 NA
ATOM      6  N   UNL     1       1.554  -0.000  -4.013  0.00  0.00    -0.245 N 
ATOM      7  H   UNL     1       0.067   1.040  -6.858  0.00  0.00    +0.177 HD
ATOM      8  H   UNL     1       2.401  -0.595  -4.388  0.00  0.00    +0.192 HD
ENDROOT
BRANCH   1  10
ATOM      9  C   UNL     1       1.924  -0.255  -8.149  0.00  0.00    +0.139 C 
ATOM     10  N   UNL     1       1.848  -0.203  -6.854  0.00  0.00    -0.188 NA
BRANCH   9  15
ATOM     11  C   UNL     1       4.118  -1.784 -10.782  0.00  0.00    +0.001 A 
ATOM     12  C   UNL     1       5.056  -2.439 -10.004  0.00  0.00    +0.001 A 
ATOM     13  C   UNL     1       4.979  -2.385  -8.623  0.00  0.00    +0.020 A 
ATOM     14  C   UNL     1       3.963  -1.677  -8.013  0.00  0.00    +0.050 A 
ATOM     15  C   UNL     1       3.012  -1.013  -8.793  0.00  0.00    +0.013 A 
ATOM     16  C   UNL     1       3.095  -1.077 -10.186  0.00  0.00    +0.011 A 
ATOM     17 CL   UNL     1       3.868  -1.611  -6.280  0.00  0.00    -0.083 Cl
ENDBRANCH   9  15
ENDBRANCH   1  10
BRANCH   4  18
ATOM     18  S   UNL     1      -0.883   1.698  -1.462  0.00  0.00    -0.084 S 
BRANCH  18  19
ATOM     19  C   UNL     1      -0.011   1.088   0.008  0.00  0.00    +0.086 C 
BRANCH  19  20
ATOM     20  C   UNL     1      -0.725   1.585   1.267  0.00  0.00    +0.107 C 
BRANCH  20  21
ATOM     21  C   UNL     1      -0.001   1.079   2.488  0.00  0.00    +0.218 C 
ATOM     22  O   UNL     1       0.988   0.388   2.363  0.00  0.00    -0.275 OA
ATOM     23  N   UNL     1      -0.453   1.393   3.718  0.00  0.00    -0.285 N 
ATOM     24  H   UNL     1      -1.304   2.080   3.832  0.00  0.00    +0.155 HD
BRANCH  23  25
ATOM     25  C   UNL     1       0.161   0.844   4.850  0.00  0.00    +0.033 A 
ATOM     26  C   UNL     1      -0.599   0.529   5.969  0.00  0.00    +0.024 A 
ATOM     27  C   UNL     1       0.008  -0.017   7.083  0.00  0.00    +0.017 A 
ATOM     28  C   UNL     1       1.374  -0.239   7.088  0.00  0.00    +0.018 A 
ATOM     29  C   UNL     1       2.134   0.080   5.977  0.00  0.00    +0.017 A 
ATOM     30  C   UNL     1       1.531   0.620   4.859  0.00  0.00    +0.024 A 
ATOM     31 BR   UNL     1       2.203  -0.981   8.618  0.00  0.00    -0.050 Br
ENDBRANCH  23  25
ENDBRANCH  20  21
ENDBRANCH  19  20
ENDBRANCH  18  19
ENDBRANCH   4  18
TORSDOF 7
