REMARK  Name = ZINC39458021
REMARK  9 active torsions:
REMARK  status: ('A' for Active; 'I' for Inactive)
REMARK    1  A    between atoms: C_1  and  C_2
REMARK    2  A    between atoms: C_3  and  S_31
REMARK    3  A    between atoms: N_6  and  C_7
REMARK    4  A    between atoms: C_12  and  O_13
REMARK    5  A    between atoms: C_16  and  C_20
REMARK    6  A    between atoms: C_25  and  O_26
REMARK    7  A    between atoms: S_31  and  C_34
REMARK    8  A    between atoms: C_34  and  C_35
REMARK    9  A    between atoms: C_34  and  C_36
REMARK                            x       y       z     vdW  Elec       q    Type
REMARK                         _______ _______ _______ _____ _____    ______ ____
ROOT
ATOM      1  C   UNL     1      -0.018   1.503   0.010  0.00  0.00    +0.066 C 
ATOM      2  C   UNL     1       0.002  -0.004   0.002  0.00  0.00    +0.046 A 
ATOM      3  C   UNL     1       0.008  -0.789  -1.104  0.00  0.00    +0.113 A 
ATOM      4  C   UNL     1       0.032  -2.118  -0.681  0.00  0.00    +0.005 A 
ATOM      5  C   UNL     1       0.049  -2.107   0.691  0.00  0.00    +0.078 A 
ATOM      6  N   UNL     1       0.024  -0.806   1.106  0.00  0.00    -0.306 N 
ATOM      7  C   UNL     1       0.114  -3.341   1.494  0.00  0.00    +0.099 A 
ATOM      8  C   UNL     1       1.045  -4.324   1.075  0.00  0.00    +0.053 A 
ATOM      9  C   UNL     1       1.106  -5.542   1.776  0.00  0.00    -0.000 A 
ATOM     10  C   UNL     1       0.263  -5.697   2.882  0.00  0.00    +0.029 A 
ATOM     11  C   UNL     1      -0.592  -4.673   3.238  0.00  0.00    +0.112 A 
ATOM     12  N   UNL     1      -0.649  -3.545   2.553  0.00  0.00    -0.253 NA
ATOM     13  C   UNL     1       1.918  -4.026  -0.053  0.00  0.00    +0.166 C 
ATOM     14  O   UNL     1       3.083  -3.755   0.153  0.00  0.00    -0.292 OA
ATOM     15  C   UNL     1       1.403  -4.048  -1.474  0.00  0.00    +0.084 C 
ATOM     16  C   UNL     1       0.029  -3.365  -1.521  0.00  0.00    +0.047 C 
ENDROOT
BRANCH   6  17
ATOM     17  C   UNL     1       0.018  -0.369   2.438  0.00  0.00    +0.089 A 
ATOM     18  C   UNL     1      -1.184  -0.185   3.105  0.00  0.00    +0.030 A 
ATOM     19  C   UNL     1      -1.188   0.245   4.418  0.00  0.00    +0.002 A 
ATOM     20  C   UNL     1       0.006   0.494   5.071  0.00  0.00    +0.004 A 
ATOM     21  C   UNL     1       1.208   0.314   4.413  0.00  0.00    +0.047 A 
ATOM     22  C   UNL     1       1.220  -0.123   3.098  0.00  0.00    +0.141 A 
BRANCH  22  23
ATOM     23  O   UNL     1       2.402  -0.306   2.451  0.00  0.00    -0.505 OA
ATOM     24  H   UNL     1       2.723   0.480   1.989  0.00  0.00    +0.292 HD
ENDBRANCH  22  23
ENDBRANCH   6  17
BRANCH   9  25
ATOM     25  C   UNL     1       2.029  -6.621   1.359  0.00  0.00    +0.024 A 
ATOM     26  C   UNL     1       1.524  -7.834   0.891  0.00  0.00    +0.012 A 
ATOM     27  C   UNL     1       2.388  -8.836   0.504  0.00  0.00    +0.001 A 
ATOM     28  C   UNL     1       3.758  -8.643   0.577  0.00  0.00    +0.004 A 
ATOM     29  C   UNL     1       4.270  -7.446   1.039  0.00  0.00    +0.046 A 
ATOM     30  C   UNL     1       3.414  -6.427   1.427  0.00  0.00    +0.125 A 
BRANCH  30  31
ATOM     31  O   UNL     1       3.916  -5.249   1.876  0.00  0.00    -0.506 OA
ATOM     32  H   UNL     1       4.066  -5.223   2.831  0.00  0.00    +0.292 HD
ENDBRANCH  30  31
ENDBRANCH   9  25
BRANCH   3  33
ATOM     33  S   UNL     1      -0.012  -0.230  -2.775  0.00  0.00    +0.001 S 
ATOM     34  O   UNL     1      -0.603  -1.295  -3.506  0.00  0.00    -0.169 OA
ATOM     35  O   UNL     1      -0.635   1.046  -2.723  0.00  0.00    -0.169 OA
BRANCH  33  36
ATOM     36  C   UNL     1       1.735  -0.054  -3.228  0.00  0.00    +0.130 C 
ATOM     37  C   UNL     1       2.436  -1.407  -3.092  0.00  0.00    +0.032 C 
ATOM     38  C   UNL     1       1.840   0.432  -4.675  0.00  0.00    +0.032 C 
ENDBRANCH  33  36
ENDBRANCH   3  33
TORSDOF 6
