REMARK  Name = ZINC19581650
REMARK  6 active torsions:
REMARK  status: ('A' for Active; 'I' for Inactive)
REMARK    1  A    between atoms: C_1  and  C_2
REMARK    2  A    between atoms: C_3  and  C_12
REMARK    3  A    between atoms: C_12  and  C_14
REMARK    4  A    between atoms: C_12  and  O_36
REMARK    5  A    between atoms: C_14  and  N_15
REMARK    6  A    between atoms: C_22  and  O_35
REMARK                            x       y       z     vdW  Elec       q    Type
REMARK                         _______ _______ _______ _____ _____    ______ ____
ROOT
ATOM      1  N   UNL     1       1.340   1.531   2.446  0.00  0.00    +0.382 N 
ATOM      2  C   UNL     1       1.304   2.995   2.559  0.00  0.00    -0.075 C 
ATOM      3  C   UNL     1       0.421   3.395   3.744  0.00  0.00    +0.029 C 
ATOM      4  C   UNL     1       0.983   2.776   5.025  0.00  0.00    +0.110 C 
ATOM      5  C   UNL     1       1.060   1.256   4.864  0.00  0.00    +0.029 C 
ATOM      6  C   UNL     1       1.925   0.919   3.647  0.00  0.00    -0.075 C 
ATOM      7  C   UNL     1       0.070   3.119   6.206  0.00  0.00    +0.084 C 
ATOM      8  C   UNL     1      -0.053   4.642   6.292  0.00  0.00    +0.152 C 
ATOM      9  C   UNL     1       1.316   5.272   6.208  0.00  0.00    +0.023 A 
ATOM     10  C   UNL     1       1.466   6.587   6.659  0.00  0.00    +0.010 A 
ATOM     11  C   UNL     1       2.665   7.223   6.608  0.00  0.00    +0.009 A 
ATOM     12  C   UNL     1       3.786   6.553   6.088  0.00  0.00    -0.014 A 
ATOM     13  C   UNL     1       5.042   7.180   6.009  0.00  0.00    +0.008 A 
ATOM     14  C   UNL     1       6.103   6.497   5.498  0.00  0.00    +0.001 A 
ATOM     15  C   UNL     1       5.963   5.184   5.052  0.00  0.00    +0.001 A 
ATOM     16  C   UNL     1       4.761   4.547   5.114  0.00  0.00    +0.012 A 
ATOM     17  C   UNL     1       3.644   5.220   5.634  0.00  0.00    +0.024 A 
ATOM     18  C   UNL     1       2.383   4.586   5.709  0.00  0.00    +0.135 A 
ATOM     19  O   UNL     1       2.283   3.300   5.287  0.00  0.00    -0.485 OA
ATOM     20  H   UNL     1       0.303   1.176   2.361  0.00  0.00    -0.082 HD
ENDROOT
BRANCH   8  21
ATOM     21  O   UNL     1      -0.665   5.000   7.533  0.00  0.00    -0.387 OA
ATOM     22  H   UNL     1      -0.838   6.058   7.776  0.00  0.00    +0.210 HD
ENDBRANCH   8  21
BRANCH   1  23
ATOM     23  C   UNL     1       2.064   1.114   1.238  0.00  0.00    -0.042 C 
BRANCH  23  24
ATOM     24  C   UNL     1       1.286   1.562  -0.002  0.00  0.00    +0.130 C 
BRANCH  24  27
ATOM     25  C   UNL     1       1.451  -1.326  -1.129  0.00  0.00    +0.063 C 
ATOM     26  C   UNL     1       2.105  -0.112  -1.737  0.00  0.00    +0.019 A 
ATOM     27  C   UNL     1       2.028   1.134  -1.242  0.00  0.00    +0.007 A 
ATOM     28  C   UNL     1       2.808   1.997  -2.132  0.00  0.00    +0.005 A 
ATOM     29  C   UNL     1       3.105   3.361  -2.146  0.00  0.00    +0.010 A 
ATOM     30  C   UNL     1       3.885   3.876  -3.143  0.00  0.00    +0.001 A 
ATOM     31  C   UNL     1       4.383   3.053  -4.144  0.00  0.00    +0.002 A 
ATOM     32  C   UNL     1       4.102   1.704  -4.150  0.00  0.00    +0.026 A 
ATOM     33  C   UNL     1       3.311   1.159  -3.144  0.00  0.00    +0.047 A 
ATOM     34  N   UNL     1       2.863  -0.115  -2.876  0.00  0.00    -0.358 N 
ATOM     35  H   UNL     1       3.028  -1.054  -3.424  0.00  0.00    +0.166 HD
ENDBRANCH  24  27
BRANCH  24  36
ATOM     36  O   UNL     1      -0.011   0.963   0.007  0.00  0.00    -0.389 OA
ATOM     37  H   UNL     1      -0.702   1.160   0.840  0.00  0.00    +0.210 HD
ENDBRANCH  24  36
ENDBRANCH  23  24
ENDBRANCH   1  23
TORSDOF 5
