REMARK  Name = ZINC06142734
REMARK  8 active torsions:
REMARK  status: ('A' for Active; 'I' for Inactive)
REMARK    1  A    between atoms: C_1  and  C_2
REMARK    2  A    between atoms: C_5  and  S_8
REMARK    3  A    between atoms: S_8  and  C_9
REMARK    4  A    between atoms: C_11  and  N_20
REMARK    5  A    between atoms: C_18  and  O_19
REMARK    6  A    between atoms: N_20  and  S_21
REMARK    7  A    between atoms: S_21  and  C_24
REMARK    8  A    between atoms: C_27  and  C_30
REMARK                            x       y       z     vdW  Elec       q    Type
REMARK                         _______ _______ _______ _____ _____    ______ ____
ROOT
ATOM      1  C   UNL     1      -2.352   4.879   0.615  0.00  0.00    +0.057 A 
ATOM      2  C   UNL     1      -1.199   5.666   0.549  0.00  0.00    +0.043 A 
ATOM      3  C   UNL     1       0.023   5.102   0.262  0.00  0.00    +0.057 A 
ATOM      4  C   UNL     1       0.116   3.713   0.031  0.00  0.00    +0.008 A 
ATOM      5  C   UNL     1       1.348   3.107  -0.265  0.00  0.00    +0.010 A 
ATOM      6  C   UNL     1       1.404   1.765  -0.483  0.00  0.00    +0.001 A 
ATOM      7  C   UNL     1       0.255   0.978  -0.418  0.00  0.00    +0.001 A 
ATOM      8  C   UNL     1      -0.957   1.531  -0.140  0.00  0.00    +0.012 A 
ATOM      9  C   UNL     1      -1.053   2.913   0.098  0.00  0.00    +0.026 A 
ATOM     10  C   UNL     1      -2.289   3.516   0.393  0.00  0.00    +0.138 A 
ENDROOT
BRANCH  10  11
ATOM     11  O   UNL     1      -3.419   2.760   0.460  0.00  0.00    -0.505 OA
ATOM     12  H   UNL     1      -3.605   2.408   1.341  0.00  0.00    +0.292 HD
ENDBRANCH  10  11
BRANCH   3  13
ATOM     13  N   UNL     1       1.167   5.901   0.200  0.00  0.00    -0.216 N 
ATOM     14  H   UNL     1       1.864   5.701  -0.446  0.00  0.00    +0.174 HD
BRANCH  13  15
ATOM     15  S   UNL     1       1.335   7.188   1.227  0.00  0.00    +0.072 S 
ATOM     16  O   UNL     1       2.639   7.712   1.013  0.00  0.00    -0.150 OA
ATOM     17  O   UNL     1       0.163   7.979   1.082  0.00  0.00    -0.150 OA
BRANCH  15  18
ATOM     18  C   UNL     1       1.312   6.551   2.870  0.00  0.00    +0.109 A 
ATOM     19  C   UNL     1       0.113   6.434   3.549  0.00  0.00    +0.029 A 
ATOM     20  C   UNL     1       0.094   5.930   4.836  0.00  0.00    +0.005 A 
ATOM     21  C   UNL     1       1.275   5.551   5.447  0.00  0.00    -0.050 A 
ATOM     22  C   UNL     1       2.474   5.671   4.769  0.00  0.00    +0.005 A 
ATOM     23  C   UNL     1       2.492   6.172   3.481  0.00  0.00    +0.029 A 
ATOM     24  C   UNL     1       1.254   5.005   6.851  0.00  0.00    +0.044 C 
ENDBRANCH  15  18
ENDBRANCH  13  15
ENDBRANCH   3  13
BRANCH   1  25
ATOM     25  S   UNL     1      -3.901   5.632   0.984  0.00  0.00    -0.086 S 
BRANCH  25  30
ATOM     26  C   UNL     1      -6.721   5.862  -4.348  0.00  0.00    +0.044 C 
ATOM     27  C   UNL     1      -6.017   5.804  -3.017  0.00  0.00    -0.050 A 
ATOM     28  C   UNL     1      -6.684   6.184  -1.866  0.00  0.00    +0.004 A 
ATOM     29  C   UNL     1      -6.043   6.133  -0.645  0.00  0.00    +0.015 A 
ATOM     30  C   UNL     1      -4.724   5.699  -0.572  0.00  0.00    +0.013 A 
ATOM     31  C   UNL     1      -4.056   5.322  -1.731  0.00  0.00    +0.015 A 
ATOM     32  C   UNL     1      -4.706   5.370  -2.948  0.00  0.00    +0.004 A 
ENDBRANCH  25  30
ENDBRANCH   1  25
TORSDOF 6
