REMARK  Name = ZINC09076141
REMARK  10 active torsions:
REMARK  status: ('A' for Active; 'I' for Inactive)
REMARK    1  A    between atoms: C_1  and  C_2
REMARK    2  A    between atoms: C_4  and  N_36
REMARK    3  A    between atoms: C_5  and  N_9
REMARK    4  A    between atoms: C_7  and  C_8
REMARK    5  A    between atoms: C_10  and  C_30
REMARK    6  A    between atoms: C_12  and  C_20
REMARK    7  A    between atoms: C_13  and  C_14
REMARK    8  A    between atoms: C_21  and  O_29
REMARK    9  A    between atoms: C_23  and  C_27
REMARK   10  A    between atoms: C_23  and  C_28
REMARK                            x       y       z     vdW  Elec       q    Type
REMARK                         _______ _______ _______ _____ _____    ______ ____
ROOT
ATOM      1  N   UNL     1       3.953   3.033  -0.915  0.00  0.00    -0.306 N 
ATOM      2  C   UNL     1       5.131   3.667  -0.608  0.00  0.00    +0.055 A 
ATOM      3  C   UNL     1       5.678   3.066   0.485  0.00  0.00    +0.037 A 
ATOM      4  C   UNL     1       4.814   2.025   0.879  0.00  0.00    +0.015 A 
ATOM      5  C   UNL     1       3.749   2.019  -0.010  0.00  0.00    +0.062 A 
ENDROOT
BRANCH   4   6
ATOM      6  C   UNL     1       5.008   1.105   2.027  0.00  0.00    +0.064 C 
ATOM      7  C   UNL     1       4.758   1.550   3.283  0.00  0.00    +0.106 C 
ATOM      8  C   UNL     1       4.941   0.652   4.477  0.00  0.00    +0.081 C 
ATOM      9  C   UNL     1       4.694  -0.803   4.069  0.00  0.00    -0.021 C 
ATOM     10  C   UNL     1       5.656  -1.171   2.935  0.00  0.00    +0.086 C 
ATOM     11  C   UNL     1       5.455  -0.214   1.788  0.00  0.00    +0.167 C 
ATOM     12  O   UNL     1       5.679  -0.578   0.651  0.00  0.00    -0.292 OA
ATOM     13  C   UNL     1       3.251  -0.963   3.587  0.00  0.00    +0.012 C 
ATOM     14  C   UNL     1       4.939  -1.722   5.267  0.00  0.00    +0.012 C 
BRANCH   7  15
ATOM     15  O   UNL     1       4.333   2.815   3.466  0.00  0.00    -0.510 OA
ATOM     16  H   UNL     1       4.196   2.984   4.442  0.00  0.00    +0.292 HD
ENDBRANCH   7  15
ENDBRANCH   4   6
BRANCH   1  21
ATOM     17  C   UNL     1       0.489   4.380  -5.211  0.00  0.00    +0.044 C 
ATOM     18  C   UNL     1       1.410   4.020  -4.074  0.00  0.00    -0.046 A 
ATOM     19  C   UNL     1       2.422   3.099  -4.271  0.00  0.00    +0.028 A 
ATOM     20  C   UNL     1       3.274   2.771  -3.227  0.00  0.00    +0.049 A 
ATOM     21  C   UNL     1       3.099   3.364  -1.976  0.00  0.00    +0.068 A 
ATOM     22  C   UNL     1       2.081   4.286  -1.788  0.00  0.00    +0.031 A 
ATOM     23  C   UNL     1       1.240   4.611  -2.835  0.00  0.00    -0.045 A 
ATOM     24  C   UNL     1       0.133   5.613  -2.627  0.00  0.00    +0.044 C 
BRANCH  20  25
ATOM     25  N   UNL     1       4.303   1.845  -3.425  0.00  0.00    -0.356 N 
ATOM     26  H   UNL     1       4.895   1.613  -2.693  0.00  0.00    +0.142 HD
ATOM     27  H   UNL     1       4.423   1.433  -4.296  0.00  0.00    +0.142 HD
ENDBRANCH  20  25
ENDBRANCH   1  21
BRANCH   5  28
ATOM     28  C   UNL     1       2.600   1.094   0.016  0.00  0.00    -0.001 A 
ATOM     29  C   UNL     1       2.286   0.333  -1.113  0.00  0.00    +0.010 A 
ATOM     30  C   UNL     1       1.211  -0.530  -1.081  0.00  0.00    +0.001 A 
ATOM     31  C   UNL     1       0.444  -0.643   0.065  0.00  0.00    +0.000 A 
ATOM     32  C   UNL     1       0.748   0.108   1.186  0.00  0.00    +0.001 A 
ATOM     33  C   UNL     1       1.821   0.975   1.170  0.00  0.00    +0.010 A 
ENDBRANCH   5  28
BRANCH   2  34
ATOM     34  C   UNL     1       5.709   4.813  -1.341  0.00  0.00    -0.001 A 
ATOM     35  C   UNL     1       4.929   5.528  -2.252  0.00  0.00    +0.010 A 
ATOM     36  C   UNL     1       5.473   6.600  -2.928  0.00  0.00    +0.001 A 
ATOM     37  C   UNL     1       6.792   6.960  -2.714  0.00  0.00    +0.000 A 
ATOM     38  C   UNL     1       7.572   6.252  -1.817  0.00  0.00    +0.001 A 
ATOM     39  C   UNL     1       7.038   5.182  -1.129  0.00  0.00    +0.010 A 
ENDBRANCH   2  34
TORSDOF 6
