REMARK  Name = ZINC59157958
REMARK  6 active torsions:
REMARK  status: ('A' for Active; 'I' for Inactive)
REMARK    1  A    between atoms: C_1  and  C_2
REMARK    2  A    between atoms: C_3  and  C_14
REMARK    3  A    between atoms: C_4  and  O_13
REMARK    4  A    between atoms: N_5  and  C_7
REMARK    5  A    between atoms: N_15  and  N_16
REMARK    6  A    between atoms: N_16  and  C_17
REMARK                            x       y       z     vdW  Elec       q    Type
REMARK                         _______ _______ _______ _____ _____    ______ ____
ROOT
ATOM      1  C   UNL     1      -0.018   1.503   0.010  0.00  0.00    +0.068 C 
ATOM      2  C   UNL     1       0.002  -0.004   0.002  0.00  0.00    +0.073 A 
ATOM      3  C   UNL     1       0.008  -0.824  -1.147  0.00  0.00    +0.079 A 
ATOM      4  C   UNL     1       0.028  -2.139  -0.713  0.00  0.00    +0.225 A 
ATOM      5  N   UNL     1       0.034  -2.111   0.646  0.00  0.00    -0.200 N 
ATOM      6  N   UNL     1       0.023  -0.774   1.056  0.00  0.00    -0.168 NA
ENDROOT
BRANCH   5   7
ATOM      7  C   UNL     1       0.054  -3.230   1.490  0.00  0.00    +0.069 A 
ATOM      8  C   UNL     1      -0.616  -4.389   1.124  0.00  0.00    +0.028 A 
ATOM      9  C   UNL     1      -0.595  -5.490   1.958  0.00  0.00    +0.002 A 
ATOM     10  C   UNL     1       0.093  -5.438   3.156  0.00  0.00    +0.000 A 
ATOM     11  C   UNL     1       0.761  -4.285   3.524  0.00  0.00    +0.002 A 
ATOM     12  C   UNL     1       0.748  -3.182   2.692  0.00  0.00    +0.028 A 
ENDBRANCH   5   7
BRANCH   4  13
ATOM     13  O   UNL     1       0.040  -3.246  -1.496  0.00  0.00    -0.492 OA
ATOM     14  H   UNL     1       0.926  -3.555  -1.727  0.00  0.00    +0.294 HD
ENDBRANCH   4  13
BRANCH   3  15
ATOM     15  C   UNL     1      -0.005  -0.366  -2.549  0.00  0.00    +0.145 C 
ATOM     16  N   UNL     1       0.003  -1.233  -3.515  0.00  0.00    -0.190 NA
BRANCH  16  17
ATOM     17  N   UNL     1      -0.010  -0.797  -4.847  0.00  0.00    -0.238 N 
ATOM     18  H   UNL     1      -0.024   0.152  -5.046  0.00  0.00    +0.174 HD
BRANCH  17  19
ATOM     19  C   UNL     1      -0.002  -1.729  -5.885  0.00  0.00    +0.048 A 
ATOM     20  C   UNL     1       0.013  -3.089  -5.600  0.00  0.00    +0.026 A 
ATOM     21  C   UNL     1       0.021  -4.008  -6.631  0.00  0.00    +0.016 A 
ATOM     22  C   UNL     1       0.015  -3.577  -7.945  0.00  0.00    +0.013 A 
ATOM     23  C   UNL     1       0.000  -2.223  -8.232  0.00  0.00    +0.016 A 
ATOM     24  C   UNL     1      -0.014  -1.298  -7.207  0.00  0.00    +0.026 A 
ATOM     25  I   UNL     1       0.028  -4.976  -9.505  0.00  0.00    -0.044 I 
ENDBRANCH  17  19
ENDBRANCH  16  17
ENDBRANCH   3  15
TORSDOF 5
