REMARK  Name = ZINC39336763
REMARK  6 active torsions:
REMARK  status: ('A' for Active; 'I' for Inactive)
REMARK    1  A    between atoms: C_4  and  N_7
REMARK    2  A    between atoms: C_9  and  C_22
REMARK    3  A    between atoms: C_10  and  C_13
REMARK    4  A    between atoms: C_16  and  N_19
REMARK    5  A    between atoms: N_23  and  N_24
REMARK    6  A    between atoms: C_25  and  C_31
REMARK                            x       y       z     vdW  Elec       q    Type
REMARK                         _______ _______ _______ _____ _____    ______ ____
ROOT
ATOM      1  N   UNL     1       3.637  -0.705  -0.086  0.00  0.00    -0.242 N 
ATOM      2  C   UNL     1       4.855  -0.079  -0.029  0.00  0.00    +0.100 C 
ATOM      3  C   UNL     1       5.860  -0.941  -0.259  0.00  0.00    +0.010 C 
ATOM      4  C   UNL     1       5.219  -2.292  -0.495  0.00  0.00    +0.136 C 
ATOM      5  N   UNL     1       3.772  -2.036  -0.356  0.00  0.00    -0.224 NA
ATOM      6  H   UNL     1       3.280  -2.285  -1.201  0.00  0.00    +0.146 HD
ENDROOT
BRANCH   1  10
ATOM      7  C   UNL     1      -0.013   1.211   0.502  0.00  0.00    +0.000 A 
ATOM      8  C   UNL     1       1.165   1.932   0.576  0.00  0.00    +0.002 A 
ATOM      9  C   UNL     1       2.377   1.300   0.381  0.00  0.00    +0.025 A 
ATOM     10  C   UNL     1       2.413  -0.062   0.111  0.00  0.00    +0.049 A 
ATOM     11  C   UNL     1       1.228  -0.784   0.038  0.00  0.00    +0.025 A 
ATOM     12  C   UNL     1       0.019  -0.145   0.234  0.00  0.00    +0.002 A 
ENDBRANCH   1  10
BRANCH   4  13
ATOM     13  C   UNL     1       5.543  -2.795  -1.878  0.00  0.00    -0.024 A 
ATOM     14  C   UNL     1       4.841  -2.318  -2.969  0.00  0.00    +0.008 A 
ATOM     15  C   UNL     1       5.138  -2.780  -4.237  0.00  0.00    +0.033 A 
ATOM     16  C   UNL     1       6.138  -3.718  -4.415  0.00  0.00    +0.126 A 
ATOM     17  C   UNL     1       6.840  -4.194  -3.324  0.00  0.00    +0.033 A 
ATOM     18  C   UNL     1       6.546  -3.730  -2.056  0.00  0.00    +0.008 A 
BRANCH  16  19
ATOM     19  N   UNL     1       6.455  -4.213  -5.773  0.00  0.00    +0.056 N 
ATOM     20  O   UNL     1       5.840  -3.796  -6.728  0.00  0.00    -0.126 OA
ATOM     21  O   UNL     1       7.329  -5.034  -5.929  0.00  0.00    -0.126 OA
ENDBRANCH  16  19
ENDBRANCH   4  13
BRANCH   3  22
ATOM     22  C   UNL     1       7.247  -0.644  -0.277  0.00  0.00    +0.137 C 
ATOM     23  N   UNL     1       7.655   0.573  -0.054  0.00  0.00    -0.184 NA
BRANCH  23  24
ATOM     24  N   UNL     1       9.026   0.845   0.044  0.00  0.00    -0.172 N 
ATOM     25  C   UNL     1      10.141  -0.120   0.036  0.00  0.00    +0.270 C 
ATOM     26  N   UNL     1      11.339   0.724   0.166  0.00  0.00    -0.189 NA
ATOM     27  N   UNL     1      10.973   1.900   0.231  0.00  0.00    -0.219 N 
ATOM     28  C   UNL     1       9.624   2.051   0.160  0.00  0.00    +0.174 C 
ATOM     29  S   UNL     1       8.802   3.552   0.213  0.00  0.00    -0.015 S 
ATOM     30  H   UNL     1      11.589   2.645   0.321  0.00  0.00    +0.176 HD
BRANCH  25  31
ATOM     31  C   UNL     1      10.028  -1.067   1.204  0.00  0.00    +0.035 A 
ATOM     32  C   UNL     1      11.013  -1.693   1.893  0.00  0.00    +0.015 A 
ATOM     33  C   UNL     1      10.672  -2.527   2.941  0.00  0.00    +0.008 A 
ATOM     34  C   UNL     1       9.363  -2.694   3.249  0.00  0.00    +0.045 A 
ATOM     35  S   UNL     1       8.564  -1.649   2.042  0.00  0.00    -0.098 S 
ENDBRANCH  25  31
ENDBRANCH  23  24
ENDBRANCH   3  22
TORSDOF 6
