REMARK  Name = ZINC10107522
REMARK  11 active torsions:
REMARK  status: ('A' for Active; 'I' for Inactive)
REMARK    1  A    between atoms: C_1  and  C_2
REMARK    2  A    between atoms: C_2  and  C_3
REMARK    3  A    between atoms: C_9  and  C_10
REMARK    4  A    between atoms: C_9  and  N_69
REMARK    5  A    between atoms: C_10  and  C_11
REMARK    6  A    between atoms: C_11  and  N_12
REMARK    7  A    between atoms: C_21  and  C_31
REMARK    8  A    between atoms: N_22  and  C_23
REMARK    9  A    between atoms: C_26  and  O_29
REMARK   10  A    between atoms: O_29  and  C_30
REMARK   11  A    between atoms: N_32  and  C_35
REMARK                            x       y       z     vdW  Elec       q    Type
REMARK                         _______ _______ _______ _____ _____    ______ ____
ROOT
ATOM      1  N   UNL     1       1.162   1.846   0.098  0.00  0.00    -0.259 N 
ATOM      2  C   UNL     1       0.014   1.139   0.116  0.00  0.00    +0.283 A 
ATOM      3  O   UNL     1       0.041  -0.080   0.099  0.00  0.00    -0.265 OA
ATOM      4  C   UNL     1      -1.214   1.820   0.150  0.00  0.00    +0.157 A 
ATOM      5  C   UNL     1      -1.216   3.214   0.175  0.00  0.00    +0.170 A 
ATOM      6  N   UNL     1      -2.486   3.611   0.212  0.00  0.00    -0.193 NA
ATOM      7  C   UNL     1      -3.289   2.557   0.217  0.00  0.00    +0.223 A 
ATOM      8  N   UNL     1      -2.543   1.427   0.183  0.00  0.00    -0.277 N 
ATOM      9  C   UNL     1      -3.403   0.343   0.189  0.00  0.00    +0.116 A 
ATOM     10  C   UNL     1      -4.652   0.798   0.226  0.00  0.00    +0.040 A 
ATOM     11  N   UNL     1      -4.607   2.180   0.244  0.00  0.00    -0.283 N 
ATOM     12  C   UNL     1      -5.900  -0.046   0.244  0.00  0.00    +0.065 C 
ATOM     13  N   UNL     1      -0.003   3.885   0.154  0.00  0.00    -0.279 N 
ATOM     14  C   UNL     1       1.150   3.190   0.116  0.00  0.00    +0.333 A 
ATOM     15  O   UNL     1       2.206   3.793   0.098  0.00  0.00    -0.246 OA
ATOM     16  C   UNL     1       0.025   5.349   0.173  0.00  0.00    +0.155 C 
ENDROOT
BRANCH  11  17
ATOM     17  C   UNL     1      -5.712   3.042   0.283  0.00  0.00    +0.050 A 
ATOM     18  C   UNL     1      -5.924   3.850   1.392  0.00  0.00    +0.030 A 
ATOM     19  C   UNL     1      -7.009   4.703   1.427  0.00  0.00    +0.047 A 
ATOM     20  C   UNL     1      -7.894   4.744   0.360  0.00  0.00    +0.120 A 
ATOM     21  C   UNL     1      -7.687   3.933  -0.746  0.00  0.00    +0.047 A 
ATOM     22  C   UNL     1      -6.599   3.083  -0.785  0.00  0.00    +0.030 A 
BRANCH  20  23
ATOM     23  O   UNL     1      -8.966   5.580   0.398  0.00  0.00    -0.495 OA
ATOM     24  C   UNL     1      -9.119   6.387   1.567  0.00  0.00    +0.277 C 
ENDBRANCH  20  23
ENDBRANCH  11  17
BRANCH   1  25
ATOM     25  C   UNL     1       2.444   1.138   0.057  0.00  0.00    +0.128 C 
BRANCH  25  26
ATOM     26  C   UNL     1       2.855   0.910  -1.399  0.00  0.00    +0.003 C 
BRANCH  26  27
ATOM     27  C   UNL     1       4.194   0.171  -1.441  0.00  0.00    -0.077 C 
BRANCH  27  33
ATOM     28  C   UNL     1       6.004  -0.428  -2.933  0.00  0.00    -0.069 C 
ATOM     29  C   UNL     1       6.416  -0.505  -4.405  0.00  0.00    -0.015 C 
ATOM     30  C   UNL     1       5.542  -1.538  -5.122  0.00  0.00    -0.003 C 
ATOM     31  C   UNL     1       4.070  -1.145  -4.967  0.00  0.00    -0.019 C 
ATOM     32  C   UNL     1       3.726  -1.050  -3.479  0.00  0.00    -0.078 C 
ATOM     33  N   UNL     1       4.585  -0.022  -2.853  0.00  0.00    +0.382 N 
ATOM     34  H   UNL     1       4.463   0.865  -3.357  0.00  0.00    -0.081 HD
BRANCH  28  36
ATOM     35  C   UNL     1       6.580   2.000  -2.812  0.00  0.00    +0.002 C 
ATOM     36  C   UNL     1       6.861   0.618  -2.218  0.00  0.00    -0.019 C 
ENDBRANCH  28  36
ENDBRANCH  27  33
ENDBRANCH  26  27
ENDBRANCH  25  26
ENDBRANCH   1  25
TORSDOF 7
