REMARK  Name = ZINC04163777
REMARK  5 active torsions:
REMARK  status: ('A' for Active; 'I' for Inactive)
REMARK    1  A    between atoms: C_5  and  C_7
REMARK    2  A    between atoms: C_9  and  C_21
REMARK    3  A    between atoms: C_11  and  C_16
REMARK    4  A    between atoms: C_11  and  O_20
REMARK    5  A    between atoms: C_21  and  C_23
REMARK                            x       y       z     vdW  Elec       q    Type
REMARK                         _______ _______ _______ _____ _____    ______ ____
ROOT
ATOM      1  C   UNL     1       1.228  -2.186  -0.022  0.00  0.00    +0.123 C 
ATOM      2  C   UNL     1       1.372  -2.705   1.413  0.00  0.00    +0.144 C 
ATOM      3  C   UNL     1       1.273  -4.234   1.391  0.00  0.00    +0.243 C 
ATOM      4  N   UNL     1       0.019  -4.625   0.745  0.00  0.00    -0.264 N 
ATOM      5  C   UNL     1      -0.550  -3.857  -0.195  0.00  0.00    +0.302 C 
ATOM      6  O   UNL     1      -1.587  -4.234  -0.708  0.00  0.00    -0.253 OA
ATOM      7  N   UNL     1      -0.023  -2.689  -0.593  0.00  0.00    -0.292 N 
ATOM      8  H   UNL     1      -0.408  -5.458   1.001  0.00  0.00    +0.153 HD
ATOM      9  H   UNL     1      -0.479  -2.167  -1.271  0.00  0.00    +0.151 HD
ENDROOT
BRANCH   1  14
ATOM     10  C   UNL     1      -0.017   1.378   0.010  0.00  0.00    +0.000 A 
ATOM     11  C   UNL     1       1.171   2.087   0.002  0.00  0.00    +0.003 A 
ATOM     12  C   UNL     1       2.377   1.414  -0.013  0.00  0.00    +0.039 A 
ATOM     13  C   UNL     1       2.397   0.029  -0.021  0.00  0.00    +0.128 A 
ATOM     14  C   UNL     1       1.208  -0.679  -0.013  0.00  0.00    +0.009 A 
ATOM     15  C   UNL     1       0.002  -0.004   0.002  0.00  0.00    +0.008 A 
ATOM     16  F   UNL     1       3.577  -0.630  -0.036  0.00  0.00    -0.205 F 
ENDBRANCH   1  14
BRANCH   3  17
ATOM     17  C   UNL     1       2.454  -4.811   0.608  0.00  0.00    +0.436 C 
ATOM     18  F   UNL     1       3.652  -4.430   1.222  0.00  0.00    -0.166 F 
ATOM     19  F   UNL     1       2.363  -6.207   0.589  0.00  0.00    -0.166 F 
ATOM     20  F   UNL     1       2.427  -4.324  -0.703  0.00  0.00    -0.166 F 
ENDBRANCH   3  17
BRANCH   3  21
ATOM     21  O   UNL     1       1.297  -4.733   2.730  0.00  0.00    -0.364 OA
ATOM     22  H   UNL     1       1.238  -5.697   2.791  0.00  0.00    +0.212 HD
ENDBRANCH   3  21
BRANCH   2  23
ATOM     23  C   UNL     1       0.270  -2.135   2.269  0.00  0.00    +0.173 C 
ATOM     24  O   UNL     1      -0.805  -1.868   1.776  0.00  0.00    -0.292 OA
BRANCH  23  25
ATOM     25  C   UNL     1       0.499  -1.904   3.704  0.00  0.00    +0.018 A 
ATOM     26  C   UNL     1       1.740  -2.205   4.275  0.00  0.00    +0.013 A 
ATOM     27  C   UNL     1       1.947  -1.986   5.620  0.00  0.00    +0.020 A 
ATOM     28  C   UNL     1       0.930  -1.467   6.405  0.00  0.00    +0.041 A 
ATOM     29  C   UNL     1      -0.301  -1.166   5.846  0.00  0.00    +0.020 A 
ATOM     30  C   UNL     1      -0.521  -1.375   4.502  0.00  0.00    +0.013 A 
ATOM     31 CL   UNL     1       1.200  -1.194   8.098  0.00  0.00    -0.084 Cl
ENDBRANCH  23  25
ENDBRANCH   2  23
TORSDOF 5
