REMARK  Name = ZINC20882188
REMARK  8 active torsions:
REMARK  status: ('A' for Active; 'I' for Inactive)
REMARK    1  A    between atoms: C_1  and  C_2
REMARK    2  A    between atoms: C_5  and  C_11
REMARK    3  A    between atoms: C_7  and  N_8
REMARK    4  A    between atoms: C_16  and  C_21
REMARK    5  A    between atoms: C_24  and  O_27
REMARK    6  A    between atoms: O_27  and  C_28
REMARK    7  A    between atoms: C_28  and  C_29
REMARK    8  A    between atoms: C_28  and  C_30
REMARK                            x       y       z     vdW  Elec       q    Type
REMARK                         _______ _______ _______ _____ _____    ______ ____
ROOT
ATOM      1  C   UNL     1       1.895  -0.471  -1.290  0.00  0.00    +0.136 C 
ATOM      2  C   UNL     1       2.201   0.867  -1.921  0.00  0.00    +0.036 C 
ATOM      3  C   UNL     1       1.726   2.056  -1.517  0.00  0.00    +0.017 C 
ATOM      4  C   UNL     1       2.080   3.322  -2.280  0.00  0.00    +0.059 C 
ATOM      5  C   UNL     1       3.493   3.208  -2.847  0.00  0.00    +0.032 C 
ATOM      6  C   UNL     1       3.522   2.000  -3.791  0.00  0.00    +0.088 C 
ATOM      7  C   UNL     1       3.076   0.787  -3.030  0.00  0.00    +0.163 C 
ATOM      8  O   UNL     1       3.482  -0.304  -3.378  0.00  0.00    -0.292 OA
ATOM      9  N   UNL     1       0.908   2.251  -0.450  0.00  0.00    -0.316 N 
ATOM     10  C   UNL     1      -0.232   1.500  -0.179  0.00  0.00    +0.052 A 
ATOM     11  C   UNL     1      -1.497   2.059  -0.159  0.00  0.00    +0.025 A 
ATOM     12  C   UNL     1      -2.582   1.268   0.180  0.00  0.00    +0.002 A 
ATOM     13  C   UNL     1      -2.400  -0.066   0.497  0.00  0.00    +0.002 A 
ATOM     14  C   UNL     1      -1.136  -0.629   0.460  0.00  0.00    +0.025 A 
ATOM     15  C   UNL     1      -0.050   0.155   0.103  0.00  0.00    +0.049 A 
ATOM     16  N   UNL     1       1.228  -0.386  -0.008  0.00  0.00    -0.331 N 
ATOM     17  H   UNL     1       1.129   3.049   0.273  0.00  0.00    +0.152 HD
ATOM     18  H   UNL     1       1.732  -0.753   0.899  0.00  0.00    +0.147 HD
ENDROOT
BRANCH   1  23
ATOM     19  C   UNL     1      -1.459  -3.481  -4.908  0.00  0.00    +0.046 C 
ATOM     20  C   UNL     1      -0.584  -2.696  -3.964  0.00  0.00    -0.020 A 
ATOM     21  C   UNL     1       0.694  -3.138  -3.678  0.00  0.00    +0.006 A 
ATOM     22  C   UNL     1       1.498  -2.415  -2.817  0.00  0.00    +0.006 A 
ATOM     23  C   UNL     1       1.020  -1.256  -2.233  0.00  0.00    -0.021 A 
ATOM     24  C   UNL     1      -0.258  -0.815  -2.519  0.00  0.00    +0.038 A 
ATOM     25  C   UNL     1      -1.060  -1.535  -3.385  0.00  0.00    +0.129 A 
BRANCH  25  26
ATOM     26  N   UNL     1      -2.429  -1.062  -3.691  0.00  0.00    +0.057 N 
ATOM     27  O   UNL     1      -2.875  -1.178  -4.819  0.00  0.00    -0.126 OA
ATOM     28  O   UNL     1      -3.109  -0.557  -2.816  0.00  0.00    -0.126 OA
ENDBRANCH  25  26
ENDBRANCH   1  23
BRANCH   5  29
ATOM     29  C   UNL     1       3.840   4.460  -3.611  0.00  0.00    -0.043 A 
ATOM     30  C   UNL     1       3.080   4.835  -4.704  0.00  0.00    +0.007 A 
ATOM     31  C   UNL     1       3.393   5.985  -5.402  0.00  0.00    +0.046 A 
ATOM     32  C   UNL     1       4.476   6.759  -5.013  0.00  0.00    +0.121 A 
ATOM     33  C   UNL     1       5.240   6.378  -3.919  0.00  0.00    +0.046 A 
ATOM     34  C   UNL     1       4.921   5.229  -3.221  0.00  0.00    +0.007 A 
BRANCH  32  35
ATOM     35  O   UNL     1       4.789   7.888  -5.701  0.00  0.00    -0.489 OA
BRANCH  35  36
ATOM     36  C   UNL     1       5.982   8.574  -5.315  0.00  0.00    +0.167 C 
ATOM     37  C   UNL     1       6.508   9.388  -6.500  0.00  0.00    +0.051 C 
ATOM     38  C   UNL     1       5.676   9.513  -4.147  0.00  0.00    +0.051 C 
ENDBRANCH  35  36
ENDBRANCH  32  35
ENDBRANCH   5  29
TORSDOF 5
