REMARK  Name = ZINC08238769
REMARK  5 active torsions:
REMARK  status: ('A' for Active; 'I' for Inactive)
REMARK    1  A    between atoms: C_1  and  C_2
REMARK    2  A    between atoms: C_2  and  C_4
REMARK    3  A    between atoms: C_2  and  N_13
REMARK    4  A    between atoms: C_14  and  C_16
REMARK    5  A    between atoms: C_16  and  C_17
REMARK                            x       y       z     vdW  Elec       q    Type
REMARK                         _______ _______ _______ _____ _____    ______ ____
ROOT
ATOM      1  N   UNL     1      -0.011   0.966   0.007  0.00  0.00    -0.306 N 
ATOM      2  C   UNL     1       1.147   1.655   0.000  0.00  0.00    +0.215 C 
ATOM      3  O   UNL     1       1.130   2.868   0.007  0.00  0.00    -0.276 OA
ATOM      4  H   UNL     1       0.002  -0.004   0.002  0.00  0.00    +0.149 HD
ENDROOT
BRANCH   1   6
ATOM      5  C   UNL     1      -1.680   2.047  -1.416  0.00  0.00    +0.036 C 
ATOM      6  C   UNL     1      -1.290   1.681   0.017  0.00  0.00    +0.136 C 
BRANCH   6   7
ATOM      7  C   UNL     1      -2.354   0.799   0.618  0.00  0.00    +0.126 A 
ATOM      8  C   UNL     1      -3.312   1.216   1.456  0.00  0.00    +0.055 A 
ATOM      9  C   UNL     1      -4.117   0.032   1.780  0.00  0.00    +0.020 A 
ATOM     10  C   UNL     1      -5.236  -0.198   2.579  0.00  0.00    +0.011 A 
ATOM     11  C   UNL     1      -5.754  -1.460   2.672  0.00  0.00    +0.001 A 
ATOM     12  C   UNL     1      -5.173  -2.511   1.977  0.00  0.00    +0.004 A 
ATOM     13  C   UNL     1      -4.066  -2.303   1.183  0.00  0.00    +0.047 A 
ATOM     14  C   UNL     1      -3.524  -1.029   1.074  0.00  0.00    +0.135 A 
ATOM     15  O   UNL     1      -2.475  -0.521   0.395  0.00  0.00    -0.458 OA
ENDBRANCH   6   7
ENDBRANCH   1   6
BRANCH   2  16
ATOM     16  C   UNL     1       2.462   0.920  -0.017  0.00  0.00    +0.119 C 
BRANCH  16  17
ATOM     17  C   UNL     1       3.611   1.930  -0.022  0.00  0.00    +0.146 C 
ATOM     18  C   UNL     1       4.925   1.201  -0.137  0.00  0.00    +0.231 C 
ATOM     19  O   UNL     1       5.445   1.118  -1.229  0.00  0.00    -0.274 OA
ATOM     20  N   UNL     1       5.542   0.645   0.901  0.00  0.00    -0.284 N 
ATOM     21  C   UNL     1       5.164   0.735   2.237  0.00  0.00    +0.047 A 
ATOM     22  C   UNL     1       5.686  -0.175   3.152  0.00  0.00    +0.024 A 
ATOM     23  C   UNL     1       5.311  -0.119   4.480  0.00  0.00    +0.002 A 
ATOM     24  C   UNL     1       4.415   0.840   4.916  0.00  0.00    +0.001 A 
ATOM     25  C   UNL     1       3.892   1.752   4.019  0.00  0.00    +0.016 A 
ATOM     26  C   UNL     1       4.266   1.702   2.686  0.00  0.00    +0.030 A 
ATOM     27  S   UNL     1       3.607   2.869   1.536  0.00  0.00    -0.110 S 
ATOM     28  H   UNL     1       6.336   0.123   0.707  0.00  0.00    +0.155 HD
ENDBRANCH  16  17
ENDBRANCH   2  16
TORSDOF 4
