REMARK  Name = ZINC01350401
REMARK  5 active torsions:
REMARK  status: ('A' for Active; 'I' for Inactive)
REMARK    1  A    between atoms: C_1  and  C_2
REMARK    2  A    between atoms: C_2  and  C_3
REMARK    3  A    between atoms: C_3  and  C_5
REMARK    4  A    between atoms: C_3  and  C_6
REMARK    5  A    between atoms: C_15  and  C_17
REMARK                            x       y       z     vdW  Elec       q    Type
REMARK                         _______ _______ _______ _____ _____    ______ ____
ROOT
ATOM      1  C   UNL     1       0.531  -2.024  -1.407  0.00  0.00    +0.223 C 
ATOM      2  O   UNL     1       0.638  -0.816  -1.371  0.00  0.00    -0.275 OA
ATOM      3  N   UNL     1       0.961  -2.707  -2.487  0.00  0.00    -0.271 N 
ATOM      4  C   UNL     1       0.786  -4.146  -2.695  0.00  0.00    +0.118 C 
ATOM      5  C   UNL     1       1.438  -4.440  -4.055  0.00  0.00    +0.056 C 
ATOM      6  C   UNL     1       1.950  -3.098  -4.530  0.00  0.00    -0.024 A 
ATOM      7  C   UNL     1       1.634  -2.143  -3.576  0.00  0.00    +0.040 A 
ATOM      8  C   UNL     1       2.002  -0.813  -3.793  0.00  0.00    +0.024 A 
ATOM      9  C   UNL     1       2.668  -0.453  -4.943  0.00  0.00    +0.012 A 
ATOM     10  C   UNL     1       2.981  -1.416  -5.901  0.00  0.00    +0.001 A 
ATOM     11  C   UNL     1       2.621  -2.745  -5.682  0.00  0.00    +0.015 A 
ENDROOT
BRANCH  10  12
ATOM     12  C   UNL     1       3.698  -1.031  -7.141  0.00  0.00    +0.080 A 
ATOM     13  C   UNL     1       4.152   0.246  -7.307  0.00  0.00    +0.076 A 
ATOM     14  S   UNL     1       4.906   0.125  -8.923  0.00  0.00    -0.060 S 
ATOM     15  C   UNL     1       4.543  -1.601  -9.213  0.00  0.00    +0.156 A 
ATOM     16  N   UNL     1       3.910  -1.928  -8.101  0.00  0.00    -0.225 NA
ATOM     17  N   UNL     1       4.849  -2.388 -10.311  0.00  0.00    -0.338 N 
ATOM     18  H   UNL     1       5.328  -2.006 -11.063  0.00  0.00    +0.144 HD
ATOM     19  H   UNL     1       4.584  -3.321 -10.327  0.00  0.00    +0.144 HD
ENDBRANCH  10  12
BRANCH   1  20
ATOM     20  C   UNL     1      -0.083  -2.761  -0.245  0.00  0.00    +0.072 C 
ATOM     21  C   UNL     1      -1.603  -2.809  -0.417  0.00  0.00    +0.017 C 
BRANCH  20  23
ATOM     22  C   UNL     1      -0.256  -2.851   2.246  0.00  0.00    +0.004 C 
ATOM     23  C   UNL     1       0.261  -2.037   1.058  0.00  0.00    +0.009 C 
ENDBRANCH  20  23
ENDBRANCH   1  20
TORSDOF 3
