REMARK  Name = ZINC34906361
REMARK  7 active torsions:
REMARK  status: ('A' for Active; 'I' for Inactive)
REMARK    1  A    between atoms: C_5  and  N_7
REMARK    2  A    between atoms: N_10  and  C_11
REMARK    3  A    between atoms: C_17  and  N_19
REMARK    4  A    between atoms: C_20  and  C_22
REMARK    5  A    between atoms: C_25  and  C_27
REMARK    6  A    between atoms: C_27  and  O_28
REMARK    7  A    between atoms: O_28  and  C_29
REMARK                            x       y       z     vdW  Elec       q    Type
REMARK                         _______ _______ _______ _____ _____    ______ ____
ROOT
ATOM      1  C   UNL     1      -1.137  -4.871   0.300  0.00  0.00    +0.095 C 
ATOM      2  C   UNL     1      -1.713  -5.127  -1.095  0.00  0.00    +0.024 C 
ATOM      3  C   UNL     1      -3.019  -5.913  -0.971  0.00  0.00    +0.002 C 
ATOM      4  C   UNL     1      -2.747  -7.250  -0.279  0.00  0.00    +0.002 C 
ATOM      5  C   UNL     1      -2.171  -6.994   1.116  0.00  0.00    +0.024 C 
ATOM      6  C   UNL     1      -0.865  -6.208   0.992  0.00  0.00    +0.093 C 
ENDROOT
BRANCH   1  10
ATOM      7  N   UNL     1       1.236  -2.081  -0.021  0.00  0.00    -0.267 N 
ATOM      8  C   UNL     1       0.085  -2.774   0.088  0.00  0.00    +0.304 C 
ATOM      9  O   UNL     1      -0.979  -2.186   0.102  0.00  0.00    -0.252 OA
ATOM     10  N   UNL     1       0.114  -4.118   0.181  0.00  0.00    -0.295 N 
ATOM     11  H   UNL     1       2.079  -2.553  -0.115  0.00  0.00    +0.156 HD
ATOM     12  H   UNL     1       0.963  -4.587   0.170  0.00  0.00    +0.151 HD
BRANCH   7  17
ATOM     13  C   UNL     1       0.154   1.371   0.642  0.00  0.00    +0.002 A 
ATOM     14  C   UNL     1       1.174   2.087   0.042  0.00  0.00    +0.003 A 
ATOM     15  C   UNL     1       2.215   1.423  -0.579  0.00  0.00    +0.040 A 
ATOM     16  C   UNL     1       2.240   0.041  -0.603  0.00  0.00    +0.145 A 
ATOM     17  C   UNL     1       1.215  -0.681   0.000  0.00  0.00    +0.070 A 
ATOM     18  C   UNL     1       0.172  -0.010   0.623  0.00  0.00    +0.026 A 
ATOM     19  F   UNL     1       3.257  -0.608  -1.210  0.00  0.00    -0.204 F 
ENDBRANCH   7  17
ENDBRANCH   1  10
BRANCH   6  20
ATOM     20  N   UNL     1       0.097  -6.980   0.201  0.00  0.00    -0.305 N 
ATOM     21  C   UNL     1       0.866  -7.913   0.798  0.00  0.00    +0.263 C 
ATOM     22  O   UNL     1       0.761  -8.113   1.993  0.00  0.00    -0.269 OA
ATOM     23  H   UNL     1       0.181  -6.820  -0.752  0.00  0.00    +0.149 HD
BRANCH  21  24
ATOM     24  C   UNL     1       1.832  -8.689   0.003  0.00  0.00    +0.133 A 
ATOM     25  C   UNL     1       2.629  -9.649   0.567  0.00  0.00    +0.080 A 
ATOM     26  S   UNL     1       3.513 -10.204  -0.750  0.00  0.00    -0.076 S 
ATOM     27  C   UNL     1       2.861  -9.225  -1.947  0.00  0.00    +0.116 A 
ATOM     28  N   UNL     1       1.979  -8.501  -1.312  0.00  0.00    -0.236 NA
BRANCH  27  29
ATOM     29  C   UNL     1       3.208  -9.192  -3.413  0.00  0.00    +0.291 C 
BRANCH  29  30
ATOM     30  O   UNL     1       4.264  -8.255  -3.632  0.00  0.00    -0.482 OA
BRANCH  30  31
ATOM     31  C   UNL     1       4.699  -8.104  -4.911  0.00  0.00    +0.156 A 
ATOM     32  C   UNL     1       4.119  -8.838  -5.934  0.00  0.00    +0.048 A 
ATOM     33  C   UNL     1       4.563  -8.682  -7.234  0.00  0.00    +0.004 A 
ATOM     34  C   UNL     1       5.586  -7.796  -7.515  0.00  0.00    +0.003 A 
ATOM     35  C   UNL     1       6.168  -7.062  -6.498  0.00  0.00    +0.042 A 
ATOM     36  C   UNL     1       5.723  -7.209  -5.197  0.00  0.00    +0.165 A 
ATOM     37  F   UNL     1       6.287  -6.488  -4.204  0.00  0.00    -0.202 F 
ENDBRANCH  30  31
ENDBRANCH  29  30
ENDBRANCH  27  29
ENDBRANCH  21  24
ENDBRANCH   6  20
TORSDOF 7
