REMARK  Name = ZINC39217544
REMARK  6 active torsions:
REMARK  status: ('A' for Active; 'I' for Inactive)
REMARK    1  A    between atoms: C_1  and  C_2
REMARK    2  A    between atoms: C_4  and  C_16
REMARK    3  A    between atoms: C_6  and  C_14
REMARK    4  A    between atoms: C_7  and  N_13
REMARK    5  A    between atoms: C_18  and  C_21
REMARK    6  A    between atoms: C_21  and  N_22
REMARK                            x       y       z     vdW  Elec       q    Type
REMARK                         _______ _______ _______ _____ _____    ______ ____
ROOT
ATOM      1  C   UNL     1      -0.018   1.503   0.010  0.00  0.00    +0.067 C 
ATOM      2  C   UNL     1       0.002  -0.004   0.002  0.00  0.00    +0.066 C 
ATOM      3  C   UNL     1      -1.064  -0.768   0.003  0.00  0.00    +0.030 C 
ATOM      4  C   UNL     1      -2.537  -0.492  -0.122  0.00  0.00    +0.104 C 
ATOM      5  C   UNL     1      -3.075  -1.565  -1.050  0.00  0.00    +0.098 C 
ATOM      6  C   UNL     1      -2.317  -2.612  -1.438  0.00  0.00    +0.195 C 
ATOM      7  O   UNL     1      -1.033  -2.841  -1.107  0.00  0.00    -0.448 OA
ATOM      8  C   UNL     1      -0.528  -2.199   0.066  0.00  0.00    +0.343 C 
ATOM      9  N   UNL     1       0.921  -1.985   0.002  0.00  0.00    -0.138 NA
ATOM     10  N   UNL     1       1.127  -0.765  -0.013  0.00  0.00    -0.155 NA
ENDROOT
BRANCH   4  11
ATOM     11  C   UNL     1      -2.762   0.875  -0.717  0.00  0.00    +0.002 A 
ATOM     12  C   UNL     1      -3.409   1.941  -0.185  0.00  0.00    +0.014 A 
ATOM     13  C   UNL     1      -3.493   3.108  -0.920  0.00  0.00    -0.057 A 
ATOM     14  C   UNL     1      -2.927   3.153  -2.151  0.00  0.00    +0.047 A 
ATOM     15  S   UNL     1      -2.240   1.512  -2.301  0.00  0.00    -0.100 S 
BRANCH  13  16
ATOM     16  C   UNL     1      -4.204   4.314  -0.361  0.00  0.00    -0.042 C 
BRANCH  16  17
ATOM     17  N   UNL     1      -3.248   5.145   0.383  0.00  0.00    +0.382 N 
ATOM     18  C   UNL     1      -2.702   4.353   1.501  0.00  0.00    -0.078 C 
ATOM     19  C   UNL     1      -1.355   4.922   1.871  0.00  0.00    -0.019 C 
ATOM     20  C   UNL     1      -1.466   5.912   3.046  0.00  0.00    -0.002 C 
ATOM     21  C   UNL     1      -2.709   6.815   2.919  0.00  0.00    -0.002 C 
ATOM     22  C   UNL     1      -2.933   7.287   1.505  0.00  0.00    -0.019 C 
ATOM     23  C   UNL     1      -3.896   6.311   0.795  0.00  0.00    -0.078 C 
ATOM     24  H   UNL     1      -2.491   5.397  -0.234  0.00  0.00    -0.081 HD
ENDBRANCH  16  17
ENDBRANCH  13  16
ENDBRANCH   4  11
BRANCH   6  25
ATOM     25  N   UNL     1      -2.917  -3.538  -2.254  0.00  0.00    -0.329 N 
ATOM     26  H   UNL     1      -3.842  -3.421  -2.523  0.00  0.00    +0.145 HD
ATOM     27  H   UNL     1      -2.417  -4.310  -2.562  0.00  0.00    +0.145 HD
ENDBRANCH   6  25
BRANCH   5  28
ATOM     28  C   UNL     1      -4.422  -1.466  -1.525  0.00  0.00    +0.101 C 
ATOM     29  N   UNL     1      -5.491  -1.387  -1.903  0.00  0.00    -0.191 NA
ENDBRANCH   5  28
TORSDOF 5
