REMARK  Name = ZINC05267726
REMARK  4 active torsions:
REMARK  status: ('A' for Active; 'I' for Inactive)
REMARK    1  A    between atoms: C_1  and  C_2
REMARK    2  A    between atoms: C_5  and  C_8
REMARK    3  A    between atoms: C_11  and  C_23
REMARK    4  A    between atoms: C_20  and  C_22
REMARK                            x       y       z     vdW  Elec       q    Type
REMARK                         _______ _______ _______ _____ _____    ______ ____
ROOT
ATOM      1  C   UNL     1       0.059  -4.275  -0.021  0.00  0.00    +0.143 C 
ATOM      2  C   UNL     1       1.318  -4.777   0.697  0.00  0.00    +0.058 C 
ATOM      3  C   UNL     1       1.211  -6.288   0.935  0.00  0.00    +0.106 C 
ATOM      4  N   UNL     1       0.056  -6.545   1.817  0.00  0.00    -0.307 N 
ATOM      5  C   UNL     1      -1.104  -5.838   1.532  0.00  0.00    +0.216 A 
ATOM      6  N   UNL     1      -1.121  -4.785   0.677  0.00  0.00    -0.224 N 
ATOM      7  N   UNL     1      -2.438  -4.329   0.627  0.00  0.00    -0.131 NA
ATOM      8  C   UNL     1      -3.138  -5.102   1.427  0.00  0.00    +0.242 A 
ATOM      9  N   UNL     1      -2.318  -6.017   1.978  0.00  0.00    -0.180 NA
ATOM     10  N   UNL     1      -4.510  -4.989   1.671  0.00  0.00    -0.253 N 
ATOM     11  C   UNL     1      -5.117  -5.845   2.516  0.00  0.00    +0.216 C 
ATOM     12  O   UNL     1      -4.473  -6.714   3.065  0.00  0.00    -0.276 OA
ATOM     13  C   UNL     1      -6.596  -5.723   2.779  0.00  0.00    +0.109 C 
ATOM     14  H   UNL     1       0.105  -7.173   2.555  0.00  0.00    +0.149 HD
ATOM     15  H   UNL     1      -5.025  -4.294   1.231  0.00  0.00    +0.158 HD
ENDROOT
BRANCH   1  20
ATOM     16  C   UNL     1      -0.018   1.503   0.010  0.00  0.00    +0.044 C 
ATOM     17  C   UNL     1       0.002  -0.004   0.002  0.00  0.00    -0.050 A 
ATOM     18  C   UNL     1       0.006  -0.689  -1.199  0.00  0.00    +0.004 A 
ATOM     19  C   UNL     1       0.025  -2.071  -1.206  0.00  0.00    +0.006 A 
ATOM     20  C   UNL     1       0.040  -2.768  -0.013  0.00  0.00    -0.023 A 
ATOM     21  C   UNL     1       0.037  -2.084   1.188  0.00  0.00    +0.006 A 
ATOM     22  C   UNL     1       0.023  -0.702   1.195  0.00  0.00    +0.004 A 
ENDBRANCH   1  20
BRANCH   3  23
ATOM     23  C   UNL     1       2.473  -6.788   1.588  0.00  0.00    -0.027 A 
ATOM     24  C   UNL     1       2.657  -6.629   2.949  0.00  0.00    +0.005 A 
ATOM     25  C   UNL     1       3.814  -7.088   3.549  0.00  0.00    +0.000 A 
ATOM     26  C   UNL     1       4.789  -7.706   2.788  0.00  0.00    +0.000 A 
ATOM     27  C   UNL     1       4.605  -7.865   1.427  0.00  0.00    +0.000 A 
ATOM     28  C   UNL     1       3.445  -7.410   0.828  0.00  0.00    +0.005 A 
ENDBRANCH   3  23
TORSDOF 2
