REMARK  Name = ZINC65329884
REMARK  9 active torsions:
REMARK  status: ('A' for Active; 'I' for Inactive)
REMARK    1  A    between atoms: C_1  and  C_2
REMARK    2  A    between atoms: C_2  and  O_3
REMARK    3  A    between atoms: O_3  and  C_4
REMARK    4  A    between atoms: C_7  and  C_10
REMARK    5  A    between atoms: C_10  and  N_12
REMARK    6  A    between atoms: N_14  and  C_15
REMARK    7  A    between atoms: N_21  and  C_22
REMARK    8  A    between atoms: C_22  and  C_23
REMARK    9  A    between atoms: C_23  and  C_24
REMARK                            x       y       z     vdW  Elec       q    Type
REMARK                         _______ _______ _______ _____ _____    ______ ____
ROOT
ATOM      1  N   UNL     1       2.573  -6.769   3.319  0.00  0.00    -0.143 NA
ATOM      2  C   UNL     1       2.354  -7.793   2.510  0.00  0.00    +0.194 C 
ATOM      3  N   UNL     1       1.152  -7.916   1.873  0.00  0.00    -0.328 N 
ATOM      4  N   UNL     1       3.330  -8.726   2.311  0.00  0.00    -0.357 N 
ATOM      5  H   UNL     1       0.816  -7.189   1.327  0.00  0.00    +0.169 HD
ATOM      6  H   UNL     1       4.166  -8.665   2.799  0.00  0.00    +0.162 HD
ENDROOT
BRANCH   3   7
ATOM      7  C   UNL     1       0.406  -9.092   2.009  0.00  0.00    +0.042 A 
ATOM      8  C   UNL     1       0.396  -9.774   3.219  0.00  0.00    +0.026 A 
ATOM      9  C   UNL     1      -0.341 -10.934   3.349  0.00  0.00    +0.002 A 
ATOM     10  C   UNL     1      -1.069 -11.417   2.277  0.00  0.00    +0.000 A 
ATOM     11  C   UNL     1      -1.061 -10.741   1.071  0.00  0.00    +0.002 A 
ATOM     12  C   UNL     1      -0.330  -9.576   0.936  0.00  0.00    +0.026 A 
ENDBRANCH   3   7
BRANCH   1  13
ATOM     13  C   UNL     1       1.573  -5.929   3.623  0.00  0.00    +0.270 C 
ATOM     14  O   UNL     1       0.488  -6.054   3.083  0.00  0.00    -0.268 OA
BRANCH  13  18
ATOM     15  C   UNL     1       2.188  -2.834   6.468  0.00  0.00    +0.121 A 
ATOM     16  C   UNL     1       0.950  -2.974   5.853  0.00  0.00    +0.046 A 
ATOM     17  C   UNL     1       0.747  -3.976   4.931  0.00  0.00    +0.017 A 
ATOM     18  C   UNL     1       1.788  -4.852   4.613  0.00  0.00    +0.039 A 
ATOM     19  C   UNL     1       3.030  -4.707   5.232  0.00  0.00    +0.017 A 
ATOM     20  C   UNL     1       3.228  -3.700   6.151  0.00  0.00    +0.046 A 
BRANCH  15  21
ATOM     21  O   UNL     1       2.385  -1.845   7.377  0.00  0.00    -0.492 OA
BRANCH  21  23
ATOM     22  C   UNL     1       1.683   0.054   8.697  0.00  0.00    +0.048 C 
ATOM     23  C   UNL     1       1.274  -0.991   7.657  0.00  0.00    +0.225 C 
ENDBRANCH  21  23
ENDBRANCH  15  21
ENDBRANCH  13  18
ENDBRANCH   1  13
BRANCH   4  24
ATOM     24  C   UNL     1       3.114  -9.821   1.361  0.00  0.00    +0.120 C 
BRANCH  24  25
ATOM     25  C   UNL     1       4.354 -10.716   1.326  0.00  0.00    +0.054 C 
BRANCH  25  26
ATOM     26  C   UNL     1       4.182 -11.770   0.262  0.00  0.00    -0.040 C 
ATOM     27  C   UNL     1       4.594 -11.702  -1.024  0.00  0.00    -0.001 A 
ATOM     28  C   UNL     1       5.298 -10.666  -1.790  0.00  0.00    +0.010 A 
ATOM     29  C   UNL     1       5.579 -10.890  -3.093  0.00  0.00    +0.001 A 
ATOM     30  C   UNL     1       5.216 -12.085  -3.730  0.00  0.00    +0.002 A 
ATOM     31  C   UNL     1       4.568 -13.083  -3.094  0.00  0.00    +0.026 A 
ATOM     32  C   UNL     1       4.222 -12.955  -1.720  0.00  0.00    +0.043 A 
ATOM     33  N   UNL     1       3.604 -13.766  -0.896  0.00  0.00    -0.380 N 
ATOM     34  C   UNL     1       3.520 -13.121   0.419  0.00  0.00    +0.144 C 
ATOM     35  H   UNL     1       3.264 -14.646  -1.117  0.00  0.00    +0.160 HD
ENDBRANCH  25  26
ENDBRANCH  24  25
ENDBRANCH   4  24
TORSDOF 8
