REMARK  Name = ZINC44196070
REMARK  14 active torsions:
REMARK  status: ('A' for Active; 'I' for Inactive)
REMARK    1  A    between atoms: C_1  and  C_2
REMARK    2  A    between atoms: C_2  and  C_3
REMARK    3  A    between atoms: C_3  and  C_4
REMARK    4  A    between atoms: C_4  and  O_5
REMARK    5  A    between atoms: O_5  and  C_6
REMARK    6  A    between atoms: C_8  and  C_14
REMARK    7  A    between atoms: C_11  and  O_12
REMARK    8  A    between atoms: O_12  and  C_13
REMARK    9  A    between atoms: C_14  and  C_16
REMARK   10  A    between atoms: C_14  and  N_20
REMARK   11  A    between atoms: C_16  and  C_17
REMARK   12  A    between atoms: C_21  and  O_23
REMARK   13  A    between atoms: O_23  and  C_24
REMARK   14  A    between atoms: C_24  and  C_25
REMARK                            x       y       z     vdW  Elec       q    Type
REMARK                         _______ _______ _______ _____ _____    ______ ____
ROOT
ATOM      1  N   UNL     1      -1.374  -8.026  -0.873  0.00  0.00    -0.274 N 
ATOM      2  C   UNL     1      -0.452  -8.696  -1.592  0.00  0.00    +0.401 C 
ATOM      3  O   UNL     1       0.705  -8.323  -1.594  0.00  0.00    -0.226 OA
ATOM      4  H   UNL     1      -2.309  -8.279  -0.928  0.00  0.00    +0.153 HD
ENDROOT
BRANCH   1   5
ATOM      5  C   UNL     1      -0.965  -6.916  -0.009  0.00  0.00    +0.117 C 
BRANCH   5   8
ATOM      6  C   UNL     1      -2.962  -3.728   0.335  0.00  0.00    +0.162 A 
ATOM      7  C   UNL     1      -1.900  -4.602   0.170  0.00  0.00    +0.055 A 
ATOM      8  C   UNL     1      -2.121  -5.967   0.171  0.00  0.00    -0.023 A 
ATOM      9  C   UNL     1      -3.401  -6.462   0.336  0.00  0.00    +0.009 A 
ATOM     10  C   UNL     1      -4.466  -5.595   0.500  0.00  0.00    +0.050 A 
ATOM     11  C   UNL     1      -4.250  -4.226   0.507  0.00  0.00    +0.162 A 
BRANCH  11  12
ATOM     12  O   UNL     1      -5.295  -3.373   0.674  0.00  0.00    -0.491 OA
ATOM     13  C   UNL     1      -6.588  -3.956   0.845  0.00  0.00    +0.277 C 
ENDBRANCH  11  12
BRANCH   6  14
ATOM     14  O   UNL     1      -2.746  -2.385   0.335  0.00  0.00    -0.488 OA
BRANCH  14  15
ATOM     15  C   UNL     1      -1.399  -1.945   0.153  0.00  0.00    +0.229 C 
BRANCH  15  16
ATOM     16  C   UNL     1      -1.353  -0.416   0.181  0.00  0.00    +0.041 C 
BRANCH  16  18
ATOM     17  C   UNL     1       0.135   1.585   0.015  0.00  0.00    +0.004 C 
ATOM     18  C   UNL     1       0.089   0.055  -0.013  0.00  0.00    -0.000 C 
ENDBRANCH  16  18
ENDBRANCH  15  16
ENDBRANCH  14  15
ENDBRANCH   6  14
ENDBRANCH   5   8
BRANCH   5  19
ATOM     19  C   UNL     1      -0.537  -7.462   1.355  0.00  0.00    +0.152 C 
BRANCH  19  20
ATOM     20  C   UNL     1       0.036  -6.344   2.187  0.00  0.00    +0.358 C 
ATOM     21  O   UNL     1       0.212  -5.244   1.691  0.00  0.00    -0.246 OA
ATOM     22  O   UNL     1       0.322  -6.539   3.356  0.00  0.00    -0.246 OA
ENDBRANCH  19  20
ENDBRANCH   5  19
ENDBRANCH   1   5
BRANCH   2  23
ATOM     23  O   UNL     1      -0.812  -9.778  -2.307  0.00  0.00    -0.449 OA
BRANCH  23  24
ATOM     24  C   UNL     1       0.218 -10.440  -3.045  0.00  0.00    +0.246 C 
BRANCH  24  25
ATOM     25  C   UNL     1      -0.377 -11.637  -3.789  0.00  0.00    +0.088 C 
ATOM     26  C   UNL     1      -0.799 -12.702  -2.806  0.00  0.00    -0.029 A 
ATOM     27  C   UNL     1      -1.713 -12.699  -1.774  0.00  0.00    +0.005 A 
ATOM     28  C   UNL     1      -1.905 -13.840  -1.015  0.00  0.00    +0.000 A 
ATOM     29  C   UNL     1      -1.180 -14.986  -1.290  0.00  0.00    +0.001 A 
ATOM     30  C   UNL     1      -0.263 -14.998  -2.320  0.00  0.00    +0.009 A 
ATOM     31  C   UNL     1      -0.065 -13.850  -3.090  0.00  0.00    -0.014 A 
ATOM     32  C   UNL     1       0.840 -13.587  -4.237  0.00  0.00    -0.014 A 
ATOM     33  C   UNL     1       0.670 -12.274  -4.669  0.00  0.00    -0.029 A 
ATOM     34  C   UNL     1       1.406 -11.791  -5.730  0.00  0.00    +0.005 A 
ATOM     35  C   UNL     1       2.318 -12.611  -6.371  0.00  0.00    +0.000 A 
ATOM     36  C   UNL     1       2.493 -13.916  -5.950  0.00  0.00    +0.001 A 
ATOM     37  C   UNL     1       1.761 -14.408  -4.889  0.00  0.00    +0.009 A 
ENDBRANCH  24  25
ENDBRANCH  23  24
ENDBRANCH   2  23
TORSDOF 12
