REMARK  Name = ZINC28060374
REMARK  3 active torsions:
REMARK  status: ('A' for Active; 'I' for Inactive)
REMARK    1  A    between atoms: C_1  and  C_2
REMARK    2  A    between atoms: C_5  and  C_8
REMARK    3  A    between atoms: C_25  and  C_27
REMARK                            x       y       z     vdW  Elec       q    Type
REMARK                         _______ _______ _______ _____ _____    ______ ____
ROOT
ATOM      1  C   UNL     1      -1.466  -1.160  -2.562  0.00  0.00    +0.234 C 
ATOM      2  C   UNL     1      -2.235  -0.668  -1.357  0.00  0.00    +0.026 C 
ATOM      3  C   UNL     1      -3.473  -0.198  -1.523  0.00  0.00    +0.050 C 
ATOM      4  C   UNL     1      -4.051  -0.198  -2.888  0.00  0.00    +0.038 A 
ATOM      5  C   UNL     1      -5.167   0.565  -3.205  0.00  0.00    +0.013 A 
ATOM      6  C   UNL     1      -5.674   0.528  -4.490  0.00  0.00    +0.001 A 
ATOM      7  C   UNL     1      -5.076  -0.264  -5.455  0.00  0.00    +0.004 A 
ATOM      8  C   UNL     1      -3.964  -1.027  -5.147  0.00  0.00    +0.046 A 
ATOM      9  C   UNL     1      -3.444  -0.997  -3.866  0.00  0.00    +0.131 A 
ATOM     10  O   UNL     1      -2.353  -1.728  -3.525  0.00  0.00    -0.479 OA
ATOM     11  N   UNL     1      -4.240   0.282  -0.454  0.00  0.00    -0.282 N 
ATOM     12  C   UNL     1      -3.793  -0.003   0.826  0.00  0.00    +0.240 A 
ATOM     13  N   UNL     1      -4.382   0.096   1.982  0.00  0.00    -0.092 NA
ATOM     14  N   UNL     1      -3.588  -0.291   2.922  0.00  0.00    -0.021 NA
ATOM     15  N   UNL     1      -2.450  -0.657   2.427  0.00  0.00    -0.042 NA
ATOM     16  N   UNL     1      -2.540  -0.479   1.048  0.00  0.00    -0.201 N 
ATOM     17  C   UNL     1      -1.564  -0.717  -0.006  0.00  0.00    +0.181 C 
ATOM     18  H   UNL     1      -5.155   0.859  -0.650  0.00  0.00    +0.155 HD
ENDROOT
BRANCH   1  23
ATOM     19  C   UNL     1       1.358   3.275  -4.960  0.00  0.00    +0.044 C 
ATOM     20  C   UNL     1       0.622   2.118  -4.335  0.00  0.00    -0.050 A 
ATOM     21  C   UNL     1      -0.748   2.009  -4.485  0.00  0.00    +0.004 A 
ATOM     22  C   UNL     1      -1.424   0.948  -3.911  0.00  0.00    +0.008 A 
ATOM     23  C   UNL     1      -0.729  -0.004  -3.188  0.00  0.00    -0.003 A 
ATOM     24  C   UNL     1       0.640   0.109  -3.033  0.00  0.00    +0.008 A 
ATOM     25  C   UNL     1       1.316   1.167  -3.612  0.00  0.00    +0.004 A 
ENDBRANCH   1  23
BRANCH  17  26
ATOM     26  C   UNL     1      -0.492   0.341   0.058  0.00  0.00    +0.019 A 
ATOM     27  C   UNL     1       0.840   0.196   0.262  0.00  0.00    +0.013 A 
ATOM     28  C   UNL     1       1.642   1.321   0.282  0.00  0.00    +0.008 A 
ATOM     29  C   UNL     1       1.073   2.537   0.097  0.00  0.00    +0.045 A 
ATOM     30  S   UNL     1      -0.648   2.111  -0.115  0.00  0.00    -0.099 S 
ENDBRANCH  17  26
TORSDOF 2
