REMARK  Name = ZINC39790090
REMARK  7 active torsions:
REMARK  status: ('A' for Active; 'I' for Inactive)
REMARK    1  A    between atoms: C_1  and  C_2
REMARK    2  A    between atoms: C_6  and  N_12
REMARK    3  A    between atoms: C_9  and  C_11
REMARK    4  A    between atoms: C_13  and  C_15
REMARK    5  A    between atoms: C_15  and  S_16
REMARK    6  A    between atoms: S_16  and  C_17
REMARK    7  A    between atoms: N_20  and  C_24
REMARK                            x       y       z     vdW  Elec       q    Type
REMARK                         _______ _______ _______ _____ _____    ______ ____
ROOT
ATOM      1  N   UNL     1       4.059  -0.872  -3.225  0.00  0.00    -0.285 N 
ATOM      2  C   UNL     1       4.928  -0.928  -4.254  0.00  0.00    +0.225 C 
ATOM      3  O   UNL     1       5.344  -2.001  -4.638  0.00  0.00    -0.275 OA
ATOM      4  H   UNL     1       3.727  -0.014  -2.918  0.00  0.00    +0.151 HD
ENDROOT
BRANCH   1   9
ATOM      5  C   UNL     1       1.424   0.003   0.745  0.00  0.00    +0.030 C 
ATOM      6  C   UNL     1       1.584  -1.502   0.522  0.00  0.00    +0.099 C 
ATOM      7  C   UNL     1       2.103  -1.754  -0.868  0.00  0.00    -0.011 C 
ATOM      8  C   UNL     1       3.421  -1.872  -1.107  0.00  0.00    +0.065 C 
ATOM      9  C   UNL     1       3.617  -2.106  -2.571  0.00  0.00    +0.243 C 
ATOM     10  O   UNL     1       2.326  -2.507  -3.080  0.00  0.00    -0.347 OA
ATOM     11  C   UNL     1       1.377  -1.912  -2.169  0.00  0.00    +0.146 C 
ATOM     12  C   UNL     1       0.928  -0.546  -2.692  0.00  0.00    +0.043 C 
ATOM     13  C   UNL     1       4.381  -1.776   0.003  0.00  0.00    +0.258 C 
ATOM     14  O   UNL     1       5.582  -1.731  -0.185  0.00  0.00    -0.269 OA
ATOM     15  N   UNL     1       3.845  -1.739   1.248  0.00  0.00    -0.247 N 
ATOM     16  N   UNL     1       2.542  -2.045   1.494  0.00  0.00    -0.233 NA
ATOM     17  H   UNL     1       4.412  -1.486   1.993  0.00  0.00    +0.169 HD
ATOM     18  H   UNL     1       2.419  -3.040   1.606  0.00  0.00    +0.145 HD
ENDBRANCH   1   9
BRANCH   2  19
ATOM     19  C   UNL     1       5.383   0.341  -4.927  0.00  0.00    +0.167 C 
BRANCH  19  20
ATOM     20  S   UNL     1       6.541  -0.065  -6.263  0.00  0.00    -0.120 S 
BRANCH  20  21
ATOM     21  C   UNL     1       6.988   1.549  -6.961  0.00  0.00    +0.195 C 
ATOM     22  N   UNL     1       7.521   2.471  -5.918  0.00  0.00    -0.211 NA
ATOM     23  N   UNL     1       7.147   3.756  -6.074  0.00  0.00    -0.221 N 
ATOM     24  C   UNL     1       6.056   4.095  -6.801  0.00  0.00    +0.130 C 
ATOM     25  S   UNL     1       5.382   5.649  -7.050  0.00  0.00    -0.026 S 
ATOM     26  S   UNL     1       5.493   2.519  -7.440  0.00  0.00    -0.070 S 
ATOM     27  H   UNL     1       7.295   2.138  -4.992  0.00  0.00    +0.147 HD
BRANCH  23  28
ATOM     28  C   UNL     1       7.904   4.766  -5.468  0.00  0.00    +0.051 A 
ATOM     29  C   UNL     1       8.262   4.660  -4.131  0.00  0.00    +0.028 A 
ATOM     30  C   UNL     1       9.010   5.657  -3.536  0.00  0.00    +0.040 A 
ATOM     31  C   UNL     1       9.402   6.762  -4.271  0.00  0.00    +0.124 A 
ATOM     32  C   UNL     1       9.046   6.870  -5.605  0.00  0.00    +0.040 A 
ATOM     33  C   UNL     1       8.304   5.873  -6.206  0.00  0.00    +0.028 A 
ATOM     34  F   UNL     1      10.133   7.737  -3.687  0.00  0.00    -0.205 F 
ENDBRANCH  23  28
ENDBRANCH  20  21
ENDBRANCH  19  20
ENDBRANCH   2  19
TORSDOF 5
