REMARK  Name = ZINC22852141
REMARK  6 active torsions:
REMARK  status: ('A' for Active; 'I' for Inactive)
REMARK    1  A    between atoms: C_4  and  N_7
REMARK    2  A    between atoms: N_10  and  C_13
REMARK    3  A    between atoms: C_13  and  C_15
REMARK    4  A    between atoms: C_13  and  C_22
REMARK    5  A    between atoms: C_23  and  O_35
REMARK    6  A    between atoms: C_28  and  C_30
REMARK                            x       y       z     vdW  Elec       q    Type
REMARK                         _______ _______ _______ _____ _____    ______ ____
ROOT
ATOM      1  C   UNL     1      -8.386   0.319   0.037  0.00  0.00    +0.132 C 
ENDROOT
BRANCH   1   2
ATOM      2  C   UNL     1      -6.881   0.400   0.031  0.00  0.00    +0.076 A 
ATOM      3  C   UNL     1      -6.094   1.482   0.034  0.00  0.00    +0.228 A 
ATOM      4  N   UNL     1      -4.726   1.354   0.028  0.00  0.00    -0.173 N 
ATOM      5  C   UNL     1      -4.219   0.084   0.019  0.00  0.00    +0.200 A 
ATOM      6  S   UNL     1      -5.682  -0.924   0.019  0.00  0.00    -0.047 S 
ATOM      7  N   UNL     1      -2.916   0.130   0.009  0.00  0.00    -0.197 NA
ATOM      8  C   UNL     1      -2.518   1.410   0.020  0.00  0.00    +0.218 A 
ATOM      9  N   UNL     1      -3.578   2.189   0.029  0.00  0.00    -0.138 NA
BRANCH   8  10
ATOM     10  C   UNL     1      -1.115   1.872   0.017  0.00  0.00    +0.173 A 
ATOM     11  C   UNL     1      -0.013   1.076   0.008  0.00  0.00    +0.053 A 
ATOM     12  C   UNL     1       1.107   1.932   0.002  0.00  0.00    +0.042 A 
ATOM     13  C   UNL     1       0.638   3.195   0.013  0.00  0.00    +0.196 A 
ATOM     14  O   UNL     1      -0.705   3.155   0.026  0.00  0.00    -0.460 OA
ENDBRANCH   8  10
BRANCH   3  15
ATOM     15  O   UNL     1      -6.654   2.721   0.043  0.00  0.00    -0.492 OA
ATOM     16  H   UNL     1      -6.012   3.615   0.045  0.00  0.00    +0.294 HD
ENDBRANCH   3  15
ENDBRANCH   1   2
BRANCH   1  17
ATOM     17  C   UNL     1      -8.873  -0.067  -1.336  0.00  0.00    +0.010 A 
ATOM     18  C   UNL     1      -9.231  -1.375  -1.600  0.00  0.00    +0.008 A 
ATOM     19  C   UNL     1      -9.678  -1.729  -2.859  0.00  0.00    +0.000 A 
ATOM     20  C   UNL     1      -9.769  -0.775  -3.856  0.00  0.00    +0.003 A 
ATOM     21  C   UNL     1      -9.412   0.534  -3.594  0.00  0.00    +0.039 A 
ATOM     22  C   UNL     1      -8.968   0.891  -2.332  0.00  0.00    +0.128 A 
ATOM     23  F   UNL     1      -8.624   2.171  -2.073  0.00  0.00    -0.205 F 
ENDBRANCH   1  17
BRANCH   1  27
ATOM     24  N   UNL     1     -10.220  -1.632   3.304  0.00  0.00    -0.327 N 
ATOM     25  C   UNL     1      -8.761  -1.461   3.335  0.00  0.00    +0.120 C 
ATOM     26  C   UNL     1      -8.360  -0.347   2.365  0.00  0.00    +0.104 C 
ATOM     27  N   UNL     1      -8.818  -0.691   1.012  0.00  0.00    -0.288 NA
ATOM     28  C   UNL     1     -10.277  -0.862   0.981  0.00  0.00    +0.104 C 
ATOM     29  C   UNL     1     -10.679  -1.976   1.951  0.00  0.00    +0.120 C 
BRANCH  24  33
ATOM     30  C   UNL     1     -11.447  -4.495   6.067  0.00  0.00    +0.000 A 
ATOM     31  C   UNL     1     -12.383  -3.853   5.277  0.00  0.00    +0.002 A 
ATOM     32  C   UNL     1     -11.980  -2.903   4.359  0.00  0.00    +0.023 A 
ATOM     33  C   UNL     1     -10.632  -2.592   4.231  0.00  0.00    +0.030 A 
ATOM     34  C   UNL     1      -9.694  -3.242   5.022  0.00  0.00    +0.023 A 
ATOM     35  C   UNL     1     -10.104  -4.188   5.941  0.00  0.00    +0.002 A 
ENDBRANCH  24  33
ENDBRANCH   1  27
TORSDOF 6
