REMARK  Name = ZINC12773254
REMARK  12 active torsions:
REMARK  status: ('A' for Active; 'I' for Inactive)
REMARK    1  A    between atoms: C_1  and  C_2
REMARK    2  A    between atoms: C_2  and  C_4
REMARK    3  A    between atoms: C_2  and  N_52
REMARK    4  A    between atoms: C_7  and  S_10
REMARK    5  A    between atoms: S_10  and  N_13
REMARK    6  A    between atoms: C_14  and  N_52
REMARK    7  A    between atoms: C_15  and  C_16
REMARK    8  A    between atoms: C_15  and  N_52
REMARK    9  A    between atoms: N_18  and  C_19
REMARK   10  A    between atoms: C_24  and  O_25
REMARK   11  A    between atoms: O_25  and  C_26
REMARK   12  A    between atoms: C_26  and  C_27
REMARK                            x       y       z     vdW  Elec       q    Type
REMARK                         _______ _______ _______ _____ _____    ______ ____
ROOT
ATOM      1  C   UNL     1      -2.829   3.834   7.245  0.00  0.00    +0.019 C 
ENDROOT
BRANCH   1   2
ATOM      2  C   UNL     1      -1.789   4.272   8.245  0.00  0.00    +0.201 C 
ATOM      3  O   UNL     1      -0.642   4.442   7.891  0.00  0.00    -0.278 OA
ATOM      4  N   UNL     1      -2.135   4.474   9.531  0.00  0.00    -0.284 N 
ATOM      5  H   UNL     1      -3.066   4.417   9.798  0.00  0.00    +0.155 HD
BRANCH   4   6
ATOM      6  C   UNL     1      -1.150   4.765  10.484  0.00  0.00    +0.076 A 
ATOM      7  C   UNL     1       0.161   4.361  10.275  0.00  0.00    +0.027 A 
ATOM      8  C   UNL     1       1.132   4.654  11.214  0.00  0.00    +0.002 A 
ATOM      9  C   UNL     1       0.799   5.341  12.367  0.00  0.00    +0.004 A 
ATOM     10  C   UNL     1      -0.506   5.742  12.585  0.00  0.00    +0.047 A 
ATOM     11  C   UNL     1      -1.484   5.457  11.646  0.00  0.00    +0.142 A 
BRANCH  11  12
ATOM     12  O   UNL     1      -2.769   5.850  11.859  0.00  0.00    -0.481 OA
BRANCH  12  13
ATOM     13  C   UNL     1      -3.038   6.555  13.072  0.00  0.00    +0.342 C 
BRANCH  13  14
ATOM     14  C   UNL     1      -4.525   6.912  13.135  0.00  0.00    +0.424 C 
ATOM     15  F   UNL     1      -5.288   5.740  13.096  0.00  0.00    -0.167 F 
ATOM     16  F   UNL     1      -4.789   7.602  14.323  0.00  0.00    -0.167 F 
ATOM     17  F   UNL     1      -4.856   7.721  12.043  0.00  0.00    -0.167 F 
ENDBRANCH  13  14
ENDBRANCH  12  13
ENDBRANCH  11  12
ENDBRANCH   4   6
ENDBRANCH   1   2
BRANCH   1  19
ATOM     18  C   UNL     1      -1.748   4.982   5.407  0.00  0.00    -0.095 C 
ATOM     19  N   UNL     1      -2.182   3.668   5.926  0.00  0.00    +0.388 N 
ATOM     20  H   UNL     1      -1.359   3.063   6.032  0.00  0.00    -0.081 HD
BRANCH  19  22
ATOM     21  C   UNL     1      -4.201   4.033   4.548  0.00  0.00    -0.008 C 
ATOM     22  C   UNL     1      -3.123   3.036   4.978  0.00  0.00    -0.041 C 
BRANCH  22  23
ATOM     23  C   UNL     1      -2.354   2.575   3.767  0.00  0.00    -0.061 A 
ATOM     24  C   UNL     1      -2.975   2.519   2.533  0.00  0.00    +0.004 A 
ATOM     25  C   UNL     1      -2.270   2.096   1.423  0.00  0.00    +0.029 A 
ATOM     26  C   UNL     1      -0.943   1.729   1.545  0.00  0.00    +0.105 A 
ATOM     27  C   UNL     1      -0.323   1.781   2.779  0.00  0.00    +0.029 A 
ATOM     28  C   UNL     1      -1.027   2.208   3.889  0.00  0.00    +0.004 A 
BRANCH  26  29
ATOM     29  S   UNL     1      -0.043   1.190   0.129  0.00  0.00    +0.056 S 
ATOM     30  O   UNL     1      -1.003   0.707  -0.802  0.00  0.00    -0.153 OA
ATOM     31  O   UNL     1       1.025   0.385   0.609  0.00  0.00    -0.153 OA
BRANCH  29  32
ATOM     32  N   UNL     1       0.645   2.532  -0.554  0.00  0.00    -0.204 NA
ATOM     33  H   UNL     1       0.425   2.780  -1.466  0.00  0.00    +0.144 HD
ATOM     34  H   UNL     1       1.268   3.071  -0.043  0.00  0.00    +0.144 HD
ENDBRANCH  29  32
ENDBRANCH  26  29
ENDBRANCH  22  23
ENDBRANCH  19  22
ENDBRANCH   1  19
TORSDOF 10
