REMARK  Name = ZINC08801648
REMARK  7 active torsions:
REMARK  status: ('A' for Active; 'I' for Inactive)
REMARK    1  A    between atoms: C_1  and  N_2
REMARK    2  A    between atoms: C_9  and  C_11
REMARK    3  A    between atoms: C_11  and  C_13
REMARK    4  A    between atoms: C_11  and  N_63
REMARK    5  A    between atoms: C_13  and  N_14
REMARK    6  A    between atoms: N_14  and  S_15
REMARK    7  A    between atoms: S_15  and  C_18
REMARK                            x       y       z     vdW  Elec       q    Type
REMARK                         _______ _______ _______ _____ _____    ______ ____
ROOT
ATOM      1  C   UNL     1      -2.531   1.735   2.705  0.00  0.00    -0.022 C 
ENDROOT
BRANCH   1  10
ATOM      2  C   UNL     1      -8.608  -0.132   3.879  0.00  0.00    +0.129 C 
ATOM      3  N   UNL     1      -7.455  -0.151   4.789  0.00  0.00    -0.332 N 
ATOM      4  C   UNL     1      -7.097  -1.536   5.162  0.00  0.00    +0.109 C 
ATOM      5  C   UNL     1      -5.568  -1.444   5.374  0.00  0.00    +0.056 C 
ATOM      6  C   UNL     1      -5.178  -0.267   4.503  0.00  0.00    -0.025 A 
ATOM      7  C   UNL     1      -6.334   0.438   4.191  0.00  0.00    +0.033 A 
ATOM      8  C   UNL     1      -6.241   1.571   3.385  0.00  0.00    +0.023 A 
ATOM      9  C   UNL     1      -5.014   1.984   2.908  0.00  0.00    +0.004 A 
ATOM     10  C   UNL     1      -3.869   1.278   3.227  0.00  0.00    -0.059 A 
ATOM     11  C   UNL     1      -3.954   0.149   4.021  0.00  0.00    +0.007 A 
ENDBRANCH   1  10
BRANCH   1  17
ATOM     12  C   UNL     1      -1.222   3.691   2.139  0.00  0.00    -0.078 C 
ATOM     13  C   UNL     1      -1.246   5.221   2.089  0.00  0.00    -0.019 C 
ATOM     14  C   UNL     1      -1.373   5.771   3.512  0.00  0.00    -0.004 C 
ATOM     15  C   UNL     1      -2.641   5.207   4.158  0.00  0.00    -0.019 C 
ATOM     16  C   UNL     1      -2.576   3.678   4.148  0.00  0.00    -0.078 C 
ATOM     17  N   UNL     1      -2.480   3.211   2.749  0.00  0.00    +0.385 N 
ATOM     18  H   UNL     1      -3.273   3.588   2.217  0.00  0.00    -0.081 HD
ENDBRANCH   1  17
BRANCH   1  19
ATOM     19  C   UNL     1      -2.365   1.275   1.255  0.00  0.00    +0.095 C 
BRANCH  19  20
ATOM     20  N   UNL     1      -2.386  -0.189   1.202  0.00  0.00    -0.191 NA
ATOM     21  H   UNL     1      -2.263  -0.706   2.014  0.00  0.00    +0.148 HD
BRANCH  20  22
ATOM     22  S   UNL     1      -2.619  -0.962  -0.243  0.00  0.00    +0.059 S 
ATOM     23  O   UNL     1      -3.762  -0.367  -0.843  0.00  0.00    -0.153 OA
ATOM     24  O   UNL     1      -2.538  -2.356   0.023  0.00  0.00    -0.153 OA
BRANCH  22  25
ATOM     25  C   UNL     1      -1.246  -0.566  -1.274  0.00  0.00    +0.113 A 
ATOM     26  C   UNL     1      -1.432   0.149  -2.417  0.00  0.00    +0.029 A 
ATOM     27  C   UNL     1      -0.359   0.472  -3.244  0.00  0.00    +0.003 A 
ATOM     28  C   UNL     1       0.908   0.083  -2.933  0.00  0.00    +0.008 A 
ATOM     29  C   UNL     1       1.140  -0.657  -1.761  0.00  0.00    -0.016 A 
ATOM     30  C   UNL     1       0.048  -0.981  -0.917  0.00  0.00    +0.008 A 
ATOM     31  C   UNL     1       0.279  -1.724   0.253  0.00  0.00    +0.010 A 
ATOM     32  C   UNL     1       1.546  -2.115   0.564  0.00  0.00    +0.001 A 
ATOM     33  C   UNL     1       2.619  -1.792  -0.264  0.00  0.00    +0.001 A 
ATOM     34  C   UNL     1       2.433  -1.077  -1.407  0.00  0.00    +0.008 A 
ENDBRANCH  22  25
ENDBRANCH  20  22
ENDBRANCH  19  20
ENDBRANCH   1  19
TORSDOF 6
