REMARK  Name = ZINC09672342
REMARK  6 active torsions:
REMARK  status: ('A' for Active; 'I' for Inactive)
REMARK    1  A    between atoms: C_7  and  C_12
REMARK    2  A    between atoms: C_12  and  C_13
REMARK    3  A    between atoms: N_15  and  C_16
REMARK    4  A    between atoms: C_19  and  N_22
REMARK    5  A    between atoms: N_22  and  S_23
REMARK    6  A    between atoms: S_23  and  C_26
REMARK                            x       y       z     vdW  Elec       q    Type
REMARK                         _______ _______ _______ _____ _____    ______ ____
ROOT
ATOM      1  C   UNL     1      -0.284   0.140  -0.317  0.00  0.00    +0.033 A 
ATOM      2  C   UNL     1      -0.386   1.483   0.019  0.00  0.00    +0.025 A 
ATOM      3  C   UNL     1       0.740   2.283   0.019  0.00  0.00    +0.026 A 
ATOM      4  C   UNL     1       1.974   1.743  -0.319  0.00  0.00    +0.048 A 
ATOM      5  C   UNL     1       2.076   0.399  -0.655  0.00  0.00    +0.026 A 
ATOM      6  C   UNL     1       0.950  -0.400  -0.654  0.00  0.00    +0.025 A 
ENDROOT
BRANCH   1   9
ATOM      7  C   UNL     1      -2.621  -0.153  -0.663  0.00  0.00    +0.221 C 
ATOM      8  O   UNL     1      -2.693   0.988  -1.067  0.00  0.00    -0.275 OA
ATOM      9  N   UNL     1      -1.427  -0.671  -0.316  0.00  0.00    -0.285 N 
ATOM     10  H   UNL     1      -1.358  -1.606  -0.066  0.00  0.00    +0.155 HD
BRANCH   7  11
ATOM     11  C   UNL     1      -3.868  -0.992  -0.549  0.00  0.00    +0.145 C 
BRANCH  11  18
ATOM     12  C   UNL     1      -8.147  -2.215   0.137  0.00  0.00    +0.000 A 
ATOM     13  C   UNL     1      -8.718  -2.360  -1.115  0.00  0.00    +0.001 A 
ATOM     14  C   UNL     1      -8.109  -1.812  -2.226  0.00  0.00    +0.015 A 
ATOM     15  C   UNL     1      -6.912  -1.109  -2.084  0.00  0.00    +0.066 A 
ATOM     16  C   UNL     1      -6.343  -0.969  -0.815  0.00  0.00    +0.007 A 
ATOM     17  C   UNL     1      -6.959  -1.519   0.285  0.00  0.00    +0.008 A 
ATOM     18  C   UNL     1      -5.078  -0.172  -1.003  0.00  0.00    +0.216 C 
ATOM     19  O   UNL     1      -4.980   0.116  -2.425  0.00  0.00    -0.453 OA
ATOM     20  C   UNL     1      -6.038  -0.423  -3.054  0.00  0.00    +0.340 C 
ATOM     21  O   UNL     1      -6.244  -0.356  -4.249  0.00  0.00    -0.245 OA
ENDBRANCH  11  18
ENDBRANCH   7  11
ENDBRANCH   1   9
BRANCH   4  22
ATOM     22  N   UNL     1       3.115   2.553  -0.320  0.00  0.00    -0.216 N 
ATOM     23  H   UNL     1       3.932   2.240   0.099  0.00  0.00    +0.174 HD
BRANCH  22  24
ATOM     24  S   UNL     1       3.070   4.046  -1.035  0.00  0.00    +0.072 S 
ATOM     25  O   UNL     1       1.947   4.724  -0.489  0.00  0.00    -0.150 OA
ATOM     26  O   UNL     1       4.388   4.572  -0.960  0.00  0.00    -0.150 OA
BRANCH  24  27
ATOM     27  C   UNL     1       2.725   3.794  -2.744  0.00  0.00    +0.112 A 
ATOM     28  C   UNL     1       3.764   3.714  -3.653  0.00  0.00    +0.032 A 
ATOM     29  C   UNL     1       3.501   3.512  -4.996  0.00  0.00    +0.051 A 
ATOM     30  C   UNL     1       2.190   3.400  -5.429  0.00  0.00    +0.162 A 
ATOM     31  C   UNL     1       1.147   3.486  -4.518  0.00  0.00    +0.164 A 
ATOM     32  C   UNL     1       1.414   3.684  -3.174  0.00  0.00    +0.078 A 
ATOM     33  O   UNL     1      -0.141   3.374  -4.955  0.00  0.00    -0.488 OA
ATOM     34  C   UNL     1      -0.621   4.448  -5.766  0.00  0.00    +0.232 C 
ATOM     35  C   UNL     1      -0.227   4.244  -7.221  0.00  0.00    +0.082 C 
ATOM     36  C   UNL     1       1.279   4.292  -7.425  0.00  0.00    +0.232 C 
ATOM     37  O   UNL     1       1.917   3.205  -6.752  0.00  0.00    -0.488 OA
ENDBRANCH  24  27
ENDBRANCH  22  24
ENDBRANCH   4  22
TORSDOF 6
