REMARK  Name = ZINC58787766
REMARK  6 active torsions:
REMARK  status: ('A' for Active; 'I' for Inactive)
REMARK    1  A    between atoms: C_4  and  N_23
REMARK    2  A    between atoms: C_5  and  N_7
REMARK    3  A    between atoms: C_8  and  C_10
REMARK    4  A    between atoms: C_11  and  C_12
REMARK    5  A    between atoms: C_15  and  S_18
REMARK    6  A    between atoms: S_18  and  C_19
REMARK                            x       y       z     vdW  Elec       q    Type
REMARK                         _______ _______ _______ _____ _____    ______ ____
ROOT
ATOM      1  C   UNL     1       0.148   1.372   0.624  0.00  0.00    +0.002 A 
ATOM      2  C   UNL     1       1.166   2.088   0.021  0.00  0.00    +0.002 A 
ATOM      3  C   UNL     1       2.210   1.427  -0.597  0.00  0.00    +0.030 A 
ATOM      4  C   UNL     1       2.239   0.040  -0.615  0.00  0.00    +0.089 A 
ATOM      5  C   UNL     1       1.212  -0.682  -0.007  0.00  0.00    +0.059 A 
ATOM      6  C   UNL     1       0.168  -0.010   0.611  0.00  0.00    +0.025 A 
ENDROOT
BRANCH   4   7
ATOM      7  N   UNL     1       3.296  -0.633  -1.242  0.00  0.00    -0.212 N 
ATOM      8  C   UNL     1       4.306  -0.051  -1.945  0.00  0.00    +0.170 A 
ATOM      9  C   UNL     1       5.134  -1.093  -2.393  0.00  0.00    +0.103 A 
ATOM     10  C   UNL     1       4.576  -2.299  -1.928  0.00  0.00    +0.150 A 
ATOM     11  N   UNL     1       3.499  -2.018  -1.247  0.00  0.00    -0.172 NA
ATOM     12  C   UNL     1       6.313  -0.744  -3.185  0.00  0.00    +0.262 A 
ATOM     13  O   UNL     1       7.070  -1.603  -3.603  0.00  0.00    -0.267 OA
ATOM     14  N   UNL     1       6.531   0.568  -3.438  0.00  0.00    -0.313 N 
ATOM     15  H   UNL     1       7.303   0.837  -3.960  0.00  0.00    +0.170 HD
ATOM     16  C   UNL     1       5.674   1.507  -2.964  0.00  0.00    +0.201 A 
ATOM     17  N   UNL     1       4.621   1.215  -2.257  0.00  0.00    -0.218 NA
ENDBRANCH   4   7
BRANCH   5  18
ATOM     18  N   UNL     1       1.235  -2.081  -0.022  0.00  0.00    -0.280 N 
ATOM     19  C   UNL     1       0.082  -2.773  -0.117  0.00  0.00    +0.241 C 
ATOM     20  O   UNL     1      -0.970  -2.183  -0.286  0.00  0.00    -0.270 OA
ATOM     21  H   UNL     1       2.080  -2.553   0.035  0.00  0.00    +0.155 HD
BRANCH  19  22
ATOM     22  C   UNL     1       0.094  -4.230  -0.016  0.00  0.00    +0.068 C 
ATOM     23  C   UNL     1      -1.062  -4.923  -0.111  0.00  0.00    +0.013 C 
BRANCH  23  24
ATOM     24  C   UNL     1      -1.050  -6.389  -0.009  0.00  0.00    -0.025 A 
ATOM     25  C   UNL     1       0.158  -7.069   0.191  0.00  0.00    +0.009 A 
ATOM     26  C   UNL     1       0.165  -8.431   0.285  0.00  0.00    +0.015 A 
ATOM     27  C   UNL     1      -1.027  -9.145   0.182  0.00  0.00    +0.016 A 
ATOM     28  C   UNL     1      -2.231  -8.472  -0.018  0.00  0.00    +0.015 A 
ATOM     29  C   UNL     1      -2.247  -7.109  -0.107  0.00  0.00    +0.009 A 
BRANCH  27  30
ATOM     30  S   UNL     1      -1.013 -10.902   0.304  0.00  0.00    -0.016 S 
BRANCH  30  31
ATOM     31  C   UNL     1      -2.755 -11.370   0.114  0.00  0.00    +0.448 C 
ATOM     32  F   UNL     1      -3.223 -10.932  -1.129  0.00  0.00    -0.160 F 
ATOM     33  F   UNL     1      -2.876 -12.761   0.194  0.00  0.00    -0.160 F 
ATOM     34  F   UNL     1      -3.511 -10.777   1.132  0.00  0.00    -0.160 F 
ENDBRANCH  30  31
ENDBRANCH  27  30
ENDBRANCH  23  24
ENDBRANCH  19  22
ENDBRANCH   5  18
TORSDOF 6
