REMARK  Name = ZINC09515708
REMARK  8 active torsions:
REMARK  status: ('A' for Active; 'I' for Inactive)
REMARK    1  A    between atoms: C_1  and  C_2
REMARK    2  A    between atoms: C_2  and  C_4
REMARK    3  A    between atoms: C_2  and  O_28
REMARK    4  A    between atoms: C_7  and  S_9
REMARK    5  A    between atoms: S_9  and  C_10
REMARK    6  A    between atoms: C_10  and  C_11
REMARK    7  A    between atoms: N_13  and  C_14
REMARK    8  A    between atoms: O_28  and  C_29
REMARK                            x       y       z     vdW  Elec       q    Type
REMARK                         _______ _______ _______ _____ _____    ______ ____
ROOT
ATOM      1  C   UNL     1      -3.404   0.803   0.941  0.00  0.00    +0.228 C 
ATOM      2  O   UNL     1      -3.281   2.008   0.876  0.00  0.00    -0.275 OA
ATOM      3  N   UNL     1      -2.312   0.016   1.014  0.00  0.00    -0.285 N 
ATOM      4  H   UNL     1      -2.407  -0.949   0.992  0.00  0.00    +0.155 HD
ENDROOT
BRANCH   3   5
ATOM      5  C   UNL     1      -1.040   0.593   1.121  0.00  0.00    +0.037 A 
ATOM      6  C   UNL     1       0.054  -0.025   0.530  0.00  0.00    +0.027 A 
ATOM      7  C   UNL     1       1.310   0.539   0.639  0.00  0.00    +0.051 A 
ATOM      8  C   UNL     1       1.482   1.725   1.334  0.00  0.00    +0.167 A 
ATOM      9  C   UNL     1       0.385   2.351   1.923  0.00  0.00    +0.169 A 
ATOM     10  C   UNL     1      -0.873   1.784   1.813  0.00  0.00    +0.072 A 
ATOM     11  O   UNL     1       0.812   3.491   2.541  0.00  0.00    -0.447 OA
ATOM     12  C   UNL     1       2.111   3.760   1.993  0.00  0.00    +0.254 C 
ATOM     13  O   UNL     1       2.598   2.474   1.583  0.00  0.00    -0.448 OA
ATOM     14  C   UNL     1       3.023   4.357   3.060  0.00  0.00    +0.093 C 
ATOM     15  C   UNL     1       2.468   5.712   3.506  0.00  0.00    +0.008 C 
ATOM     16  C   UNL     1       2.384   6.650   2.300  0.00  0.00    +0.000 C 
ATOM     17  C   UNL     1       1.450   6.048   1.248  0.00  0.00    +0.008 C 
ATOM     18  C   UNL     1       2.000   4.694   0.794  0.00  0.00    +0.093 C 
ENDBRANCH   3   5
BRANCH   1  19
ATOM     19  C   UNL     1      -4.779   0.185   0.942  0.00  0.00    +0.175 C 
BRANCH  19  20
ATOM     20  S   UNL     1      -6.027   1.492   0.836  0.00  0.00    -0.056 S 
BRANCH  20  24
ATOM     21  C   UNL     1      -9.556  -0.112   0.837  0.00  0.00    +0.258 A 
ATOM     22  N   UNL     1      -8.790  -1.160   0.916  0.00  0.00    -0.108 NA
ATOM     23  N   UNL     1      -7.557  -0.793   0.921  0.00  0.00    -0.101 NA
ATOM     24  C   UNL     1      -7.494   0.515   0.854  0.00  0.00    +0.278 A 
ATOM     25  O   UNL     1      -8.759   0.973   0.796  0.00  0.00    -0.412 OA
BRANCH  21  27
ATOM     26  C   UNL     1     -11.608  -0.406   2.199  0.00  0.00    +0.062 C 
ATOM     27  C   UNL     1     -11.063  -0.112   0.799  0.00  0.00    +0.257 C 
BRANCH  27  28
ATOM     28  O   UNL     1     -11.517  -1.117  -0.109  0.00  0.00    -0.477 OA
BRANCH  28  29
ATOM     29  C   UNL     1     -12.743  -0.937  -0.667  0.00  0.00    +0.157 A 
ATOM     30  C   UNL     1     -13.543   0.120  -0.259  0.00  0.00    +0.048 A 
ATOM     31  C   UNL     1     -14.789   0.302  -0.828  0.00  0.00    +0.004 A 
ATOM     32  C   UNL     1     -15.240  -0.568  -1.803  0.00  0.00    +0.003 A 
ATOM     33  C   UNL     1     -14.446  -1.623  -2.213  0.00  0.00    +0.042 A 
ATOM     34  C   UNL     1     -13.196  -1.807  -1.650  0.00  0.00    +0.165 A 
ATOM     35  F   UNL     1     -12.418  -2.835  -2.054  0.00  0.00    -0.202 F 
ENDBRANCH  28  29
ENDBRANCH  27  28
ENDBRANCH  21  27
ENDBRANCH  20  24
ENDBRANCH  19  20
ENDBRANCH   1  19
TORSDOF 7
