REMARK  Name = ZINC39853515
REMARK  10 active torsions:
REMARK  status: ('A' for Active; 'I' for Inactive)
REMARK    1  A    between atoms: C_1  and  C_2
REMARK    2  A    between atoms: N_5  and  C_8
REMARK    3  A    between atoms: C_8  and  C_10
REMARK    4  A    between atoms: C_8  and  C_20
REMARK    5  A    between atoms: C_13  and  O_18
REMARK    6  A    between atoms: C_14  and  O_16
REMARK    7  A    between atoms: O_16  and  C_17
REMARK    8  A    between atoms: O_18  and  C_19
REMARK    9  A    between atoms: C_24  and  N_25
REMARK   10  A    between atoms: C_26  and  C_28
REMARK                            x       y       z     vdW  Elec       q    Type
REMARK                         _______ _______ _______ _____ _____    ______ ____
ROOT
ATOM      1  C   UNL     1      -0.716  -3.904   1.365  0.00  0.00    -0.004 C 
ENDROOT
BRANCH   1   2
ATOM      2  C   UNL     1      -2.014  -4.669   1.363  0.00  0.00    -0.025 A 
ATOM      3  C   UNL     1      -2.204  -5.723   0.468  0.00  0.00    -0.033 A 
ATOM      4  C   UNL     1      -3.402  -6.363   0.526  0.00  0.00    -0.005 A 
ATOM      5  S   UNL     1      -4.275  -5.517   1.816  0.00  0.00    -0.078 S 
ATOM      6  C   UNL     1      -3.002  -4.337   2.236  0.00  0.00    +0.074 A 
ATOM      7  C   UNL     1      -3.862  -7.512  -0.311  0.00  0.00    +0.043 C 
ATOM      8  C   UNL     1      -2.916  -7.643  -1.514  0.00  0.00    +0.005 C 
ATOM      9  C   UNL     1      -1.470  -7.579  -1.012  0.00  0.00    +0.005 C 
ATOM     10  C   UNL     1      -1.143  -6.163  -0.537  0.00  0.00    +0.036 C 
BRANCH   6  11
ATOM     11  N   UNL     1      -3.017  -3.332   3.207  0.00  0.00    -0.280 N 
ATOM     12  C   UNL     1      -4.148  -3.078   3.896  0.00  0.00    +0.214 C 
ATOM     13  O   UNL     1      -5.152  -3.722   3.673  0.00  0.00    -0.276 OA
ATOM     14  C   UNL     1      -4.165  -1.995   4.944  0.00  0.00    +0.109 C 
ATOM     15  H   UNL     1      -2.215  -2.818   3.386  0.00  0.00    +0.155 HD
ENDBRANCH   6  11
ENDBRANCH   1   2
BRANCH   1  20
ATOM     16  C   UNL     1      -1.313   1.711   0.567  0.00  0.00    +0.007 C 
ATOM     17  C   UNL     1      -0.969   0.233   0.374  0.00  0.00    -0.018 C 
ATOM     18  C   UNL     1      -2.250  -0.605   0.445  0.00  0.00    -0.015 C 
ATOM     19  C   UNL     1      -1.890  -2.087   0.332  0.00  0.00    -0.077 C 
ATOM     20  N   UNL     1      -0.996  -2.463   1.433  0.00  0.00    +0.387 N 
ATOM     21  C   UNL     1       0.264  -1.716   1.330  0.00  0.00    -0.077 C 
ATOM     22  C   UNL     1      -0.013  -0.219   1.482  0.00  0.00    -0.015 C 
ATOM     23  H   UNL     1      -1.440  -2.251   2.314  0.00  0.00    -0.080 HD
ENDBRANCH   1  20
BRANCH   1  24
ATOM     24  C   UNL     1       0.106  -4.313   2.560  0.00  0.00    -0.053 A 
ATOM     25  C   UNL     1      -0.016  -3.622   3.751  0.00  0.00    +0.006 A 
ATOM     26  C   UNL     1       0.736  -3.993   4.850  0.00  0.00    +0.049 A 
ATOM     27  C   UNL     1       1.614  -5.061   4.759  0.00  0.00    +0.161 A 
ATOM     28  C   UNL     1       1.737  -5.757   3.561  0.00  0.00    +0.162 A 
ATOM     29  C   UNL     1       0.977  -5.383   2.464  0.00  0.00    +0.051 A 
BRANCH  28  30
ATOM     30  O   UNL     1       2.598  -6.806   3.467  0.00  0.00    -0.491 OA
ATOM     31  C   UNL     1       2.672  -7.474   2.206  0.00  0.00    +0.277 C 
ENDBRANCH  28  30
BRANCH  27  32
ATOM     32  O   UNL     1       2.354  -5.428   5.839  0.00  0.00    -0.491 OA
ATOM     33  C   UNL     1       2.177  -4.668   7.036  0.00  0.00    +0.277 C 
ENDBRANCH  27  32
ENDBRANCH   1  24
TORSDOF 6
