REMARK  Name = ZINC39404403
REMARK  8 active torsions:
REMARK  status: ('A' for Active; 'I' for Inactive)
REMARK    1  A    between atoms: C_1  and  C_2
REMARK    2  A    between atoms: C_2  and  C_28
REMARK    3  A    between atoms: N_3  and  N_4
REMARK    4  A    between atoms: C_7  and  S_11
REMARK    5  A    between atoms: S_11  and  C_12
REMARK    6  A    between atoms: C_12  and  C_13
REMARK    7  A    between atoms: N_15  and  C_16
REMARK    8  A    between atoms: C_18  and  C_26
REMARK                            x       y       z     vdW  Elec       q    Type
REMARK                         _______ _______ _______ _____ _____    ______ ____
ROOT
ATOM      1  N   UNL     1      -1.029  -1.642   1.344  0.00  0.00    -0.205 N 
ATOM      2  C   UNL     1      -1.533  -2.007   2.574  0.00  0.00    +0.231 C 
ATOM      3  N   UNL     1      -2.139  -3.135   2.818  0.00  0.00    -0.324 N 
ATOM      4  C   UNL     1      -2.495  -3.079   4.247  0.00  0.00    +0.283 C 
ATOM      5  N   UNL     1      -1.984  -1.769   4.682  0.00  0.00    -0.148 NA
ATOM      6  N   UNL     1      -1.459  -1.237   3.698  0.00  0.00    -0.116 NA
ATOM      7  H   UNL     1      -1.118  -2.241   0.586  0.00  0.00    +0.177 HD
ATOM      8  H   UNL     1      -2.317  -3.856   2.193  0.00  0.00    +0.165 HD
ENDROOT
BRANCH   1  11
ATOM      9  C   UNL     1       0.816   1.237  -0.140  0.00  0.00    +0.068 C 
ATOM     10  C   UNL     1      -0.010  -0.015   0.009  0.00  0.00    +0.063 C 
ATOM     11  N   UNL     1      -0.389  -0.406   1.188  0.00  0.00    -0.184 NA
BRANCH  10  12
ATOM     12  C   UNL     1      -0.386  -0.797  -1.183  0.00  0.00    -0.003 A 
ATOM     13  C   UNL     1      -1.654  -1.377  -1.270  0.00  0.00    +0.010 A 
ATOM     14  C   UNL     1      -1.999  -2.107  -2.389  0.00  0.00    +0.001 A 
ATOM     15  C   UNL     1      -1.093  -2.265  -3.422  0.00  0.00    +0.000 A 
ATOM     16  C   UNL     1       0.165  -1.694  -3.342  0.00  0.00    +0.001 A 
ATOM     17  C   UNL     1       0.521  -0.956  -2.233  0.00  0.00    +0.010 A 
ENDBRANCH  10  12
ENDBRANCH   1  11
BRANCH   4  18
ATOM     18  S   UNL     1      -1.682  -4.420   5.160  0.00  0.00    -0.102 S 
BRANCH  18  19
ATOM     19  C   UNL     1       0.087  -4.119   4.898  0.00  0.00    +0.168 C 
BRANCH  19  20
ATOM     20  C   UNL     1       0.888  -5.176   5.613  0.00  0.00    +0.224 C 
ATOM     21  O   UNL     1       0.321  -6.047   6.238  0.00  0.00    -0.275 OA
ATOM     22  N   UNL     1       2.234  -5.154   5.559  0.00  0.00    -0.301 N 
ATOM     23  H   UNL     1       2.688  -4.458   5.059  0.00  0.00    +0.150 HD
BRANCH  22  24
ATOM     24  C   UNL     1       3.013  -6.183   6.254  0.00  0.00    +0.156 C 
ATOM     25  C   UNL     1       4.219  -6.650   5.409  0.00  0.00    +0.149 C 
ATOM     26  C   UNL     1       5.468  -5.851   5.731  0.00  0.00    -0.041 C 
ATOM     27  C   UNL     1       5.494  -5.194   6.877  0.00  0.00    -0.012 C 
ATOM     28  S   UNL     1       3.930  -5.482   7.688  0.00  0.00    -0.106 S 
ATOM     29  C   UNL     1       6.796  -4.460   7.088  0.00  0.00    +0.042 C 
ATOM     30  C   UNL     1       7.769  -5.096   6.072  0.00  0.00    +0.009 C 
ATOM     31  C   UNL     1       6.791  -5.605   4.995  0.00  0.00    +0.033 C 
BRANCH  25  32
ATOM     32  C   UNL     1       4.477  -8.073   5.684  0.00  0.00    +0.073 C 
ATOM     33  N   UNL     1       4.676  -9.171   5.896  0.00  0.00    -0.196 NA
ENDBRANCH  25  32
ENDBRANCH  22  24
ENDBRANCH  19  20
ENDBRANCH  18  19
ENDBRANCH   4  18
TORSDOF 7
