REMARK  Name = ZINC02347380
REMARK  6 active torsions:
REMARK  status: ('A' for Active; 'I' for Inactive)
REMARK    1  A    between atoms: C_2  and  C_3
REMARK    2  A    between atoms: C_3  and  N_4
REMARK    3  A    between atoms: N_4  and  C_5
REMARK    4  A    between atoms: C_5  and  C_7
REMARK    5  A    between atoms: C_8  and  C_25
REMARK    6  A    between atoms: C_13  and  C_19
REMARK                            x       y       z     vdW  Elec       q    Type
REMARK                         _______ _______ _______ _____ _____    ______ ____
ROOT
ATOM      1  C   UNL     1      -2.452  -0.516  -0.869  0.00  0.00    +0.084 A 
ATOM      2  C   UNL     1      -1.281  -0.755  -0.115  0.00  0.00    +0.015 A 
ATOM      3  C   UNL     1      -1.535  -1.835   0.705  0.00  0.00    +0.003 A 
ATOM      4  C   UNL     1      -2.848  -2.186   0.464  0.00  0.00    +0.123 A 
ATOM      5  N   UNL     1      -3.388  -1.482  -0.540  0.00  0.00    -0.298 N 
ATOM      6  C   UNL     1      -4.600  -2.100  -0.795  0.00  0.00    +0.119 A 
ATOM      7  C   UNL     1      -4.777  -3.122   0.084  0.00  0.00    +0.067 A 
ATOM      8  N   UNL     1      -3.698  -3.144   0.937  0.00  0.00    -0.325 N 
ATOM      9  C   UNL     1      -3.440  -3.845   2.211  0.00  0.00    +0.124 C 
ATOM     10  C   UNL     1      -2.864  -2.802   3.164  0.00  0.00    +0.022 C 
ATOM     11  C   UNL     1      -1.354  -2.540   3.070  0.00  0.00    +0.006 C 
ATOM     12  C   UNL     1      -0.751  -2.671   1.681  0.00  0.00    +0.039 C 
ENDROOT
BRANCH   2  13
ATOM     13  C   UNL     1      -0.013   0.008  -0.195  0.00  0.00    -0.015 A 
ATOM     14  C   UNL     1       0.022   1.349   0.187  0.00  0.00    +0.009 A 
ATOM     15  C   UNL     1       1.205   2.054   0.111  0.00  0.00    +0.016 A 
ATOM     16  C   UNL     1       2.356   1.433  -0.343  0.00  0.00    +0.018 A 
ATOM     17  C   UNL     1       2.327   0.103  -0.723  0.00  0.00    +0.016 A 
ATOM     18  C   UNL     1       1.150  -0.613  -0.651  0.00  0.00    +0.009 A 
ATOM     19 BR   UNL     1       3.974   2.407  -0.445  0.00  0.00    -0.050 Br
ENDBRANCH   2  13
BRANCH   7  20
ATOM     20  C   UNL     1      -5.929  -4.050   0.118  0.00  0.00    -0.000 A 
ATOM     21  C   UNL     1      -5.852  -5.237   0.847  0.00  0.00    +0.010 A 
ATOM     22  C   UNL     1      -6.932  -6.095   0.878  0.00  0.00    +0.001 A 
ATOM     23  C   UNL     1      -8.086  -5.786   0.180  0.00  0.00    +0.000 A 
ATOM     24  C   UNL     1      -8.166  -4.613  -0.549  0.00  0.00    +0.001 A 
ATOM     25  C   UNL     1      -7.096  -3.744  -0.584  0.00  0.00    +0.010 A 
ENDBRANCH   7  20
BRANCH   1  26
ATOM     26  C   UNL     1      -2.637   0.530  -1.796  0.00  0.00    +0.097 C 
ATOM     27  S   UNL     1      -1.374   1.648  -2.088  0.00  0.00    -0.033 S 
BRANCH  26  28
ATOM     28  N   UNL     1      -3.808   0.649  -2.453  0.00  0.00    -0.333 N 
ATOM     29  H   UNL     1      -4.524   0.016  -2.287  0.00  0.00    +0.147 HD
BRANCH  28  30
ATOM     30  C   UNL     1      -4.000   1.736  -3.417  0.00  0.00    +0.129 C 
BRANCH  30  32
ATOM     31  C   UNL     1      -6.189   2.676  -3.948  0.00  0.00    +0.005 C 
ATOM     32  C   UNL     1      -5.383   1.645  -4.007  0.00  0.00    -0.016 C 
ENDBRANCH  30  32
ENDBRANCH  28  30
ENDBRANCH  26  28
ENDBRANCH   1  26
TORSDOF 6
