REMARK  Name = ZINC14157198
REMARK  9 active torsions:
REMARK  status: ('A' for Active; 'I' for Inactive)
REMARK    1  A    between atoms: C_1  and  C_2
REMARK    2  A    between atoms: C_4  and  C_34
REMARK    3  A    between atoms: N_10  and  C_11
REMARK    4  A    between atoms: C_11  and  N_13
REMARK    5  A    between atoms: N_13  and  C_14
REMARK    6  A    between atoms: C_17  and  O_20
REMARK    7  A    between atoms: O_20  and  C_21
REMARK    8  A    between atoms: N_27  and  C_28
REMARK    9  A    between atoms: C_28  and  C_29
REMARK                            x       y       z     vdW  Elec       q    Type
REMARK                         _______ _______ _______ _____ _____    ______ ____
ROOT
ATOM      1  C   UNL     1      -7.911  10.693  -1.581  0.00  0.00    +0.066 C 
ATOM      2  C   UNL     1      -9.095   9.877  -1.132  0.00  0.00    +0.044 A 
ATOM      3  C   UNL     1     -10.367  10.428  -1.129  0.00  0.00    +0.046 A 
ATOM      4  C   UNL     1     -11.429   9.643  -0.708  0.00  0.00    +0.044 A 
ATOM      5  N   UNL     1     -11.198   8.398  -0.325  0.00  0.00    -0.217 NA
ATOM      6  C   UNL     1      -9.970   7.902  -0.340  0.00  0.00    +0.231 A 
ATOM      7  N   UNL     1      -8.933   8.627  -0.731  0.00  0.00    -0.217 NA
ATOM      8  N   UNL     1      -9.764   6.591   0.070  0.00  0.00    -0.297 N 
ATOM      9  C   UNL     1      -8.491   6.097   0.169  0.00  0.00    +0.196 C 
ATOM     10  N   UNL     1      -7.455   6.897  -0.016  0.00  0.00    -0.159 NA
ATOM     11  N   UNL     1      -8.292   4.778   0.460  0.00  0.00    -0.353 N 
ATOM     12  C   UNL     1     -12.829  10.200  -0.688  0.00  0.00    +0.066 C 
ATOM     13  H   UNL     1     -10.522   6.026   0.285  0.00  0.00    +0.171 HD
ATOM     14  H   UNL     1      -7.393   4.445   0.607  0.00  0.00    +0.163 HD
ENDROOT
BRANCH  10  15
ATOM     15  C   UNL     1      -6.214   6.391  -0.048  0.00  0.00    +0.161 C 
ATOM     16  S   UNL     1      -5.764   5.305  -1.293  0.00  0.00    -0.016 S 
BRANCH  15  17
ATOM     17  N   UNL     1      -5.321   6.736   0.900  0.00  0.00    -0.295 N 
ATOM     18  H   UNL     1      -5.558   7.394   1.573  0.00  0.00    +0.154 HD
BRANCH  17  19
ATOM     19  C   UNL     1      -4.052   6.144   0.916  0.00  0.00    +0.033 A 
ATOM     20  C   UNL     1      -3.343   5.990  -0.269  0.00  0.00    +0.027 A 
ATOM     21  C   UNL     1      -2.092   5.407  -0.253  0.00  0.00    +0.048 A 
ATOM     22  C   UNL     1      -1.542   4.976   0.946  0.00  0.00    +0.129 A 
ATOM     23  C   UNL     1      -2.252   5.125   2.128  0.00  0.00    +0.048 A 
ATOM     24  C   UNL     1      -3.501   5.712   2.115  0.00  0.00    +0.027 A 
BRANCH  22  25
ATOM     25  O   UNL     1      -0.310   4.402   0.960  0.00  0.00    -0.456 OA
BRANCH  25  26
ATOM     26  C   UNL     1       0.133   3.872   2.130  0.00  0.00    +0.128 A 
ATOM     27  C   UNL     1      -0.390   2.672   2.592  0.00  0.00    +0.046 A 
ATOM     28  C   UNL     1       0.062   2.135   3.782  0.00  0.00    +0.004 A 
ATOM     29  C   UNL     1       1.035   2.792   4.512  0.00  0.00    +0.000 A 
ATOM     30  C   UNL     1       1.554   3.990   4.058  0.00  0.00    +0.004 A 
ATOM     31  C   UNL     1       1.110   4.528   2.865  0.00  0.00    +0.046 A 
ENDBRANCH  25  26
ENDBRANCH  22  25
ENDBRANCH  17  19
ENDBRANCH  15  17
ENDBRANCH  10  15
BRANCH  11  32
ATOM     32  C   UNL     1      -9.435   3.867   0.550  0.00  0.00    +0.158 C 
BRANCH  32  33
ATOM     33  C   UNL     1      -8.960   2.506   0.990  0.00  0.00    +0.009 A 
ATOM     34  C   UNL     1      -8.912   1.981   2.238  0.00  0.00    +0.013 A 
ATOM     35  C   UNL     1      -8.435   0.695   2.406  0.00  0.00    +0.008 A 
ATOM     36  C   UNL     1      -8.020  -0.000   1.319  0.00  0.00    +0.045 A 
ATOM     37  S   UNL     1      -8.306   1.170   0.002  0.00  0.00    -0.100 S 
ENDBRANCH  32  33
ENDBRANCH  11  32
TORSDOF 7
