REMARK  Name = ZINC20872505
REMARK  10 active torsions:
REMARK  status: ('A' for Active; 'I' for Inactive)
REMARK    1  A    between atoms: C_1  and  C_2
REMARK    2  A    between atoms: C_6  and  C_27
REMARK    3  A    between atoms: C_9  and  N_12
REMARK    4  A    between atoms: N_12  and  C_13
REMARK    5  A    between atoms: C_13  and  C_14
REMARK    6  A    between atoms: C_18  and  O_25
REMARK    7  A    between atoms: C_19  and  O_20
REMARK    8  A    between atoms: O_20  and  C_21
REMARK    9  A    between atoms: C_21  and  C_22
REMARK   10  A    between atoms: O_25  and  C_26
REMARK                            x       y       z     vdW  Elec       q    Type
REMARK                         _______ _______ _______ _____ _____    ______ ____
ROOT
ATOM      1  C   UNL     1      -1.156   1.426   5.697  0.00  0.00    -0.042 C 
ENDROOT
BRANCH   1   2
ATOM      2  C   UNL     1      -0.199   0.910   4.655  0.00  0.00    -0.019 A 
ATOM      3  C   UNL     1      -0.224   1.431   3.374  0.00  0.00    +0.005 A 
ATOM      4  C   UNL     1       0.653   0.960   2.415  0.00  0.00    +0.004 A 
ATOM      5  C   UNL     1       1.560  -0.035   2.732  0.00  0.00    +0.049 A 
ATOM      6  C   UNL     1       1.590  -0.561   4.013  0.00  0.00    +0.162 A 
ATOM      7  C   UNL     1       0.704  -0.091   4.977  0.00  0.00    +0.164 A 
BRANCH   6   8
ATOM      8  O   UNL     1       2.481  -1.540   4.327  0.00  0.00    -0.491 OA
ATOM      9  C   UNL     1       3.357  -1.978   3.286  0.00  0.00    +0.277 C 
ENDBRANCH   6   8
BRANCH   7  10
ATOM     10  O   UNL     1       0.726  -0.608   6.235  0.00  0.00    -0.479 OA
BRANCH  10  11
ATOM     11  C   UNL     1       1.666  -0.044   7.152  0.00  0.00    +0.324 C 
BRANCH  11  12
ATOM     12  C   UNL     1       1.505  -0.697   8.501  0.00  0.00    +0.248 C 
ATOM     13  O   UNL     1       0.668  -1.559   8.661  0.00  0.00    -0.272 OA
ATOM     14  N   UNL     1       2.292  -0.322   9.529  0.00  0.00    -0.327 N 
ATOM     15  H   UNL     1       2.174  -0.798  10.513  0.00  0.00    +0.145 HD
ATOM     16  H   UNL     1       3.051   0.461   9.383  0.00  0.00    +0.145 HD
ENDBRANCH  11  12
ENDBRANCH  10  11
ENDBRANCH   7  10
ENDBRANCH   1   2
BRANCH   1  17
ATOM     17  N   UNL     1      -2.232   0.447   5.901  0.00  0.00    +0.386 N 
ATOM     18  H   UNL     1      -1.786  -0.506   6.222  0.00  0.00    -0.085 HD
ATOM     19  H   UNL     1      -2.762   0.302   4.948  0.00  0.00    -0.085 HD
BRANCH  17  28
ATOM     20  C   UNL     1      -6.376  -0.690   8.353  0.00  0.00    +0.011 C 
ATOM     21  C   UNL     1      -5.272   0.353   8.169  0.00  0.00    -0.033 C 
ATOM     22  C   UNL     1      -5.893   1.679   7.723  0.00  0.00    +0.010 C 
ATOM     23  C   UNL     1      -4.789   2.722   7.539  0.00  0.00    -0.011 C 
ATOM     24  C   UNL     1      -4.053   2.924   8.865  0.00  0.00    +0.010 C 
ATOM     25  C   UNL     1      -3.432   1.599   9.311  0.00  0.00    -0.033 C 
ATOM     26  C   UNL     1      -4.536   0.555   9.495  0.00  0.00    +0.013 C 
ATOM     27  C   UNL     1      -2.445   1.115   8.248  0.00  0.00    -0.006 C 
ATOM     28  C   UNL     1      -3.181   0.912   6.922  0.00  0.00    -0.067 C 
ATOM     29  C   UNL     1      -3.801   2.238   6.476  0.00  0.00    -0.009 C 
ATOM     30  C   UNL     1      -4.285  -0.131   7.106  0.00  0.00    -0.006 C 
ATOM     31  C   UNL     1      -2.696   1.801  10.637  0.00  0.00    +0.011 C 
ENDBRANCH  17  28
ENDBRANCH   1  17
TORSDOF 7
