REMARK  Name = ZINC12643671
REMARK  8 active torsions:
REMARK  status: ('A' for Active; 'I' for Inactive)
REMARK    1  A    between atoms: C_1  and  C_2
REMARK    2  A    between atoms: C_2  and  C_3
REMARK    3  A    between atoms: C_2  and  C_4
REMARK    4  A    between atoms: C_4  and  N_5
REMARK    5  A    between atoms: C_11  and  C_18
REMARK    6  A    between atoms: N_20  and  N_21
REMARK    7  A    between atoms: C_22  and  C_24
REMARK    8  A    between atoms: C_33  and  O_34
REMARK                            x       y       z     vdW  Elec       q    Type
REMARK                         _______ _______ _______ _____ _____    ______ ____
ROOT
ATOM      1  C   UNL     1      -0.014   1.211   0.009  0.00  0.00    +0.260 C 
ATOM      2  O   UNL     1       0.002  -0.004   0.002  0.00  0.00    -0.269 OA
ATOM      3  N   UNL     1      -1.191   1.869   0.018  0.00  0.00    -0.230 N 
ATOM      4  H   UNL     1      -1.204   2.839   0.023  0.00  0.00    +0.173 HD
ENDROOT
BRANCH   1  11
ATOM      5  N   UNL     1       6.058   3.405  -0.037  0.00  0.00    -0.288 N 
ATOM      6  C   UNL     1       4.917   4.128  -0.023  0.00  0.00    +0.262 A 
ATOM      7  O   UNL     1       4.949   5.343  -0.017  0.00  0.00    -0.267 OA
ATOM      8  C   UNL     1       3.630   3.404  -0.014  0.00  0.00    +0.063 A 
ATOM      9  C   UNL     1       2.413   4.080   0.001  0.00  0.00    +0.016 A 
ATOM     10  C   UNL     1       1.235   3.366   0.003  0.00  0.00    +0.014 A 
ATOM     11  C   UNL     1       1.258   1.969   0.001  0.00  0.00    +0.040 A 
ATOM     12  C   UNL     1       2.471   1.285  -0.015  0.00  0.00    +0.039 A 
ATOM     13  C   UNL     1       3.660   1.999  -0.022  0.00  0.00    +0.054 A 
ATOM     14  N   UNL     1       4.890   1.356  -0.037  0.00  0.00    -0.335 N 
ATOM     15  H   UNL     1       4.925   0.387  -0.042  0.00  0.00    +0.168 HD
ATOM     16  C   UNL     1       6.032   2.063  -0.044  0.00  0.00    +0.161 A 
ATOM     17  S   UNL     1       7.520   1.216  -0.063  0.00  0.00    -0.013 S 
BRANCH   5  18
ATOM     18  C   UNL     1       7.348   4.099  -0.046  0.00  0.00    +0.130 C 
BRANCH  18  20
ATOM     19  C   UNL     1       9.067   5.182  -1.501  0.00  0.00    +0.009 C 
ATOM     20  C   UNL     1       7.784   4.348  -1.491  0.00  0.00    +0.003 C 
ATOM     21  C   UNL     1       8.040   3.009  -2.185  0.00  0.00    +0.009 C 
ENDBRANCH  18  20
ENDBRANCH   5  18
ENDBRANCH   1  11
BRANCH   3  22
ATOM     22  N   UNL     1      -2.394   1.152   0.020  0.00  0.00    -0.230 N 
ATOM     23  C   UNL     1      -3.571   1.810   0.029  0.00  0.00    +0.264 C 
ATOM     24  O   UNL     1      -3.587   3.026   0.035  0.00  0.00    -0.269 OA
ATOM     25  H   UNL     1      -2.381   0.182   0.014  0.00  0.00    +0.173 HD
BRANCH  23  26
ATOM     26  C   UNL     1      -4.838   1.055   0.031  0.00  0.00    +0.080 A 
ATOM     27  C   UNL     1      -4.815  -0.331   0.023  0.00  0.00    +0.025 A 
ATOM     28  C   UNL     1      -6.022  -1.042   0.025  0.00  0.00    -0.017 A 
ATOM     29  C   UNL     1      -6.035  -2.449   0.018  0.00  0.00    +0.008 A 
ATOM     30  C   UNL     1      -7.224  -3.112   0.021  0.00  0.00    +0.001 A 
ATOM     31  C   UNL     1      -8.432  -2.418   0.031  0.00  0.00    +0.001 A 
ATOM     32  C   UNL     1      -8.460  -1.057   0.038  0.00  0.00    +0.008 A 
ATOM     33  C   UNL     1      -7.253  -0.336   0.036  0.00  0.00    -0.014 A 
ATOM     34  C   UNL     1      -7.250   1.069   0.043  0.00  0.00    +0.054 A 
ATOM     35  C   UNL     1      -6.067   1.748   0.046  0.00  0.00    +0.130 A 
BRANCH  35  36
ATOM     36  O   UNL     1      -6.072   3.105   0.059  0.00  0.00    -0.506 OA
ATOM     37  H   UNL     1      -6.080   3.507  -0.821  0.00  0.00    +0.292 HD
ENDBRANCH  35  36
ENDBRANCH  23  26
ENDBRANCH   3  22
TORSDOF 6
