REMARK  Name = ZINC02229601
REMARK  7 active torsions:
REMARK  status: ('A' for Active; 'I' for Inactive)
REMARK    1  A    between atoms: C_1  and  C_2
REMARK    2  A    between atoms: C_7  and  C_8
REMARK    3  A    between atoms: C_17  and  C_19
REMARK    4  A    between atoms: C_19  and  C_20
REMARK    5  A    between atoms: C_19  and  C_21
REMARK    6  A    between atoms: N_24  and  C_27
REMARK    7  A    between atoms: C_27  and  C_28
REMARK                            x       y       z     vdW  Elec       q    Type
REMARK                         _______ _______ _______ _____ _____    ______ ____
ROOT
ATOM      1  C   UNL     1       3.269  -2.842  -4.226  0.00  0.00    +0.044 C 
ATOM      2  C   UNL     1       2.870  -1.565  -3.533  0.00  0.00    -0.046 A 
ATOM      3  C   UNL     1       1.534  -1.214  -3.452  0.00  0.00    +0.004 A 
ATOM      4  C   UNL     1       1.167  -0.042  -2.815  0.00  0.00    +0.005 A 
ATOM      5  C   UNL     1       2.130   0.772  -2.263  0.00  0.00    -0.027 A 
ATOM      6  C   UNL     1       3.477   0.430  -2.338  0.00  0.00    +0.039 A 
ATOM      7  C   UNL     1       3.837  -0.752  -2.980  0.00  0.00    -0.026 A 
ATOM      8  C   UNL     1       5.290  -1.143  -3.074  0.00  0.00    +0.046 C 
ATOM      9  N   UNL     1       4.258   1.405  -1.713  0.00  0.00    -0.286 N 
ATOM     10  C   UNL     1       3.513   2.406  -1.207  0.00  0.00    +0.211 C 
ATOM     11  O   UNL     1       3.919   3.383  -0.614  0.00  0.00    -0.277 OA
ATOM     12  C   UNL     1       2.079   2.078  -1.521  0.00  0.00    +0.050 C 
ATOM     13  C   UNL     1       1.237   1.966  -0.243  0.00  0.00    +0.088 C 
ATOM     14  C   UNL     1       0.528   3.341  -0.102  0.00  0.00    +0.073 C 
ATOM     15  C   UNL     1       1.029   4.157  -1.332  0.00  0.00    -0.055 C 
ATOM     16  C   UNL     1      -0.934   3.002  -0.287  0.00  0.00    +0.224 C 
ATOM     17  O   UNL     1      -1.847   3.799  -0.261  0.00  0.00    -0.275 OA
ATOM     18  N   UNL     1      -1.062   1.685  -0.490  0.00  0.00    -0.237 N 
ATOM     19  C   UNL     1       0.091   1.006  -0.475  0.00  0.00    +0.225 C 
ATOM     20  O   UNL     1       0.200  -0.191  -0.629  0.00  0.00    -0.275 OA
ATOM     21  H   UNL     1       5.225   1.364  -1.649  0.00  0.00    +0.155 HD
ATOM     22  N   UNL     1       1.452   3.136  -2.294  0.00  0.00    +0.394 N 
ATOM     23  H   UNL     1       0.639   2.769  -2.803  0.00  0.00    -0.083 HD
ATOM     24  H   UNL     1       2.123   3.533  -2.961  0.00  0.00    -0.083 HD
ENDROOT
BRANCH  15  25
ATOM     25  C   UNL     1      -0.100   5.021  -1.896  0.00  0.00    -0.031 C 
ATOM     26  C   UNL     1      -0.429   6.140  -0.906  0.00  0.00    +0.005 C 
ATOM     27  C   UNL     1       0.341   5.631  -3.228  0.00  0.00    +0.005 C 
ENDBRANCH  15  25
BRANCH  18  28
ATOM     28  C   UNL     1      -2.359   1.040  -0.707  0.00  0.00    +0.151 C 
BRANCH  28  29
ATOM     29  C   UNL     1      -2.939   0.620   0.619  0.00  0.00    -0.029 A 
ATOM     30  C   UNL     1      -2.664  -0.636   1.126  0.00  0.00    +0.008 A 
ATOM     31  C   UNL     1      -3.192  -1.021   2.345  0.00  0.00    +0.038 A 
ATOM     32  C   UNL     1      -4.004  -0.151   3.052  0.00  0.00    +0.123 A 
ATOM     33  C   UNL     1      -4.282   1.105   2.541  0.00  0.00    +0.038 A 
ATOM     34  C   UNL     1      -3.749   1.490   1.325  0.00  0.00    +0.008 A 
ATOM     35  F   UNL     1      -4.524  -0.527   4.241  0.00  0.00    -0.205 F 
ENDBRANCH  28  29
ENDBRANCH  18  28
TORSDOF 3
