REMARK  Name = ZINC38609836
REMARK  6 active torsions:
REMARK  status: ('A' for Active; 'I' for Inactive)
REMARK    1  A    between atoms: C_4  and  C_7
REMARK    2  A    between atoms: C_7  and  N_8
REMARK    3  A    between atoms: C_9  and  C_26
REMARK    4  A    between atoms: C_12  and  C_19
REMARK    5  A    between atoms: C_24  and  O_25
REMARK    6  A    between atoms: C_29  and  O_32
REMARK                            x       y       z     vdW  Elec       q    Type
REMARK                         _______ _______ _______ _____ _____    ______ ____
ROOT
ATOM      1  N   UNL     1       4.019  -0.832   1.394  0.00  0.00    -0.281 N 
ATOM      2  C   UNL     1       4.867   0.018   2.241  0.00  0.00    +0.142 C 
ATOM      3  C   UNL     1       5.109  -0.763   3.504  0.00  0.00    +0.035 A 
ATOM      4  C   UNL     1       5.716  -0.810   4.763  0.00  0.00    +0.102 A 
ATOM      5  N   UNL     1       5.409  -1.972   5.306  0.00  0.00    -0.173 NA
ATOM      6  N   UNL     1       4.668  -2.663   4.515  0.00  0.00    -0.272 N 
ATOM      7  H   UNL     1       4.322  -3.549   4.707  0.00  0.00    +0.189 HD
ATOM      8  C   UNL     1       4.440  -1.964   3.363  0.00  0.00    +0.126 A 
ATOM      9  C   UNL     1       3.774  -1.977   2.056  0.00  0.00    +0.266 C 
ATOM     10  O   UNL     1       3.097  -2.893   1.631  0.00  0.00    -0.268 OA
ENDROOT
BRANCH   4  11
ATOM     11  C   UNL     1       6.553   0.252   5.376  0.00  0.00    +0.044 A 
ATOM     12  C   UNL     1       6.129   1.578   5.351  0.00  0.00    +0.014 A 
ATOM     13  C   UNL     1       6.910   2.562   5.921  0.00  0.00    +0.001 A 
ATOM     14  C   UNL     1       8.115   2.236   6.519  0.00  0.00    +0.004 A 
ATOM     15  C   UNL     1       8.545   0.923   6.550  0.00  0.00    +0.046 A 
ATOM     16  C   UNL     1       7.767  -0.076   5.985  0.00  0.00    +0.126 A 
BRANCH  16  17
ATOM     17  O   UNL     1       8.187  -1.368   6.019  0.00  0.00    -0.506 OA
ATOM     18  H   UNL     1       8.726  -1.626   5.259  0.00  0.00    +0.292 HD
ENDBRANCH  16  17
ENDBRANCH   4  11
BRANCH   2  19
ATOM     19  C   UNL     1       6.173   0.303   1.548  0.00  0.00    -0.022 A 
ATOM     20  C   UNL     1       6.866  -0.723   0.931  0.00  0.00    +0.009 A 
ATOM     21  C   UNL     1       8.064  -0.464   0.294  0.00  0.00    +0.046 A 
ATOM     22  C   UNL     1       8.573   0.827   0.274  0.00  0.00    +0.117 A 
ATOM     23  C   UNL     1       7.876   1.854   0.893  0.00  0.00    +0.046 A 
ATOM     24  C   UNL     1       6.675   1.591   1.524  0.00  0.00    +0.009 A 
BRANCH  22  25
ATOM     25  O   UNL     1       9.752   1.084  -0.351  0.00  0.00    -0.507 OA
ATOM     26  H   UNL     1       9.659   1.317  -1.285  0.00  0.00    +0.292 HD
ENDBRANCH  22  25
ENDBRANCH   2  19
BRANCH   1  27
ATOM     27  C   UNL     1       3.522  -0.488   0.060  0.00  0.00    +0.144 C 
BRANCH  27  31
ATOM     28  C   UNL     1      -0.242   1.501   0.409  0.00  0.00    +0.000 A 
ATOM     29  C   UNL     1       0.930   2.234   0.415  0.00  0.00    +0.000 A 
ATOM     30  C   UNL     1       2.148   1.590   0.302  0.00  0.00    +0.005 A 
ATOM     31  C   UNL     1       2.194   0.213   0.184  0.00  0.00    -0.030 A 
ATOM     32  C   UNL     1       1.022  -0.519   0.179  0.00  0.00    +0.005 A 
ATOM     33  C   UNL     1      -0.196   0.125   0.290  0.00  0.00    +0.000 A 
ENDBRANCH  27  31
ENDBRANCH   1  27
TORSDOF 6
