REMARK  Name = ZINC16946372
REMARK  5 active torsions:
REMARK  status: ('A' for Active; 'I' for Inactive)
REMARK    1  A    between atoms: C_1  and  C_2
REMARK    2  A    between atoms: C_2  and  C_3
REMARK    3  A    between atoms: C_15  and  C_17
REMARK    4  A    between atoms: C_21  and  N_23
REMARK    5  A    between atoms: C_29  and  C_32
REMARK                            x       y       z     vdW  Elec       q    Type
REMARK                         _______ _______ _______ _____ _____    ______ ____
ROOT
ATOM      1  C   UNL     1       7.665   6.388  -1.190  0.00  0.00    +0.220 C 
ATOM      2  O   UNL     1       8.093   5.769  -0.238  0.00  0.00    -0.275 OA
ATOM      3  N   UNL     1       6.442   6.950  -1.133  0.00  0.00    -0.258 N 
ATOM      4  C   UNL     1       5.961   7.660  -2.234  0.00  0.00    +0.058 A 
ATOM      5  C   UNL     1       6.564   8.833  -2.659  0.00  0.00    +0.025 A 
ATOM      6  C   UNL     1       6.024   9.527  -3.728  0.00  0.00    +0.002 A 
ATOM      7  C   UNL     1       4.890   9.058  -4.366  0.00  0.00    +0.002 A 
ATOM      8  C   UNL     1       4.295   7.878  -3.955  0.00  0.00    +0.025 A 
ATOM      9  C   UNL     1       4.847   7.172  -2.900  0.00  0.00    +0.053 A 
ATOM     10  N   UNL     1       4.365   5.929  -2.506  0.00  0.00    -0.316 N 
ATOM     11  C   UNL     1       3.833   5.656  -1.288  0.00  0.00    +0.017 C 
ATOM     12  C   UNL     1       4.373   6.020  -0.113  0.00  0.00    +0.037 C 
ATOM     13  C   UNL     1       5.648   6.809   0.069  0.00  0.00    +0.147 C 
ATOM     14  C   UNL     1       3.742   5.664   1.103  0.00  0.00    +0.163 C 
ATOM     15  O   UNL     1       4.241   6.027   2.150  0.00  0.00    -0.292 OA
ATOM     16  C   UNL     1       2.482   4.853   1.146  0.00  0.00    +0.088 C 
ATOM     17  C   UNL     1       2.427   3.968  -0.104  0.00  0.00    +0.032 C 
ATOM     18  C   UNL     1       2.526   4.880  -1.326  0.00  0.00    +0.059 C 
ATOM     19  H   UNL     1       4.400   5.079  -3.204  0.00  0.00    +0.152 HD
ENDROOT
BRANCH  17  20
ATOM     20  C   UNL     1       1.125   3.210  -0.137  0.00  0.00    -0.043 A 
ATOM     21  C   UNL     1       1.130   1.828  -0.154  0.00  0.00    +0.007 A 
ATOM     22  C   UNL     1      -0.063   1.132  -0.183  0.00  0.00    +0.038 A 
ATOM     23  C   UNL     1      -1.265   1.819  -0.201  0.00  0.00    +0.123 A 
ATOM     24  C   UNL     1      -1.269   3.204  -0.179  0.00  0.00    +0.038 A 
ATOM     25  C   UNL     1      -0.074   3.898  -0.150  0.00  0.00    +0.007 A 
ATOM     26  F   UNL     1      -2.432   1.140  -0.235  0.00  0.00    -0.205 F 
ENDBRANCH  17  20
BRANCH  13  27
ATOM     27  C   UNL     1       5.291   8.185   0.568  0.00  0.00    -0.020 A 
ATOM     28  C   UNL     1       4.541   9.035  -0.224  0.00  0.00    +0.006 A 
ATOM     29  C   UNL     1       4.210  10.296   0.235  0.00  0.00    +0.003 A 
ATOM     30  C   UNL     1       4.637  10.711   1.482  0.00  0.00    +0.033 A 
ATOM     31  C   UNL     1       5.391   9.864   2.272  0.00  0.00    +0.127 A 
ATOM     32  C   UNL     1       5.718   8.601   1.815  0.00  0.00    +0.038 A 
BRANCH  31  33
ATOM     33  N   UNL     1       5.849  10.309   3.607  0.00  0.00    +0.056 N 
ATOM     34  O   UNL     1       6.514   9.563   4.303  0.00  0.00    -0.126 OA
ATOM     35  O   UNL     1       5.561  11.422   4.010  0.00  0.00    -0.126 OA
ENDBRANCH  31  33
ENDBRANCH  13  27
BRANCH   1  37
ATOM     36  C   UNL     1       9.835   5.803  -2.238  0.00  0.00    +0.013 C 
ATOM     37  C   UNL     1       8.502   6.528  -2.435  0.00  0.00    +0.093 C 
ENDBRANCH   1  37
TORSDOF 4
