REMARK  Name = ZINC39678636
REMARK  8 active torsions:
REMARK  status: ('A' for Active; 'I' for Inactive)
REMARK    1  A    between atoms: C_1  and  C_2
REMARK    2  A    between atoms: C_2  and  C_3
REMARK    3  A    between atoms: C_2  and  O_4
REMARK    4  A    between atoms: O_4  and  C_5
REMARK    5  A    between atoms: C_5  and  C_7
REMARK    6  A    between atoms: C_7  and  N_8
REMARK    7  A    between atoms: C_9  and  C_11
REMARK    8  A    between atoms: C_22  and  C_24
REMARK                            x       y       z     vdW  Elec       q    Type
REMARK                         _______ _______ _______ _____ _____    ______ ____
ROOT
ATOM      1  C   UNL     1      -1.066  -1.955   6.873  0.00  0.00    +0.100 C 
ATOM      2  C   UNL     1      -1.611  -0.576   7.308  0.00  0.00    +0.121 C 
ATOM      3  N   UNL     1      -1.809  -0.696   8.771  0.00  0.00    -0.296 N 
ATOM      4  C   UNL     1      -0.641  -1.482   9.238  0.00  0.00    +0.115 C 
ATOM      5  C   UNL     1      -0.430  -2.546   8.143  0.00  0.00    -0.004 C 
ATOM      6  C   UNL     1       1.060  -2.787   7.923  0.00  0.00    -0.010 C 
ATOM      7  C   UNL     1       1.659  -3.429   9.178  0.00  0.00    -0.082 C 
ATOM      8  N   UNL     1       0.974  -4.697   9.457  0.00  0.00    +0.379 N 
ATOM      9  C   UNL     1      -0.441  -4.445   9.758  0.00  0.00    -0.082 C 
ATOM     10  C   UNL     1      -1.128  -3.846   8.528  0.00  0.00    -0.010 C 
ATOM     11  C   UNL     1      -2.821  -0.202   9.511  0.00  0.00    +0.249 C 
ATOM     12  O   UNL     1      -2.841  -0.385  10.713  0.00  0.00    -0.270 OA
ATOM     13  H   UNL     1       1.042  -5.299   8.650  0.00  0.00    -0.086 HD
ATOM     14  H   UNL     1       1.410  -5.147  10.248  0.00  0.00    -0.086 HD
ENDROOT
BRANCH  11  15
ATOM     15  C   UNL     1      -3.906   0.563   8.863  0.00  0.00    +0.073 A 
ATOM     16  C   UNL     1      -5.045  -0.096   8.393  0.00  0.00    +0.054 A 
ATOM     17  C   UNL     1      -6.055   0.626   7.787  0.00  0.00    +0.021 A 
ATOM     18  C   UNL     1      -5.941   1.997   7.646  0.00  0.00    +0.003 A 
ATOM     19  C   UNL     1      -4.816   2.656   8.108  0.00  0.00    +0.021 A 
ATOM     20  C   UNL     1      -3.800   1.949   8.721  0.00  0.00    +0.054 A 
ATOM     21 CL   UNL     1      -2.393   2.779   9.307  0.00  0.00    -0.083 Cl
ATOM     22 CL   UNL     1      -5.190  -1.817   8.568  0.00  0.00    -0.083 Cl
ENDBRANCH  11  15
BRANCH   1  24
ATOM     23  N   UNL     1       0.161  -2.773   4.887  0.00  0.00    -0.305 N 
ATOM     24  C   UNL     1      -0.029  -1.793   5.793  0.00  0.00    +0.219 C 
ATOM     25  O   UNL     1       0.636  -0.780   5.738  0.00  0.00    -0.275 OA
ATOM     26  H   UNL     1      -0.371  -3.583   4.931  0.00  0.00    +0.149 HD
BRANCH  23  27
ATOM     27  C   UNL     1       1.170  -2.615   3.837  0.00  0.00    +0.224 C 
BRANCH  27  28
ATOM     28  C   UNL     1       1.181  -3.843   2.963  0.00  0.00    +0.325 C 
ATOM     29  O   UNL     1       0.424  -4.756   3.193  0.00  0.00    -0.249 OA
BRANCH  28  30
ATOM     30  O   UNL     1       2.032  -3.922   1.928  0.00  0.00    -0.461 OA
BRANCH  30  32
ATOM     31  C   UNL     1       0.984  -4.937   0.002  0.00  0.00    +0.052 C 
ATOM     32  C   UNL     1       1.988  -5.114   1.142  0.00  0.00    +0.170 C 
ATOM     33  C   UNL     1       3.376  -5.393   0.560  0.00  0.00    +0.052 C 
ENDBRANCH  30  32
ENDBRANCH  28  30
ENDBRANCH  27  28
ENDBRANCH  23  27
ENDBRANCH   1  24
TORSDOF 6
