REMARK  Name = ZINC10278470
REMARK  7 active torsions:
REMARK  status: ('A' for Active; 'I' for Inactive)
REMARK    1  A    between atoms: C_4  and  C_7
REMARK    2  A    between atoms: C_7  and  N_8
REMARK    3  A    between atoms: C_17  and  C_19
REMARK    4  A    between atoms: N_21  and  C_22
REMARK    5  A    between atoms: C_22  and  C_23
REMARK    6  A    between atoms: C_23  and  C_25
REMARK    7  A    between atoms: C_23  and  N_62
REMARK                            x       y       z     vdW  Elec       q    Type
REMARK                         _______ _______ _______ _____ _____    ______ ____
ROOT
ATOM      1  N   UNL     1      -2.817   2.762   4.749  0.00  0.00    -0.224 N 
ATOM      2  C   UNL     1      -2.393   2.744   6.029  0.00  0.00    +0.275 A 
ATOM      3  O   UNL     1      -3.047   3.273   6.909  0.00  0.00    -0.266 OA
ATOM      4  C   UNL     1      -1.123   2.071   6.337  0.00  0.00    +0.050 A 
ATOM      5  C   UNL     1      -0.600   1.997   7.624  0.00  0.00    +0.014 A 
ATOM      6  C   UNL     1       0.598   1.346   7.830  0.00  0.00    +0.001 A 
ATOM      7  C   UNL     1       1.283   0.768   6.770  0.00  0.00    +0.001 A 
ATOM      8  C   UNL     1       0.781   0.831   5.487  0.00  0.00    +0.011 A 
ATOM      9  C   UNL     1      -0.426   1.482   5.257  0.00  0.00    +0.020 A 
ATOM     10  C   UNL     1      -1.030   1.593   3.920  0.00  0.00    +0.154 A 
ATOM     11  N   UNL     1      -2.169   2.228   3.783  0.00  0.00    -0.163 NA
ENDROOT
BRANCH  10  12
ATOM     12  C   UNL     1      -0.358   1.003   2.745  0.00  0.00    +0.265 C 
ATOM     13  O   UNL     1       0.642   0.327   2.893  0.00  0.00    -0.268 OA
ATOM     14  N   UNL     1      -0.854   1.213   1.509  0.00  0.00    -0.311 N 
ATOM     15  H   UNL     1      -1.694   1.685   1.397  0.00  0.00    +0.149 HD
BRANCH  14  16
ATOM     16  C   UNL     1      -0.124   0.728   0.335  0.00  0.00    +0.097 C 
BRANCH  16  17
ATOM     17  C   UNL     1      -0.829   1.203  -0.936  0.00  0.00    +0.016 C 
BRANCH  17  23
ATOM     18  C   UNL     1      -2.370  -0.636  -0.615  0.00  0.00    -0.078 C 
ATOM     19  C   UNL     1      -3.847  -0.991  -0.433  0.00  0.00    -0.019 C 
ATOM     20  C   UNL     1      -4.615  -0.628  -1.707  0.00  0.00    -0.004 C 
ATOM     21  C   UNL     1      -4.425   0.863  -2.001  0.00  0.00    -0.019 C 
ATOM     22  C   UNL     1      -2.931   1.164  -2.137  0.00  0.00    -0.078 C 
ATOM     23  N   UNL     1      -2.253   0.815  -0.870  0.00  0.00    +0.387 N 
ATOM     24  H   UNL     1      -2.702   1.326  -0.101  0.00  0.00    -0.081 HD
ENDBRANCH  17  23
BRANCH  17  25
ATOM     25  C   UNL     1      -0.738   2.704  -1.030  0.00  0.00    +0.093 A 
ATOM     26  C   UNL     1       0.135   3.394  -1.786  0.00  0.00    +0.043 A 
ATOM     27  C   UNL     1      -0.132   4.766  -1.572  0.00  0.00    +0.041 A 
ATOM     28  C   UNL     1      -1.151   4.832  -0.697  0.00  0.00    +0.195 A 
ATOM     29  O   UNL     1      -1.518   3.581  -0.376  0.00  0.00    -0.469 OA
ENDBRANCH  17  25
ENDBRANCH  16  17
ENDBRANCH  14  16
ENDBRANCH  10  12
BRANCH   1  30
ATOM     30  C   UNL     1      -4.083   3.434   4.447  0.00  0.00    +0.182 C 
BRANCH  30  34
ATOM     31  C   UNL     1      -3.328   7.528   3.487  0.00  0.00    +0.000 A 
ATOM     32  C   UNL     1      -3.429   6.589   2.478  0.00  0.00    +0.000 A 
ATOM     33  C   UNL     1      -3.673   5.264   2.788  0.00  0.00    +0.005 A 
ATOM     34  C   UNL     1      -3.816   4.878   4.108  0.00  0.00    -0.026 A 
ATOM     35  C   UNL     1      -3.720   5.818   5.117  0.00  0.00    +0.005 A 
ATOM     36  C   UNL     1      -3.471   7.142   4.807  0.00  0.00    +0.000 A 
ENDBRANCH  30  34
ENDBRANCH   1  30
TORSDOF 7
