REMARK  Name = ZINC39510425
REMARK  5 active torsions:
REMARK  status: ('A' for Active; 'I' for Inactive)
REMARK    1  A    between atoms: C_1  and  S_2
REMARK    2  A    between atoms: S_2  and  C_3
REMARK    3  A    between atoms: N_8  and  O_22
REMARK    4  A    between atoms: C_12  and  C_15
REMARK    5  A    between atoms: C_20  and  O_21
REMARK                            x       y       z     vdW  Elec       q    Type
REMARK                         _______ _______ _______ _____ _____    ______ ____
ROOT
ATOM      1  C   UNL     1       0.873  -0.423  -1.533  0.00  0.00    +0.069 C 
ATOM      2  C   UNL     1       0.043   0.039  -2.735  0.00  0.00    +0.017 C 
ATOM      3  C   UNL     1       0.751  -0.383  -4.025  0.00  0.00    +0.019 C 
ATOM      4  C   UNL     1       0.938  -1.902  -4.027  0.00  0.00    +0.115 C 
ATOM      5  N   UNL     1       1.740  -2.299  -2.862  0.00  0.00    -0.184 NA
ATOM      6  C   UNL     1       1.074  -1.935  -1.609  0.00  0.00    +0.059 C 
ATOM      7  C   UNL     1       1.906  -2.414  -0.410  0.00  0.00    +0.026 C 
ATOM      8  C   UNL     1       1.018  -3.405   0.372  0.00  0.00    +0.010 C 
ATOM      9  C   UNL     1      -0.428  -3.009  -0.019  0.00  0.00    +0.024 C 
ATOM     10  C   UNL     1      -0.290  -2.645  -1.519  0.00  0.00    +0.034 C 
ENDROOT
BRANCH   9  11
ATOM     11  C   UNL     1      -1.368  -4.172   0.167  0.00  0.00    -0.003 A 
ATOM     12  C   UNL     1      -1.143  -5.358  -0.505  0.00  0.00    +0.007 A 
ATOM     13  C   UNL     1      -2.006  -6.425  -0.335  0.00  0.00    +0.001 A 
ATOM     14  C   UNL     1      -3.096  -6.308   0.508  0.00  0.00    +0.004 A 
ATOM     15  C   UNL     1      -3.325  -5.125   1.183  0.00  0.00    +0.046 A 
ATOM     16  C   UNL     1      -2.458  -4.054   1.018  0.00  0.00    +0.120 A 
BRANCH  16  17
ATOM     17  O   UNL     1      -2.678  -2.891   1.684  0.00  0.00    -0.506 OA
ATOM     18  H   UNL     1      -3.235  -2.262   1.205  0.00  0.00    +0.292 HD
ENDBRANCH  16  17
ENDBRANCH   9  11
BRANCH   1  20
ATOM     19  C   UNL     1      -0.022   1.810   0.012  0.00  0.00    +0.084 C 
ATOM     20  S   UNL     1       0.002  -0.004   0.002  0.00  0.00    -0.159 S 
ENDBRANCH   1  20
BRANCH   5  21
ATOM     21  O   UNL     1       2.043  -3.730  -2.898  0.00  0.00    -0.312 OA
ATOM     22  H   UNL     1       2.489  -4.018  -3.706  0.00  0.00    +0.237 HD
ENDBRANCH   5  21
TORSDOF 4
