REMARK  Name = ZINC09516757
REMARK  9 active torsions:
REMARK  status: ('A' for Active; 'I' for Inactive)
REMARK    1  A    between atoms: C_1  and  C_2
REMARK    2  A    between atoms: C_2  and  C_3
REMARK    3  A    between atoms: C_3  and  N_4
REMARK    4  A    between atoms: C_8  and  S_30
REMARK    5  A    between atoms: C_12  and  S_13
REMARK    6  A    between atoms: S_13  and  C_14
REMARK    7  A    between atoms: C_14  and  C_15
REMARK    8  A    between atoms: C_20  and  C_29
REMARK    9  A    between atoms: S_30  and  N_33
REMARK                            x       y       z     vdW  Elec       q    Type
REMARK                         _______ _______ _______ _____ _____    ______ ____
ROOT
ATOM      1  N   UNL     1      -3.191   2.771   4.783  0.00  0.00    -0.319 N 
ATOM      2  C   UNL     1      -2.345   2.684   3.689  0.00  0.00    +0.070 A 
ATOM      3  C   UNL     1      -1.420   3.545   3.118  0.00  0.00    +0.030 A 
ATOM      4  C   UNL     1      -0.712   3.150   2.002  0.00  0.00    +0.030 A 
ATOM      5  C   UNL     1      -0.927   1.900   1.439  0.00  0.00    +0.107 A 
ATOM      6  C   UNL     1      -1.841   1.032   1.993  0.00  0.00    +0.058 A 
ATOM      7  C   UNL     1      -2.562   1.415   3.127  0.00  0.00    +0.092 A 
ATOM      8  N   UNL     1      -3.507   0.798   3.884  0.00  0.00    -0.222 NA
ATOM      9  C   UNL     1      -3.879   1.593   4.858  0.00  0.00    +0.170 A 
ENDROOT
BRANCH   5  10
ATOM     10  S   UNL     1      -0.017   1.417   0.010  0.00  0.00    +0.056 S 
ATOM     11  O   UNL     1       0.002  -0.004   0.002  0.00  0.00    -0.153 OA
ATOM     12  O   UNL     1       1.172   2.195   0.003  0.00  0.00    -0.153 OA
BRANCH  10  13
ATOM     13  N   UNL     1      -0.897   1.885  -1.312  0.00  0.00    -0.204 NA
ATOM     14  H   UNL     1      -1.747   2.338  -1.194  0.00  0.00    +0.144 HD
ATOM     15  H   UNL     1      -0.563   1.708  -2.205  0.00  0.00    +0.144 HD
ENDBRANCH  10  13
ENDBRANCH   5  10
BRANCH   1  16
ATOM     16  C   UNL     1      -3.323   3.914   5.690  0.00  0.00    +0.124 C 
BRANCH  16  18
ATOM     17  C   UNL     1      -2.475   4.956   7.796  0.00  0.00    +0.005 C 
ATOM     18  C   UNL     1      -2.336   3.762   6.849  0.00  0.00    +0.018 C 
ENDBRANCH  16  18
ENDBRANCH   1  16
BRANCH   9  19
ATOM     19  S   UNL     1      -5.086   1.201   6.080  0.00  0.00    -0.078 S 
BRANCH  19  20
ATOM     20  C   UNL     1      -5.541  -0.468   5.549  0.00  0.00    +0.173 C 
BRANCH  20  21
ATOM     21  C   UNL     1      -6.592  -1.022   6.476  0.00  0.00    +0.230 C 
ATOM     22  O   UNL     1      -6.994  -0.353   7.405  0.00  0.00    -0.274 OA
ATOM     23  N   UNL     1      -7.085  -2.259   6.273  0.00  0.00    -0.270 N 
ATOM     24  C   UNL     1      -8.113  -2.817   7.167  0.00  0.00    +0.115 C 
ATOM     25  C   UNL     1      -7.487  -3.559   8.320  0.00  0.00    +0.033 C 
ATOM     26  C   UNL     1      -6.745  -4.832   7.950  0.00  0.00    +0.050 C 
ATOM     27  S   UNL     1      -5.212  -4.429   7.062  0.00  0.00    -0.120 S 
ATOM     28  C   UNL     1      -5.788  -4.129   5.406  0.00  0.00    +0.030 A 
ATOM     29  C   UNL     1      -6.638  -3.042   5.204  0.00  0.00    +0.050 A 
ATOM     30  C   UNL     1      -7.051  -2.751   3.913  0.00  0.00    +0.024 A 
ATOM     31  C   UNL     1      -6.651  -3.556   2.863  0.00  0.00    +0.002 A 
ATOM     32  C   UNL     1      -5.838  -4.653   3.081  0.00  0.00    +0.001 A 
ATOM     33  C   UNL     1      -5.398  -4.942   4.363  0.00  0.00    +0.016 A 
ATOM     34  C   UNL     1      -6.403  -5.608   9.224  0.00  0.00    +0.019 C 
ENDBRANCH  20  21
ENDBRANCH  19  20
ENDBRANCH   9  19
TORSDOF 7
