REMARK  Name = ZINC12325274
REMARK  9 active torsions:
REMARK  status: ('A' for Active; 'I' for Inactive)
REMARK    1  A    between atoms: C_2  and  C_3
REMARK    2  A    between atoms: C_3  and  N_4
REMARK    3  A    between atoms: C_5  and  C_18
REMARK    4  A    between atoms: C_8  and  S_9
REMARK    5  A    between atoms: S_9  and  C_10
REMARK    6  A    between atoms: C_10  and  C_11
REMARK    7  A    between atoms: C_11  and  N_67
REMARK    8  A    between atoms: C_23  and  C_24
REMARK    9  A    between atoms: C_23  and  N_69
REMARK                            x       y       z     vdW  Elec       q    Type
REMARK                         _______ _______ _______ _____ _____    ______ ____
ROOT
ATOM      1  N   UNL     1      -4.957   0.061   5.945  0.00  0.00    -0.302 N 
ATOM      2  C   UNL     1      -4.866   0.837   7.068  0.00  0.00    +0.137 A 
ATOM      3  N   UNL     1      -3.908   1.697   6.868  0.00  0.00    -0.133 NA
ATOM      4  N   UNL     1      -3.387   1.515   5.707  0.00  0.00    -0.122 NA
ATOM      5  C   UNL     1      -3.990   0.521   5.098  0.00  0.00    +0.192 A 
ENDROOT
BRANCH   2   6
ATOM      6  C   UNL     1      -5.720   0.722   8.304  0.00  0.00    +0.054 C 
ATOM      7  C   UNL     1      -6.471   2.037   8.530  0.00  0.00    -0.008 C 
ATOM      8  C   UNL     1      -7.288   1.937   9.820  0.00  0.00    -0.078 C 
ATOM      9  C   UNL     1      -5.696   0.381  10.777  0.00  0.00    -0.078 C 
ATOM     10  C   UNL     1      -4.830   0.436   9.517  0.00  0.00    -0.008 C 
ATOM     11  N   UNL     1      -6.371   1.685  10.952  0.00  0.00    +0.382 N 
ATOM     12  H   UNL     1      -5.662   2.427  10.978  0.00  0.00    -0.081 HD
BRANCH  11  13
ATOM     13  C   UNL     1      -7.124   1.696  12.224  0.00  0.00    -0.043 C 
BRANCH  13  14
ATOM     14  C   UNL     1      -8.016   2.910  12.258  0.00  0.00    -0.061 A 
ATOM     15  C   UNL     1      -7.540   4.103  12.772  0.00  0.00    +0.005 A 
ATOM     16  C   UNL     1      -8.354   5.219  12.800  0.00  0.00    +0.041 A 
ATOM     17  C   UNL     1      -9.651   5.141  12.323  0.00  0.00    +0.158 A 
ATOM     18  C   UNL     1     -10.130   3.944  11.813  0.00  0.00    +0.159 A 
ATOM     19  C   UNL     1      -9.310   2.830  11.782  0.00  0.00    +0.043 A 
ATOM     20  F   UNL     1     -11.396   3.866  11.347  0.00  0.00    -0.202 F 
ATOM     21  F   UNL     1     -10.450   6.231  12.354  0.00  0.00    -0.202 F 
ENDBRANCH  13  14
ENDBRANCH  11  13
ENDBRANCH   2   6
BRANCH   1  22
ATOM     22  C   UNL     1      -5.895  -1.038   5.703  0.00  0.00    +0.152 C 
BRANCH  22  24
ATOM     23  C   UNL     1      -5.934  -3.079   7.044  0.00  0.00    +0.005 C 
ATOM     24  C   UNL     1      -5.288  -2.332   6.183  0.00  0.00    -0.013 C 
ENDBRANCH  22  24
ENDBRANCH   1  22
BRANCH   5  25
ATOM     25  S   UNL     1      -3.626  -0.097   3.489  0.00  0.00    -0.088 S 
BRANCH  25  26
ATOM     26  C   UNL     1      -2.269   1.008   3.027  0.00  0.00    +0.059 C 
BRANCH  26  27
ATOM     27  C   UNL     1      -1.775   0.650   1.624  0.00  0.00    -0.068 C 
BRANCH  27  34
ATOM     28  C   UNL     1      -0.013   1.086   0.008  0.00  0.00    -0.079 C 
ATOM     29  C   UNL     1      -0.709   1.568  -1.236  0.00  0.00    -0.019 C 
ATOM     30  C   UNL     1      -0.035   2.878  -1.696  0.00  0.00    -0.002 C 
ATOM     31  C   UNL     1      -0.471   4.027  -0.910  0.00  0.00    -0.002 C 
ATOM     32  C   UNL     1      -0.118   3.878   0.585  0.00  0.00    -0.019 C 
ATOM     33  C   UNL     1      -1.122   2.957   1.223  0.00  0.00    -0.079 C 
ATOM     34  N   UNL     1      -0.645   1.534   1.296  0.00  0.00    +0.380 N 
ATOM     35  H   UNL     1       0.057   1.466   2.042  0.00  0.00    -0.082 HD
ENDBRANCH  27  34
ENDBRANCH  26  27
ENDBRANCH  25  26
ENDBRANCH   5  25
TORSDOF 9
