REMARK  Name = ZINC09611447
REMARK  7 active torsions:
REMARK  status: ('A' for Active; 'I' for Inactive)
REMARK    1  A    between atoms: C_4  and  C_7
REMARK    2  A    between atoms: C_7  and  C_8
REMARK    3  A    between atoms: C_8  and  C_10
REMARK    4  A    between atoms: C_8  and  N_21
REMARK    5  A    between atoms: N_12  and  C_13
REMARK    6  A    between atoms: N_21  and  S_22
REMARK    7  A    between atoms: S_22  and  C_25
REMARK                            x       y       z     vdW  Elec       q    Type
REMARK                         _______ _______ _______ _____ _____    ______ ____
ROOT
ATOM      1  C   UNL     1      -2.952   0.483   1.320  0.00  0.00    +0.167 C 
ENDROOT
BRANCH   1   2
ATOM      2  C   UNL     1      -3.728  -0.808   1.361  0.00  0.00    +0.236 C 
ATOM      3  O   UNL     1      -4.773  -0.869   1.974  0.00  0.00    -0.274 OA
ATOM      4  N   UNL     1      -3.260  -1.896   0.717  0.00  0.00    -0.282 N 
ATOM      5  H   UNL     1      -2.458  -1.832   0.176  0.00  0.00    +0.155 HD
BRANCH   4   6
ATOM      6  C   UNL     1      -3.934  -3.120   0.829  0.00  0.00    +0.069 A 
ATOM      7  C   UNL     1      -5.315  -3.143   0.970  0.00  0.00    +0.027 A 
ATOM      8  C   UNL     1      -5.977  -4.350   1.080  0.00  0.00    +0.022 A 
ATOM      9  C   UNL     1      -5.266  -5.537   1.048  0.00  0.00    +0.044 A 
ATOM     10  C   UNL     1      -3.889  -5.519   0.907  0.00  0.00    +0.060 A 
ATOM     11  C   UNL     1      -3.221  -4.313   0.792  0.00  0.00    +0.146 A 
ATOM     12  F   UNL     1      -1.878  -4.295   0.649  0.00  0.00    -0.203 F 
ATOM     13 CL   UNL     1      -6.102  -7.052   1.187  0.00  0.00    -0.083 Cl
ENDBRANCH   4   6
ENDBRANCH   1   2
BRANCH   1  14
ATOM     14  N   UNL     1      -3.664   1.505   2.091  0.00  0.00    -0.178 NA
ATOM     15  H   UNL     1      -4.370   2.022   1.673  0.00  0.00    +0.149 HD
BRANCH  14  16
ATOM     16  S   UNL     1      -3.262   1.778   3.674  0.00  0.00    +0.059 S 
ATOM     17  O   UNL     1      -4.095   2.836   4.127  0.00  0.00    -0.153 OA
ATOM     18  O   UNL     1      -3.232   0.507   4.309  0.00  0.00    -0.153 OA
BRANCH  16  19
ATOM     19  C   UNL     1      -1.611   2.391   3.694  0.00  0.00    +0.106 A 
ATOM     20  C   UNL     1      -1.382   3.755   3.706  0.00  0.00    +0.030 A 
ATOM     21  C   UNL     1      -0.089   4.240   3.722  0.00  0.00    +0.025 A 
ATOM     22  C   UNL     1       0.982   3.356   3.728  0.00  0.00    +0.037 A 
ATOM     23  C   UNL     1       0.748   1.987   3.716  0.00  0.00    -0.024 A 
ATOM     24  C   UNL     1      -0.547   1.508   3.705  0.00  0.00    +0.034 A 
ATOM     25  C   UNL     1       1.910   1.028   3.723  0.00  0.00    +0.046 C 
ATOM     26  C   UNL     1       3.074   1.630   2.936  0.00  0.00    +0.101 C 
ATOM     27  C   UNL     1       3.318   3.046   3.383  0.00  0.00    +0.218 C 
ATOM     28  O   UNL     1       4.452   3.476   3.419  0.00  0.00    -0.275 OA
ATOM     29  N   UNL     1       2.294   3.840   3.745  0.00  0.00    -0.285 N 
ATOM     30  H   UNL     1       2.466   4.754   4.019  0.00  0.00    +0.155 HD
ENDBRANCH  16  19
ENDBRANCH  14  16
ENDBRANCH   1  14
BRANCH   1  31
ATOM     31  C   UNL     1      -2.808   0.946  -0.131  0.00  0.00    +0.065 C 
BRANCH  31  35
ATOM     32  C   UNL     1      -0.396   4.468  -0.277  0.00  0.00    +0.000 A 
ATOM     33  C   UNL     1       0.201   3.221  -0.270  0.00  0.00    +0.000 A 
ATOM     34  C   UNL     1      -0.580   2.082  -0.219  0.00  0.00    +0.004 A 
ATOM     35  C   UNL     1      -1.957   2.188  -0.180  0.00  0.00    -0.045 A 
ATOM     36  C   UNL     1      -2.554   3.435  -0.182  0.00  0.00    +0.004 A 
ATOM     37  C   UNL     1      -1.774   4.575  -0.233  0.00  0.00    +0.000 A 
ENDBRANCH  31  35
ENDBRANCH   1  31
TORSDOF 7
