REMARK  Name = ZINC44943734
REMARK  5 active torsions:
REMARK  status: ('A' for Active; 'I' for Inactive)
REMARK    1  A    between atoms: C_4  and  C_7
REMARK    2  A    between atoms: C_7  and  C_9
REMARK    3  A    between atoms: C_7  and  N_16
REMARK    4  A    between atoms: C_17  and  C_19
REMARK    5  A    between atoms: C_25  and  C_27
REMARK                            x       y       z     vdW  Elec       q    Type
REMARK                         _______ _______ _______ _____ _____    ______ ____
ROOT
ATOM      1  C   UNL     1       3.786  -2.939   3.044  0.00  0.00    +0.091 C 
ATOM      2  C   UNL     1       2.344  -3.451   3.072  0.00  0.00    +0.040 C 
ATOM      3  C   UNL     1       1.468  -2.491   3.822  0.00  0.00    -0.030 C 
ATOM      4  C   UNL     1       1.914  -1.576   4.622  0.00  0.00    -0.030 C 
ATOM      5  C   UNL     1       3.370  -1.341   4.903  0.00  0.00    +0.040 C 
ATOM      6  C   UNL     1       4.197  -2.559   4.472  0.00  0.00    +0.091 C 
ENDROOT
BRANCH   6   7
ATOM      7  C   UNL     1       5.665  -2.219   4.503  0.00  0.00    +0.220 C 
ATOM      8  O   UNL     1       6.023  -1.065   4.401  0.00  0.00    -0.275 OA
ATOM      9  N   UNL     1       6.581  -3.199   4.643  0.00  0.00    -0.298 N 
ATOM     10  C   UNL     1       6.172  -4.610   4.644  0.00  0.00    +0.126 C 
ATOM     11  C   UNL     1       6.963  -5.351   3.559  0.00  0.00    +0.125 C 
ATOM     12  N   UNL     1       8.388  -5.027   3.712  0.00  0.00    -0.314 N 
ATOM     13  C   UNL     1       8.797  -3.615   3.711  0.00  0.00    +0.125 C 
ATOM     14  C   UNL     1       8.007  -2.874   4.790  0.00  0.00    +0.126 C 
ATOM     15  C   UNL     1       9.332  -6.037   3.857  0.00  0.00    +0.099 A 
ATOM     16  C   UNL     1       8.914  -7.358   3.979  0.00  0.00    +0.042 A 
ATOM     17  C   UNL     1       9.864  -8.353   4.123  0.00  0.00    +0.005 A 
ATOM     18  C   UNL     1      11.205  -7.992   4.139  0.00  0.00    +0.018 A 
ATOM     19  C   UNL     1      11.548  -6.661   4.013  0.00  0.00    +0.084 A 
ATOM     20  N   UNL     1      10.620  -5.733   3.872  0.00  0.00    -0.350 N 
ATOM     21  H   UNL     1      10.889  -4.805   3.781  0.00  0.00    +0.166 HD
ENDBRANCH   6   7
BRANCH   1  23
ATOM     22  N   UNL     1       5.052  -1.397   1.582  0.00  0.00    -0.304 N 
ATOM     23  C   UNL     1       3.876  -1.728   2.151  0.00  0.00    +0.218 C 
ATOM     24  O   UNL     1       2.891  -1.052   1.945  0.00  0.00    -0.275 OA
ATOM     25  H   UNL     1       5.840  -1.938   1.747  0.00  0.00    +0.150 HD
BRANCH  22  26
ATOM     26  C   UNL     1       5.140  -0.220   0.714  0.00  0.00    +0.134 C 
BRANCH  26  27
ATOM     27  C   UNL     1       6.557   0.292   0.705  0.00  0.00    -0.023 A 
ATOM     28  C   UNL     1       7.613  -0.599   0.669  0.00  0.00    +0.007 A 
ATOM     29  C   UNL     1       8.913  -0.129   0.660  0.00  0.00    +0.020 A 
ATOM     30  C   UNL     1       9.157   1.232   0.687  0.00  0.00    +0.041 A 
ATOM     31  C   UNL     1       8.099   2.123   0.723  0.00  0.00    +0.020 A 
ATOM     32  C   UNL     1       6.800   1.653   0.726  0.00  0.00    +0.007 A 
ATOM     33 CL   UNL     1      10.790   1.823   0.677  0.00  0.00    -0.084 Cl
ENDBRANCH  26  27
BRANCH  26  37
ATOM     34  C   UNL     1       3.988  -1.290  -3.258  0.00  0.00    +0.000 A 
ATOM     35  C   UNL     1       3.588  -0.078  -2.725  0.00  0.00    +0.000 A 
ATOM     36  C   UNL     1       3.961   0.268  -1.439  0.00  0.00    +0.006 A 
ATOM     37  C   UNL     1       4.732  -0.598  -0.687  0.00  0.00    -0.023 A 
ATOM     38  C   UNL     1       5.131  -1.810  -1.220  0.00  0.00    +0.006 A 
ATOM     39  C   UNL     1       4.760  -2.155  -2.506  0.00  0.00    +0.000 A 
ENDBRANCH  26  37
ENDBRANCH  22  26
ENDBRANCH   1  23
TORSDOF 5
