REMARK  Name = ZINC37542767
REMARK  5 active torsions:
REMARK  status: ('A' for Active; 'I' for Inactive)
REMARK    1  A    between atoms: C_2  and  S_8
REMARK    2  A    between atoms: S_8  and  N_11
REMARK    3  A    between atoms: N_11  and  C_12
REMARK    4  A    between atoms: N_11  and  C_16
REMARK    5  A    between atoms: C_12  and  C_13
REMARK                            x       y       z     vdW  Elec       q    Type
REMARK                         _______ _______ _______ _____ _____    ______ ____
ROOT
ATOM      1  N   UNL     1       1.768   4.275   1.494  0.00  0.00    -0.165 NA
ENDROOT
BRANCH   1   2
ATOM      2  C   UNL     1       0.871   4.245   2.652  0.00  0.00    +0.077 C 
ATOM      3  C   UNL     1       0.879   5.612   3.342  0.00  0.00    +0.001 C 
ATOM      4  C   UNL     1       0.002   5.550   4.595  0.00  0.00    -0.081 C 
ATOM      5  N   UNL     1       0.528   4.533   5.514  0.00  0.00    +0.379 N 
ATOM      6  C   UNL     1       0.457   3.208   4.885  0.00  0.00    -0.081 C 
ATOM      7  C   UNL     1       1.350   3.181   3.643  0.00  0.00    +0.001 C 
ATOM      8  H   UNL     1       1.488   4.747   5.737  0.00  0.00    -0.086 HD
ATOM      9  H   UNL     1      -0.020   4.532   6.361  0.00  0.00    -0.086 HD
ENDBRANCH   1   2
BRANCH   1  10
ATOM     10  S   UNL     1       1.175   3.967  -0.021  0.00  0.00    +0.063 S 
ATOM     11  O   UNL     1       1.981   4.705  -0.930  0.00  0.00    -0.153 OA
ATOM     12  O   UNL     1      -0.234   4.131   0.053  0.00  0.00    -0.153 OA
BRANCH  10  14
ATOM     13  C   UNL     1       2.385   1.885  -1.321  0.00  0.00    +0.052 A 
ATOM     14  C   UNL     1       1.467   2.263  -0.358  0.00  0.00    +0.128 A 
ATOM     15  C   UNL     1       0.795   1.302   0.322  0.00  0.00    +0.082 A 
ATOM     16  S   UNL     1       1.458  -0.192  -0.396  0.00  0.00    -0.073 S 
ATOM     17  C   UNL     1       2.586   0.564  -1.555  0.00  0.00    +0.058 A 
ATOM     18 BR   UNL     1       3.756  -0.262  -2.789  0.00  0.00    -0.042 Br
ATOM     19 BR   UNL     1      -0.506   1.494   1.681  0.00  0.00    -0.041 Br
ENDBRANCH  10  14
ENDBRANCH   1  10
BRANCH   1  20
ATOM     20  C   UNL     1       3.190   4.578   1.677  0.00  0.00    +0.205 C 
BRANCH  20  21
ATOM     21  C   UNL     1       3.394   6.071   1.641  0.00  0.00    +0.226 C 
ATOM     22  O   UNL     1       2.446   6.809   1.478  0.00  0.00    -0.275 OA
ATOM     23  N   UNL     1       4.631   6.585   1.789  0.00  0.00    -0.328 N 
ATOM     24  H   UNL     1       5.389   5.995   1.919  0.00  0.00    +0.145 HD
ATOM     25  H   UNL     1       4.762   7.546   1.765  0.00  0.00    +0.145 HD
ENDBRANCH  20  21
ENDBRANCH   1  20
TORSDOF 5
