REMARK  Name = ZINC04597260
REMARK  10 active torsions:
REMARK  status: ('A' for Active; 'I' for Inactive)
REMARK    1  A    between atoms: C_1  and  C_2
REMARK    2  A    between atoms: C_2  and  O_3
REMARK    3  A    between atoms: O_3  and  C_4
REMARK    4  A    between atoms: C_7  and  C_13
REMARK    5  A    between atoms: C_8  and  O_10
REMARK    6  A    between atoms: O_10  and  C_11
REMARK    7  A    between atoms: C_11  and  C_12
REMARK    8  A    between atoms: C_20  and  N_33
REMARK    9  A    between atoms: C_21  and  C_31
REMARK   10  A    between atoms: C_22  and  C_24
REMARK                            x       y       z     vdW  Elec       q    Type
REMARK                         _______ _______ _______ _____ _____    ______ ____
ROOT
ATOM      1  C   UNL     1      -2.046  -6.421   0.136  0.00  0.00    +0.104 A 
ATOM      2  C   UNL     1      -0.916  -7.220  -0.066  0.00  0.00    +0.054 A 
ATOM      3  C   UNL     1      -1.318  -8.524  -0.083  0.00  0.00    +0.223 A 
ATOM      4  N   UNL     1      -2.654  -8.544   0.102  0.00  0.00    -0.246 N 
ATOM      5  H   UNL     1      -3.213  -9.336   0.137  0.00  0.00    +0.192 HD
ATOM      6  N   UNL     1      -3.092  -7.218   0.243  0.00  0.00    -0.170 NA
ATOM      7  O   UNL     1      -0.454  -9.554  -0.263  0.00  0.00    -0.423 OA
ATOM      8  C   UNL     1       0.787  -9.260  -0.701  0.00  0.00    +0.200 C 
ATOM      9  C   UNL     1       1.301  -8.010  -0.720  0.00  0.00    +0.098 C 
ATOM     10  C   UNL     1       0.523  -6.809  -0.241  0.00  0.00    +0.102 C 
ENDROOT
BRANCH  10  11
ATOM     11  C   UNL     1       1.081  -6.335   1.076  0.00  0.00    -0.034 A 
ATOM     12  C   UNL     1       1.052  -7.168   2.179  0.00  0.00    +0.007 A 
ATOM     13  C   UNL     1       1.563  -6.734   3.387  0.00  0.00    +0.038 A 
ATOM     14  C   UNL     1       2.105  -5.465   3.493  0.00  0.00    +0.123 A 
ATOM     15  C   UNL     1       2.134  -4.631   2.388  0.00  0.00    +0.038 A 
ATOM     16  C   UNL     1       1.627  -5.069   1.179  0.00  0.00    +0.007 A 
ATOM     17  F   UNL     1       2.605  -5.040   4.674  0.00  0.00    -0.205 F 
ENDBRANCH  10  11
BRANCH   1  21
ATOM     18  C   UNL     1      -2.099  -2.171   0.376  0.00  0.00    +0.124 A 
ATOM     19  C   UNL     1      -1.410  -2.801  -0.653  0.00  0.00    +0.046 A 
ATOM     20  C   UNL     1      -1.391  -4.178  -0.733  0.00  0.00    +0.017 A 
ATOM     21  C   UNL     1      -2.064  -4.940   0.220  0.00  0.00    +0.044 A 
ATOM     22  C   UNL     1      -2.756  -4.305   1.256  0.00  0.00    +0.133 A 
ATOM     23  C   UNL     1      -2.766  -2.923   1.332  0.00  0.00    +0.092 A 
BRANCH  18  24
ATOM     24  O   UNL     1      -2.114  -0.814   0.450  0.00  0.00    -0.492 OA
BRANCH  24  26
ATOM     25  C   UNL     1      -1.536   1.403  -0.319  0.00  0.00    +0.048 C 
ATOM     26  C   UNL     1      -1.406  -0.101  -0.567  0.00  0.00    +0.225 C 
ENDBRANCH  24  26
ENDBRANCH  18  24
BRANCH  22  27
ATOM     27  O   UNL     1      -3.414  -5.043   2.187  0.00  0.00    -0.491 OA
BRANCH  27  28
ATOM     28  C   UNL     1      -4.100  -4.327   3.216  0.00  0.00    +0.226 C 
ATOM     29  C   UNL     1      -4.776  -5.319   4.165  0.00  0.00    +0.048 C 
ENDBRANCH  27  28
ENDBRANCH  22  27
ENDBRANCH   1  21
BRANCH   8  30
ATOM     30  N   UNL     1       1.573 -10.289  -1.154  0.00  0.00    -0.328 N 
ATOM     31  H   UNL     1       1.232 -11.197  -1.153  0.00  0.00    +0.145 HD
ATOM     32  H   UNL     1       2.471 -10.109  -1.476  0.00  0.00    +0.145 HD
ENDBRANCH   8  30
BRANCH   9  33
ATOM     33  C   UNL     1       2.632  -7.819  -1.211  0.00  0.00    +0.101 C 
ATOM     34  N   UNL     1       3.688  -7.667  -1.601  0.00  0.00    -0.191 NA
ENDBRANCH   9  33
TORSDOF 8
