REMARK  Name = ZINC34974768
REMARK  16 active torsions:
REMARK  status: ('A' for Active; 'I' for Inactive)
REMARK    1  A    between atoms: C_1  and  C_2
REMARK    2  A    between atoms: C_7  and  N_8
REMARK    3  A    between atoms: N_11  and  C_12
REMARK    4  A    between atoms: C_12  and  C_14
REMARK    5  A    between atoms: C_12  and  C_17
REMARK    6  A    between atoms: C_14  and  C_15
REMARK    7  A    between atoms: C_14  and  C_16
REMARK    8  A    between atoms: C_23  and  C_26
REMARK    9  A    between atoms: C_27  and  C_29
REMARK   10  A    between atoms: C_29  and  C_30
REMARK   11  A    between atoms: C_30  and  C_32
REMARK   12  A    between atoms: C_30  and  C_33
REMARK   13  A    between atoms: C_33  and  C_34
REMARK   14  A    between atoms: C_34  and  C_35
REMARK   15  A    between atoms: C_34  and  C_36
REMARK   16  A    between atoms: C_34  and  C_37
REMARK                            x       y       z     vdW  Elec       q    Type
REMARK                         _______ _______ _______ _____ _____    ______ ____
ROOT
ATOM      1  C   UNL     1      -0.104   1.588   7.865  0.00  0.00    +0.236 C 
ATOM      2  O   UNL     1      -0.455   2.659   8.313  0.00  0.00    -0.274 OA
ATOM      3  N   UNL     1      -0.062   0.504   8.665  0.00  0.00    -0.297 N 
ATOM      4  C   UNL     1       0.455  -0.777   8.162  0.00  0.00    +0.127 C 
ATOM      5  C   UNL     1      -0.613  -1.856   8.380  0.00  0.00    +0.127 C 
ATOM      6  N   UNL     1      -1.083  -1.778   9.770  0.00  0.00    -0.296 N 
ATOM      7  C   UNL     1      -1.600  -0.497  10.273  0.00  0.00    +0.090 C 
ATOM      8  C   UNL     1      -0.526   0.583  10.057  0.00  0.00    +0.130 C 
ATOM      9  C   UNL     1      -1.914  -0.621  11.765  0.00  0.00    +0.029 C 
ATOM     10  C   UNL     1      -1.041  -2.862  10.570  0.00  0.00    +0.216 C 
ATOM     11  O   UNL     1      -1.520  -2.813  11.683  0.00  0.00    -0.276 OA
ENDROOT
BRANCH   1  12
ATOM     12  C   UNL     1       0.285   1.469   6.414  0.00  0.00    +0.163 C 
BRANCH  12  16
ATOM     13  N   UNL     1      -1.465   3.018   3.575  0.00  0.00    -0.269 N 
ATOM     14  C   UNL     1      -0.730   2.158   4.309  0.00  0.00    +0.304 C 
ATOM     15  O   UNL     1      -0.264   1.162   3.792  0.00  0.00    -0.252 OA
ATOM     16  N   UNL     1      -0.513   2.404   5.617  0.00  0.00    -0.288 N 
ATOM     17  H   UNL     1      -1.778   3.847   3.970  0.00  0.00    +0.156 HD
ATOM     18  H   UNL     1      -0.885   3.199   6.029  0.00  0.00    +0.151 HD
BRANCH  13  25
ATOM     19  C   UNL     1      -3.969   3.893   2.546  0.00  0.00    +0.045 C 
ATOM     20  C   UNL     1      -2.986   3.123   1.702  0.00  0.00    -0.029 A 
ATOM     21  C   UNL     1      -3.287   2.827   0.387  0.00  0.00    +0.005 A 
ATOM     22  C   UNL     1      -2.385   2.120  -0.387  0.00  0.00    +0.000 A 
ATOM     23  C   UNL     1      -1.181   1.706   0.152  0.00  0.00    +0.002 A 
ATOM     24  C   UNL     1      -0.874   1.999   1.466  0.00  0.00    +0.023 A 
ATOM     25  C   UNL     1      -1.775   2.715   2.245  0.00  0.00    +0.038 A 
ENDBRANCH  13  25
ENDBRANCH  12  16
BRANCH  12  26
ATOM     26  C   UNL     1       1.770   1.802   6.255  0.00  0.00    +0.012 C 
ATOM     27  C   UNL     1       2.052   3.178   6.863  0.00  0.00    +0.009 C 
ATOM     28  C   UNL     1       2.610   0.745   6.975  0.00  0.00    +0.009 C 
ENDBRANCH  12  26
ENDBRANCH   1  12
BRANCH  10  29
ATOM     29  C   UNL     1      -0.398  -4.135  10.081  0.00  0.00    +0.099 C 
BRANCH  29  30
ATOM     30  C   UNL     1      -0.484  -5.202  11.174  0.00  0.00    -0.005 C 
ATOM     31  C   UNL     1      -1.950  -5.559  11.425  0.00  0.00    +0.008 C 
BRANCH  30  32
ATOM     32  C   UNL     1       0.276  -6.452  10.727  0.00  0.00    +0.010 C 
BRANCH  32  33
ATOM     33  C   UNL     1       0.346  -7.449  11.886  0.00  0.00    -0.037 C 
ATOM     34  C   UNL     1      -1.004  -8.153  12.035  0.00  0.00    +0.010 C 
ATOM     35  C   UNL     1       1.434  -8.486  11.602  0.00  0.00    +0.010 C 
ATOM     36  C   UNL     1       0.677  -6.703  13.181  0.00  0.00    +0.010 C 
ENDBRANCH  32  33
ENDBRANCH  30  32
ENDBRANCH  29  30
ENDBRANCH  10  29
TORSDOF 8
