REMARK  Name = ZINC11542442
REMARK  7 active torsions:
REMARK  status: ('A' for Active; 'I' for Inactive)
REMARK    1  A    between atoms: C_3  and  C_6
REMARK    2  A    between atoms: C_8  and  C_18
REMARK    3  A    between atoms: N_10  and  C_11
REMARK    4  A    between atoms: N_20  and  C_21
REMARK    5  A    between atoms: C_21  and  C_22
REMARK    6  A    between atoms: C_22  and  C_23
REMARK    7  A    between atoms: C_23  and  N_24
REMARK                            x       y       z     vdW  Elec       q    Type
REMARK                         _______ _______ _______ _____ _____    ______ ____
ROOT
ATOM      1  C   UNL     1       0.515   8.681  -0.373  0.00  0.00    +0.283 C 
ATOM      2  O   UNL     1       1.301   9.602  -0.259  0.00  0.00    -0.267 OA
ATOM      3  N   UNL     1      -0.768   8.928  -0.705  0.00  0.00    -0.309 N 
ATOM      4  H   UNL     1      -1.395   8.193  -0.796  0.00  0.00    +0.149 HD
ENDROOT
BRANCH   1   7
ATOM      5  C   UNL     1       0.912   5.126   0.019  0.00  0.00    +0.171 A 
ATOM      6  N   UNL     1       0.198   6.200  -0.250  0.00  0.00    -0.202 NA
ATOM      7  C   UNL     1       0.967   7.292  -0.148  0.00  0.00    +0.237 A 
ATOM      8  N   UNL     1       2.191   6.930   0.179  0.00  0.00    -0.139 NA
ATOM      9  N   UNL     1       2.188   5.531   0.295  0.00  0.00    -0.211 N 
BRANCH   9  10
ATOM     10  C   UNL     1       3.276   4.713   0.627  0.00  0.00    +0.068 A 
ATOM     11  C   UNL     1       3.079   3.571   1.391  0.00  0.00    +0.030 A 
ATOM     12  C   UNL     1       4.152   2.764   1.714  0.00  0.00    +0.040 A 
ATOM     13  C   UNL     1       5.425   3.098   1.284  0.00  0.00    +0.124 A 
ATOM     14  C   UNL     1       5.624   4.240   0.526  0.00  0.00    +0.040 A 
ATOM     15  C   UNL     1       4.553   5.047   0.197  0.00  0.00    +0.030 A 
ATOM     16  F   UNL     1       6.474   2.310   1.605  0.00  0.00    -0.205 F 
ENDBRANCH   9  10
BRANCH   5  19
ATOM     17  C   UNL     1      -1.081   1.916   0.017  0.00  0.00    +0.008 A 
ATOM     18  C   UNL     1      -0.867   3.274   0.026  0.00  0.00    +0.019 A 
ATOM     19  C   UNL     1       0.425   3.737   0.017  0.00  0.00    +0.056 A 
ATOM     20  S   UNL     1       1.361   2.217   0.001  0.00  0.00    -0.094 S 
ATOM     21  C   UNL     1      -0.013   1.076   0.008  0.00  0.00    +0.046 A 
ENDBRANCH   5  19
ENDBRANCH   1   7
BRANCH   3  22
ATOM     22  C   UNL     1      -1.215  10.305  -0.928  0.00  0.00    +0.106 C 
BRANCH  22  23
ATOM     23  C   UNL     1      -2.702  10.306  -1.289  0.00  0.00    +0.038 C 
BRANCH  23  24
ATOM     24  C   UNL     1      -3.170  11.743  -1.522  0.00  0.00    +0.119 C 
BRANCH  24  25
ATOM     25  N   UNL     1      -4.593  11.744  -1.868  0.00  0.00    -0.224 N 
ATOM     26  C   UNL     1      -5.594  11.835  -0.965  0.00  0.00    +0.246 C 
ATOM     27  O   UNL     1      -5.492  11.927   0.239  0.00  0.00    -0.273 OA
ATOM     28  C   UNL     1      -6.865  11.796  -1.775  0.00  0.00    +0.113 C 
ATOM     29  C   UNL     1      -7.689  13.073  -1.567  0.00  0.00    +0.035 C 
ATOM     30  C   UNL     1      -9.160  12.584  -1.630  0.00  0.00    +0.003 C 
ATOM     31  C   UNL     1      -9.096  11.208  -0.920  0.00  0.00    +0.003 C 
ATOM     32  C   UNL     1      -7.745  10.611  -1.372  0.00  0.00    +0.035 C 
ATOM     33  N   UNL     1      -6.412  11.678  -3.162  0.00  0.00    -0.285 N 
ATOM     34  C   UNL     1      -5.065  11.661  -3.119  0.00  0.00    +0.309 C 
ATOM     35  O   UNL     1      -4.357  11.576  -4.103  0.00  0.00    -0.252 OA
ATOM     36  H   UNL     1      -6.970  11.627  -3.954  0.00  0.00    +0.151 HD
ENDBRANCH  24  25
ENDBRANCH  23  24
ENDBRANCH  22  23
ENDBRANCH   3  22
TORSDOF 7
