REMARK  Name = ZINC66701671
REMARK  8 active torsions:
REMARK  status: ('A' for Active; 'I' for Inactive)
REMARK    1  A    between atoms: C_1  and  C_2
REMARK    2  A    between atoms: C_7  and  N_10
REMARK    3  A    between atoms: C_11  and  C_13
REMARK    4  A    between atoms: C_13  and  N_14
REMARK    5  A    between atoms: N_22  and  C_23
REMARK    6  A    between atoms: N_27  and  C_29
REMARK    7  A    between atoms: C_29  and  C_30
REMARK    8  A    between atoms: C_29  and  C_31
REMARK                            x       y       z     vdW  Elec       q    Type
REMARK                         _______ _______ _______ _____ _____    ______ ____
ROOT
ATOM      1  N   UNL     1       1.473  -5.605   4.460  0.00  0.00    -0.291 NA
ATOM      2  C   UNL     1       0.061  -5.595   4.867  0.00  0.00    +0.104 C 
ATOM      3  C   UNL     1      -0.433  -7.037   5.021  0.00  0.00    +0.124 C 
ATOM      4  N   UNL     1       0.473  -7.746   5.938  0.00  0.00    -0.283 N 
ATOM      5  C   UNL     1       1.918  -7.686   5.671  0.00  0.00    +0.124 C 
ATOM      6  C   UNL     1       2.320  -6.219   5.491  0.00  0.00    +0.104 C 
ATOM      7  C   UNL     1      -0.008  -8.432   6.993  0.00  0.00    +0.302 C 
ATOM      8  O   UNL     1       0.745  -9.087   7.687  0.00  0.00    -0.253 OA
ATOM      9  N   UNL     1      -1.325  -8.393   7.279  0.00  0.00    -0.298 N 
ATOM     10  H   UNL     1      -1.937  -7.932   6.683  0.00  0.00    +0.150 HD
ENDROOT
BRANCH   9  11
ATOM     11  C   UNL     1      -1.832  -9.046   8.488  0.00  0.00    +0.056 C 
ATOM     12  C   UNL     1      -2.164 -10.528   8.198  0.00  0.00    +0.002 C 
ATOM     13  C   UNL     1      -3.467 -10.755   9.005  0.00  0.00    -0.077 C 
ATOM     14  N   UNL     1      -4.196  -9.471   8.843  0.00  0.00    +0.382 N 
ATOM     15  C   UNL     1      -3.166  -8.409   8.920  0.00  0.00    -0.056 C 
ATOM     16  H   UNL     1      -4.658  -9.445   7.947  0.00  0.00    -0.081 HD
BRANCH  14  17
ATOM     17  C   UNL     1      -5.175  -9.305   9.925  0.00  0.00    -0.075 C 
ATOM     18  C   UNL     1      -5.891  -7.963   9.763  0.00  0.00    -0.014 C 
ATOM     19  C   UNL     1      -6.199 -10.440   9.866  0.00  0.00    -0.014 C 
ENDBRANCH  14  17
ENDBRANCH   9  11
BRANCH   1  20
ATOM     20  C   UNL     1       1.937  -4.250   4.134  0.00  0.00    +0.180 C 
BRANCH  20  22
ATOM     21  N   UNL     1       1.474  -2.520   2.429  0.00  0.00    -0.311 N 
ATOM     22  C   UNL     1       1.209  -3.749   2.914  0.00  0.00    +0.227 C 
ATOM     23  O   UNL     1       0.384  -4.451   2.369  0.00  0.00    -0.274 OA
ATOM     24  H   UNL     1       2.133  -1.958   2.865  0.00  0.00    +0.149 HD
BRANCH  21  30
ATOM     25  C   UNL     1      -0.015   1.536   0.025  0.00  0.00    +0.007 C 
ATOM     26  C   UNL     1       0.005   0.006   0.014  0.00  0.00    -0.012 C 
ATOM     27  C   UNL     1       0.721  -0.486  -1.245  0.00  0.00    +0.003 C 
ATOM     28  C   UNL     1       0.741  -2.016  -1.256  0.00  0.00    +0.002 C 
ATOM     29  C   UNL     1       1.481  -2.525  -0.017  0.00  0.00    +0.022 C 
ATOM     30  C   UNL     1       0.765  -2.033   1.242  0.00  0.00    +0.073 C 
ATOM     31  C   UNL     1       0.745  -0.503   1.253  0.00  0.00    +0.025 C 
ENDBRANCH  21  30
ENDBRANCH  20  22
ENDBRANCH   1  20
TORSDOF 5
