REMARK  Name = ZINC63249704
REMARK  5 active torsions:
REMARK  status: ('A' for Active; 'I' for Inactive)
REMARK    1  A    between atoms: C_4  and  C_7
REMARK    2  A    between atoms: C_7  and  O_8
REMARK    3  A    between atoms: O_8  and  C_9
REMARK    4  A    between atoms: C_16  and  C_24
REMARK    5  A    between atoms: C_28  and  O_30
REMARK                            x       y       z     vdW  Elec       q    Type
REMARK                         _______ _______ _______ _____ _____    ______ ____
ROOT
ATOM      1  C   UNL     1       5.319  -1.605   1.467  0.00  0.00    +0.122 A 
ATOM      2  C   UNL     1       6.037  -2.002   0.325  0.00  0.00    +0.048 A 
ATOM      3  C   UNL     1       7.212  -2.663   0.401  0.00  0.00    +0.029 A 
ATOM      4  C   UNL     1       7.781  -2.993   1.711  0.00  0.00    +0.043 A 
ATOM      5  N   UNL     1       8.895  -3.596   2.055  0.00  0.00    -0.376 N 
ATOM      6  C   UNL     1       8.914  -3.737   3.508  0.00  0.00    +0.128 C 
ATOM      7  C   UNL     1      10.160  -3.116   4.144  0.00  0.00    +0.111 C 
ATOM      8  N   UNL     1       9.951  -3.046   5.599  0.00  0.00    -0.307 NA
ATOM      9  C   UNL     1       8.893  -2.109   5.987  0.00  0.00    +0.086 C 
ATOM     10  C   UNL     1       7.531  -2.606   5.466  0.00  0.00    +0.048 C 
ATOM     11  C   UNL     1       7.715  -2.943   4.003  0.00  0.00    -0.035 C 
ATOM     12  C   UNL     1       7.029  -2.566   2.918  0.00  0.00    +0.003 A 
ATOM     13  C   UNL     1       5.762  -1.852   2.722  0.00  0.00    +0.055 A 
ATOM     14  H   UNL     1       9.782  -3.963   5.984  0.00  0.00    +0.123 HD
ATOM     15  H   UNL     1       9.588  -3.898   1.447  0.00  0.00    +0.160 HD
ENDROOT
BRANCH   7  16
ATOM     16  C   UNL     1      11.364  -3.972   3.843  0.00  0.00    -0.025 A 
ATOM     17  C   UNL     1      11.598  -5.118   4.580  0.00  0.00    +0.005 A 
ATOM     18  C   UNL     1      12.701  -5.905   4.307  0.00  0.00    +0.004 A 
ATOM     19  C   UNL     1      13.573  -5.548   3.297  0.00  0.00    +0.045 A 
ATOM     20  C   UNL     1      13.341  -4.398   2.556  0.00  0.00    +0.117 A 
ATOM     21  C   UNL     1      12.229  -3.613   2.828  0.00  0.00    +0.050 A 
BRANCH  20  22
ATOM     22  O   UNL     1      14.197  -4.045   1.562  0.00  0.00    -0.507 OA
ATOM     23  H   UNL     1      13.968  -4.410   0.697  0.00  0.00    +0.292 HD
ENDBRANCH  20  22
ENDBRANCH   7  16
BRANCH   1  24
ATOM     24  O   UNL     1       4.141  -0.946   1.304  0.00  0.00    -0.487 OA
BRANCH  24  25
ATOM     25  C   UNL     1       3.711  -0.707  -0.038  0.00  0.00    +0.264 C 
BRANCH  25  29
ATOM     26  C   UNL     1      -0.017   1.378   0.010  0.00  0.00    +0.000 A 
ATOM     27  C   UNL     1       1.171   2.086   0.002  0.00  0.00    +0.000 A 
ATOM     28  C   UNL     1       2.377   1.411  -0.013  0.00  0.00    +0.007 A 
ATOM     29  C   UNL     1       2.396   0.029  -0.020  0.00  0.00    -0.010 A 
ATOM     30  C   UNL     1       1.208  -0.679  -0.012  0.00  0.00    +0.007 A 
ATOM     31  C   UNL     1       0.002  -0.004   0.002  0.00  0.00    +0.000 A 
ENDBRANCH  25  29
ENDBRANCH  24  25
ENDBRANCH   1  24
TORSDOF 5
