REMARK  Name = ZINC15040465
REMARK  5 active torsions:
REMARK  status: ('A' for Active; 'I' for Inactive)
REMARK    1  A    between atoms: C_1  and  C_2
REMARK    2  A    between atoms: C_9  and  C_14
REMARK    3  A    between atoms: N_16  and  C_17
REMARK    4  A    between atoms: C_17  and  C_19
REMARK    5  A    between atoms: C_17  and  C_20
REMARK                            x       y       z     vdW  Elec       q    Type
REMARK                         _______ _______ _______ _____ _____    ______ ____
ROOT
ATOM      1  C   UNL     1       1.171   3.559   0.008  0.00  0.00    +0.245 C 
ATOM      2  O   UNL     1       2.218   4.178   0.001  0.00  0.00    -0.270 OA
ATOM      3  N   UNL     1      -0.003   4.220   0.021  0.00  0.00    -0.302 N 
ATOM      4  H   UNL     1      -0.838   3.726   0.026  0.00  0.00    +0.150 HD
ENDROOT
BRANCH   1  12
ATOM      5  C   UNL     1       3.178  -4.268  -0.703  0.00  0.00    +0.029 C 
ATOM      6  C   UNL     1       2.776  -2.809  -0.936  0.00  0.00    +0.134 C 
ATOM      7  C   UNL     1       3.862  -1.901  -0.428  0.00  0.00    +0.230 C 
ATOM      8  O   UNL     1       4.995  -2.332  -0.382  0.00  0.00    -0.274 OA
ATOM      9  N   UNL     1       3.649  -0.651  -0.026  0.00  0.00    -0.284 N 
ATOM     10  C   UNL     1       2.425   0.015  -0.018  0.00  0.00    +0.048 A 
ATOM     11  C   UNL     1       2.405   1.400  -0.012  0.00  0.00    +0.037 A 
ATOM     12  C   UNL     1       1.187   2.084   0.002  0.00  0.00    +0.039 A 
ATOM     13  C   UNL     1      -0.017   1.373   0.010  0.00  0.00    +0.014 A 
ATOM     14  C   UNL     1       0.002  -0.004   0.002  0.00  0.00    +0.017 A 
ATOM     15  C   UNL     1       1.213  -0.684  -0.013  0.00  0.00    +0.030 A 
ATOM     16  S   UNL     1       1.240  -2.449  -0.033  0.00  0.00    -0.111 S 
ATOM     17  H   UNL     1       4.419  -0.155   0.291  0.00  0.00    +0.155 HD
ENDBRANCH   1  12
BRANCH   3  18
ATOM     18  C   UNL     1      -0.019   5.685   0.026  0.00  0.00    +0.136 C 
ATOM     19  C   UNL     1       0.113   6.190   1.464  0.00  0.00    +0.036 C 
BRANCH  18  20
ATOM     20  C   UNL     1      -1.317   6.175  -0.561  0.00  0.00    +0.126 A 
ATOM     21  C   UNL     1      -1.439   7.226  -1.383  0.00  0.00    +0.055 A 
ATOM     22  C   UNL     1      -2.868   7.335  -1.700  0.00  0.00    +0.020 A 
ATOM     23  C   UNL     1      -3.629   8.200  -2.485  0.00  0.00    +0.011 A 
ATOM     24  C   UNL     1      -4.983   8.023  -2.571  0.00  0.00    +0.001 A 
ATOM     25  C   UNL     1      -5.601   6.989  -1.883  0.00  0.00    +0.004 A 
ATOM     26  C   UNL     1      -4.864   6.123  -1.103  0.00  0.00    +0.047 A 
ATOM     27  C   UNL     1      -3.488   6.286  -1.001  0.00  0.00    +0.135 A 
ATOM     28  O   UNL     1      -2.521   5.618  -0.341  0.00  0.00    -0.458 OA
ENDBRANCH  18  20
ENDBRANCH   3  18
TORSDOF 3
