REMARK  Name = ZINC19708418
REMARK  8 active torsions:
REMARK  status: ('A' for Active; 'I' for Inactive)
REMARK    1  A    between atoms: C_1  and  C_2
REMARK    2  A    between atoms: C_2  and  C_3
REMARK    3  A    between atoms: C_3  and  C_4
REMARK    4  A    between atoms: C_7  and  C_17
REMARK    5  A    between atoms: C_8  and  N_10
REMARK    6  A    between atoms: N_10  and  C_11
REMARK    7  A    between atoms: C_20  and  C_23
REMARK    8  A    between atoms: C_20  and  C_24
REMARK                            x       y       z     vdW  Elec       q    Type
REMARK                         _______ _______ _______ _____ _____    ______ ____
ROOT
ATOM      1  C   UNL     1       0.739  -2.004  -1.265  0.00  0.00    +0.049 A 
ATOM      2  C   UNL     1       1.797  -2.673  -0.670  0.00  0.00    +0.004 A 
ATOM      3  C   UNL     1       1.813  -4.052  -0.676  0.00  0.00    -0.017 A 
ATOM      4  C   UNL     1       0.756  -4.732  -1.292  0.00  0.00    +0.095 A 
ATOM      5  C   UNL     1      -0.281  -3.984  -1.875  0.00  0.00    +0.137 A 
ATOM      6  N   UNL     1      -0.253  -2.661  -1.833  0.00  0.00    -0.235 NA
ATOM      7  C   UNL     1       2.929  -4.832  -0.036  0.00  0.00    +0.071 C 
ATOM      8  C   UNL     1       4.133  -3.916   0.192  0.00  0.00    +0.068 C 
ATOM      9  O   UNL     1       3.679  -2.716   0.829  0.00  0.00    -0.369 OA
ATOM     10  C   UNL     1       2.906  -1.879  -0.032  0.00  0.00    +0.197 C 
ATOM     11  C   UNL     1       4.779  -3.572  -1.151  0.00  0.00    +0.041 C 
ATOM     12  C   UNL     1       5.151  -4.620   1.091  0.00  0.00    +0.041 C 
ENDROOT
BRANCH   5  13
ATOM     13  N   UNL     1      -1.339  -4.632  -2.490  0.00  0.00    -0.325 N 
ATOM     14  H   UNL     1      -1.363  -5.601  -2.518  0.00  0.00    +0.148 HD
BRANCH  13  15
ATOM     15  C   UNL     1      -2.421  -3.854  -3.098  0.00  0.00    +0.072 C 
ATOM     16  C   UNL     1      -3.454  -3.495  -2.029  0.00  0.00    +0.022 C 
ATOM     17  C   UNL     1      -4.584  -2.682  -2.664  0.00  0.00    +0.002 C 
ATOM     18  C   UNL     1      -5.254  -3.511  -3.762  0.00  0.00    +0.000 C 
ATOM     19  C   UNL     1      -4.220  -3.870  -4.832  0.00  0.00    +0.002 C 
ATOM     20  C   UNL     1      -3.090  -4.683  -4.196  0.00  0.00    +0.022 C 
ENDBRANCH  13  15
ENDBRANCH   5  13
BRANCH   4  21
ATOM     21  C   UNL     1       0.732  -6.164  -1.328  0.00  0.00    +0.103 C 
ATOM     22  N   UNL     1       0.713  -7.299  -1.357  0.00  0.00    -0.191 NA
ENDBRANCH   4  21
BRANCH   1  23
ATOM     23  C   UNL     1       0.718  -0.497  -1.257  0.00  0.00    +0.055 C 
BRANCH  23  25
ATOM     24  C   UNL     1      -0.019   1.526   0.010  0.00  0.00    +0.004 C 
ATOM     25  C   UNL     1       0.002  -0.004   0.002  0.00  0.00    +0.003 C 
ENDBRANCH  23  25
ENDBRANCH   1  23
TORSDOF 5
