REMARK  Name = ZINC06640173
REMARK  5 active torsions:
REMARK  status: ('A' for Active; 'I' for Inactive)
REMARK    1  A    between atoms: C_1  and  C_2
REMARK    2  A    between atoms: C_2  and  C_4
REMARK    3  A    between atoms: C_2  and  N_12
REMARK    4  A    between atoms: C_13  and  C_15
REMARK    5  A    between atoms: C_15  and  N_16
REMARK                            x       y       z     vdW  Elec       q    Type
REMARK                         _______ _______ _______ _____ _____    ______ ____
ROOT
ATOM      1  N   UNL     1      -2.789  -1.613  -1.710  0.00  0.00    -0.307 N 
ATOM      2  C   UNL     1      -1.800  -0.705  -1.586  0.00  0.00    +0.231 C 
ATOM      3  O   UNL     1      -1.188  -0.338  -2.567  0.00  0.00    -0.274 OA
ATOM      4  H   UNL     1      -3.278  -1.906  -0.925  0.00  0.00    +0.149 HD
ENDROOT
BRANCH   1   6
ATOM      5  C   UNL     1      -2.239  -3.368  -3.321  0.00  0.00    +0.033 C 
ATOM      6  C   UNL     1      -3.124  -2.156  -3.028  0.00  0.00    +0.102 C 
BRANCH   6   7
ATOM      7  C   UNL     1      -4.572  -2.575  -3.045  0.00  0.00    -0.009 A 
ATOM      8  C   UNL     1      -5.197  -2.949  -1.870  0.00  0.00    +0.008 A 
ATOM      9  C   UNL     1      -6.526  -3.329  -1.884  0.00  0.00    +0.020 A 
ATOM     10  C   UNL     1      -7.228  -3.345  -3.076  0.00  0.00    +0.042 A 
ATOM     11  C   UNL     1      -6.602  -2.977  -4.253  0.00  0.00    +0.040 A 
ATOM     12  C   UNL     1      -5.273  -2.591  -4.237  0.00  0.00    +0.047 A 
ATOM     13 CL   UNL     1      -4.486  -2.129  -5.714  0.00  0.00    -0.083 Cl
ATOM     14 CL   UNL     1      -8.896  -3.828  -3.094  0.00  0.00    -0.083 Cl
ENDBRANCH   6   7
ENDBRANCH   1   6
BRANCH   2  15
ATOM     15  C   UNL     1      -1.455  -0.147  -0.230  0.00  0.00    +0.213 C 
BRANCH  15  16
ATOM     16  N   UNL     1      -0.355   0.812  -0.362  0.00  0.00    -0.215 N 
ATOM     17  C   UNL     1      -0.523   2.134  -0.582  0.00  0.00    +0.247 C 
ATOM     18  O   UNL     1      -1.571   2.732  -0.708  0.00  0.00    -0.273 OA
ATOM     19  C   UNL     1       0.870   2.707  -0.644  0.00  0.00    +0.113 C 
ATOM     20  C   UNL     1       1.079   3.768   0.444  0.00  0.00    +0.035 C 
ATOM     21  C   UNL     1       2.011   4.812  -0.225  0.00  0.00    +0.003 C 
ATOM     22  C   UNL     1       1.499   4.845  -1.687  0.00  0.00    +0.003 C 
ATOM     23  C   UNL     1       1.136   3.376  -1.995  0.00  0.00    +0.035 C 
ATOM     24  N   UNL     1       1.749   1.555  -0.436  0.00  0.00    -0.285 N 
ATOM     25  C   UNL     1       0.941   0.487  -0.279  0.00  0.00    +0.310 C 
ATOM     26  O   UNL     1       1.344  -0.643  -0.086  0.00  0.00    -0.252 OA
ATOM     27  H   UNL     1       2.719   1.560  -0.415  0.00  0.00    +0.151 HD
ENDBRANCH  15  16
ENDBRANCH   2  15
TORSDOF 4
