REMARK  Name = ZINC62263822
REMARK  5 active torsions:
REMARK  status: ('A' for Active; 'I' for Inactive)
REMARK    1  A    between atoms: C_3  and  N_8
REMARK    2  A    between atoms: C_9  and  C_15
REMARK    3  A    between atoms: C_10  and  C_13
REMARK    4  A    between atoms: C_13  and  N_14
REMARK    5  A    between atoms: C_15  and  C_16
REMARK                            x       y       z     vdW  Elec       q    Type
REMARK                         _______ _______ _______ _____ _____    ______ ____
ROOT
ATOM      1  N   UNL     1       3.584   2.133  -0.014  0.00  0.00    -0.216 N 
ATOM      2  C   UNL     1       4.714   1.804   0.671  0.00  0.00    +0.071 A 
ATOM      3  C   UNL     1       5.627   2.756   0.365  0.00  0.00    +0.069 A 
ATOM      4  N   UNL     1       5.026   3.605  -0.475  0.00  0.00    -0.136 NA
ATOM      5  N   UNL     1       3.821   3.207  -0.684  0.00  0.00    -0.060 NA
ENDROOT
BRANCH   1   8
ATOM      6  C   UNL     1      -0.019   1.401   0.131  0.00  0.00    +0.003 A 
ATOM      7  C   UNL     1       1.171   2.103   0.115  0.00  0.00    +0.028 A 
ATOM      8  C   UNL     1       2.375   1.423   0.003  0.00  0.00    +0.069 A 
ATOM      9  C   UNL     1       2.381   0.038  -0.094  0.00  0.00    +0.047 A 
ATOM     10  C   UNL     1       1.188  -0.659  -0.078  0.00  0.00    +0.043 A 
ATOM     11  C   UNL     1      -0.011   0.022   0.034  0.00  0.00    +0.020 A 
ATOM     12 CL   UNL     1       1.193  -2.391  -0.199  0.00  0.00    -0.083 Cl
ENDBRANCH   1   8
BRANCH   3  13
ATOM     13  C   UNL     1       7.043   2.841   0.873  0.00  0.00    -0.026 C 
BRANCH  13  14
ATOM     14  N   UNL     1       7.935   2.110  -0.037  0.00  0.00    +0.382 N 
ATOM     15  H   UNL     1       8.883   2.168   0.303  0.00  0.00    -0.090 HD
ATOM     16  H   UNL     1       7.651   1.143  -0.081  0.00  0.00    -0.090 HD
ATOM     17  H   UNL     1       7.883   2.518  -0.959  0.00  0.00    -0.090 HD
ENDBRANCH  13  14
ENDBRANCH   3  13
BRANCH   2  18
ATOM     18  C   UNL     1       4.908   0.621   1.583  0.00  0.00    +0.099 C 
BRANCH  18  19
ATOM     19  C   UNL     1       4.405   0.962   2.962  0.00  0.00    -0.004 A 
ATOM     20  C   UNL     1       3.194   0.709   3.515  0.00  0.00    +0.011 A 
ATOM     21  C   UNL     1       2.951   1.118   4.813  0.00  0.00    +0.008 A 
ATOM     22  C   UNL     1       3.932   1.760   5.494  0.00  0.00    +0.045 A 
ATOM     23  S   UNL     1       5.253   1.796   4.294  0.00  0.00    -0.101 S 
ENDBRANCH  18  19
ENDBRANCH   2  18
TORSDOF 5
