REMARK  Name = ZINC05090841
REMARK  3 active torsions:
REMARK  status: ('A' for Active; 'I' for Inactive)
REMARK    1  A    between atoms: C_4  and  C_7
REMARK    2  A    between atoms: C_8  and  C_21
REMARK    3  A    between atoms: C_9  and  C_15
REMARK                            x       y       z     vdW  Elec       q    Type
REMARK                         _______ _______ _______ _____ _____    ______ ____
ROOT
ATOM      1  C   UNL     1       3.692  -0.698  -0.162  0.00  0.00    +0.049 C 
ATOM      2  C   UNL     1       3.711  -2.037   0.052  0.00  0.00    +0.024 C 
ATOM      3  C   UNL     1       5.061  -2.714   0.168  0.00  0.00    +0.139 C 
ATOM      4  N   UNL     1       6.253  -1.860   0.039  0.00  0.00    -0.288 N 
ATOM      5  C   UNL     1       6.084  -0.540  -0.172  0.00  0.00    +0.305 C 
ATOM      6  O   UNL     1       7.067   0.167  -0.279  0.00  0.00    -0.252 OA
ATOM      7  N   UNL     1       4.871   0.018  -0.274  0.00  0.00    -0.269 N 
ATOM      8  H   UNL     1       7.143  -2.240   0.105  0.00  0.00    +0.151 HD
ATOM      9  H   UNL     1       4.816   0.974  -0.431  0.00  0.00    +0.156 HD
ENDROOT
BRANCH   2  10
ATOM     10  C   UNL     1       2.465  -2.805   0.167  0.00  0.00    +0.072 A 
ATOM     11  C   UNL     1       2.201  -3.836  -0.757  0.00  0.00    +0.029 A 
ATOM     12  C   UNL     1       1.050  -4.554  -0.660  0.00  0.00    +0.012 A 
ATOM     13  C   UNL     1       0.148  -4.237   0.378  0.00  0.00    +0.000 A 
ATOM     14  C   UNL     1      -1.056  -4.940   0.533  0.00  0.00    +0.010 A 
ATOM     15  C   UNL     1      -1.905  -4.609   1.546  0.00  0.00    +0.001 A 
ATOM     16  C   UNL     1      -1.593  -3.580   2.432  0.00  0.00    +0.002 A 
ATOM     17  C   UNL     1      -0.434  -2.876   2.310  0.00  0.00    +0.028 A 
ATOM     18  C   UNL     1       0.467  -3.189   1.277  0.00  0.00    +0.072 A 
ATOM     19  N   UNL     1       1.614  -2.518   1.140  0.00  0.00    -0.247 NA
ENDBRANCH   2  10
BRANCH   1  23
ATOM     20  C   UNL     1      -0.028   1.321  -0.508  0.00  0.00    +0.000 A 
ATOM     21  C   UNL     1       0.951   1.821   0.333  0.00  0.00    +0.001 A 
ATOM     22  C   UNL     1       2.162   1.170   0.450  0.00  0.00    +0.010 A 
ATOM     23  C   UNL     1       2.398   0.004  -0.282  0.00  0.00    -0.003 A 
ATOM     24  C   UNL     1       1.405  -0.494  -1.128  0.00  0.00    +0.010 A 
ATOM     25  C   UNL     1       0.200   0.167  -1.236  0.00  0.00    +0.001 A 
ENDBRANCH   1  23
BRANCH   3  26
ATOM     26  C   UNL     1       5.124  -3.397   1.509  0.00  0.00    -0.020 A 
ATOM     27  C   UNL     1       5.404  -2.676   2.660  0.00  0.00    +0.025 A 
ATOM     28  C   UNL     1       5.454  -3.336   3.873  0.00  0.00    +0.111 A 
ATOM     29  N   UNL     1       5.238  -4.635   3.943  0.00  0.00    -0.263 NA
ATOM     30  C   UNL     1       4.969  -5.352   2.870  0.00  0.00    +0.111 A 
ATOM     31  C   UNL     1       4.897  -4.760   1.623  0.00  0.00    +0.025 A 
ENDBRANCH   3  26
TORSDOF 3
