REMARK  Name = ZINC18196014
REMARK  3 active torsions:
REMARK  status: ('A' for Active; 'I' for Inactive)
REMARK    1  A    between atoms: C_1  and  C_2
REMARK    2  A    between atoms: C_2  and  C_23
REMARK    3  A    between atoms: C_6  and  C_14
REMARK                            x       y       z     vdW  Elec       q    Type
REMARK                         _______ _______ _______ _____ _____    ______ ____
ROOT
ATOM      1  C   UNL     1       1.969  -1.680  -2.944  0.00  0.00    +0.011 C 
ATOM      2  C   UNL     1       2.203  -2.463  -1.650  0.00  0.00    -0.023 C 
ATOM      3  C   UNL     1       1.119  -2.108  -0.630  0.00  0.00    +0.058 C 
ATOM      4  C   UNL     1       1.183  -0.632  -0.315  0.00  0.00    +0.020 C 
ATOM      5  C   UNL     1       2.357   0.032  -0.343  0.00  0.00    +0.041 C 
ATOM      6  C   UNL     1       2.458   1.503  -0.004  0.00  0.00    +0.182 C 
ATOM      7  N   UNL     1       1.130   2.104   0.003  0.00  0.00    -0.220 N 
ATOM      8  C   UNL     1      -0.017   1.381   0.010  0.00  0.00    +0.219 A 
ATOM      9  N   UNL     1      -1.019   2.216   0.018  0.00  0.00    -0.201 NA
ATOM     10  C   UNL     1      -0.557   3.470   0.019  0.00  0.00    +0.247 A 
ATOM     11  N   UNL     1       0.753   3.446   0.005  0.00  0.00    -0.156 NA
ATOM     12  N   UNL     1       0.002  -0.004   0.002  0.00  0.00    -0.287 N 
ATOM     13  C   UNL     1       3.551  -0.627  -0.690  0.00  0.00    +0.164 C 
ATOM     14  O   UNL     1       4.594  -0.004  -0.693  0.00  0.00    -0.292 OA
ATOM     15  C   UNL     1       3.565  -2.084  -1.057  0.00  0.00    +0.086 C 
ATOM     16  C   UNL     1       2.167  -3.964  -1.942  0.00  0.00    +0.011 C 
ATOM     17  H   UNL     1      -0.794  -0.515   0.214  0.00  0.00    +0.155 HD
ENDROOT
BRANCH   6  18
ATOM     18  C   UNL     1       3.085   1.661   1.358  0.00  0.00    +0.020 A 
ATOM     19  C   UNL     1       4.226   2.306   1.702  0.00  0.00    +0.015 A 
ATOM     20  C   UNL     1       4.613   2.321   3.030  0.00  0.00    +0.023 A 
ATOM     21  C   UNL     1       3.838   1.691   3.947  0.00  0.00    +0.055 A 
ATOM     22  S   UNL     1       2.512   1.053   2.936  0.00  0.00    -0.084 S 
ATOM     23 BR   UNL     1       4.093   1.534   5.814  0.00  0.00    -0.043 Br
ENDBRANCH   6  18
TORSDOF 1
