REMARK  Name = ZINC12522940
REMARK  14 active torsions:
REMARK  status: ('A' for Active; 'I' for Inactive)
REMARK    1  A    between atoms: C_1  and  C_2
REMARK    2  A    between atoms: C_2  and  C_3
REMARK    3  A    between atoms: C_2  and  C_4
REMARK    4  A    between atoms: C_4  and  C_6
REMARK    5  A    between atoms: C_4  and  N_60
REMARK    6  A    between atoms: C_6  and  N_7
REMARK    7  A    between atoms: N_7  and  C_8
REMARK    8  A    between atoms: C_11  and  S_17
REMARK    9  A    between atoms: C_13  and  N_14
REMARK   10  A    between atoms: S_17  and  N_20
REMARK   11  A    between atoms: N_20  and  C_21
REMARK   12  A    between atoms: C_21  and  C_22
REMARK   13  A    between atoms: C_21  and  C_23
REMARK   14  A    between atoms: C_21  and  C_24
REMARK                            x       y       z     vdW  Elec       q    Type
REMARK                         _______ _______ _______ _____ _____    ______ ____
ROOT
ATOM      1  C   UNL     1      -2.040  -3.977  -1.400  0.00  0.00    +0.058 A 
ATOM      2  C   UNL     1      -3.186  -3.192  -1.431  0.00  0.00    +0.027 A 
ATOM      3  C   UNL     1      -4.417  -3.780  -1.642  0.00  0.00    +0.030 A 
ATOM      4  C   UNL     1      -4.511  -5.149  -1.822  0.00  0.00    +0.108 A 
ATOM      5  C   UNL     1      -3.372  -5.932  -1.792  0.00  0.00    +0.063 A 
ATOM      6  C   UNL     1      -2.136  -5.350  -1.587  0.00  0.00    +0.149 A 
ENDROOT
BRANCH   6   7
ATOM      7  N   UNL     1      -0.917  -6.188  -1.562  0.00  0.00    +0.058 N 
ATOM      8  O   UNL     1      -0.986  -7.372  -1.841  0.00  0.00    -0.126 OA
ATOM      9  O   UNL     1       0.155  -5.695  -1.261  0.00  0.00    -0.126 OA
ENDBRANCH   6   7
BRANCH   4  10
ATOM     10  S   UNL     1      -6.084  -5.895  -2.091  0.00  0.00    +0.059 S 
ATOM     11  O   UNL     1      -6.030  -7.182  -1.491  0.00  0.00    -0.153 OA
ATOM     12  O   UNL     1      -7.059  -4.926  -1.730  0.00  0.00    -0.153 OA
BRANCH  10  13
ATOM     13  N   UNL     1      -6.239  -6.138  -3.721  0.00  0.00    -0.185 NA
ATOM     14  H   UNL     1      -6.257  -7.040  -4.077  0.00  0.00    +0.149 HD
BRANCH  13  15
ATOM     15  C   UNL     1      -6.349  -4.991  -4.626  0.00  0.00    +0.032 C 
ATOM     16  C   UNL     1      -5.123  -4.091  -4.459  0.00  0.00    +0.029 C 
ATOM     17  C   UNL     1      -6.424  -5.487  -6.071  0.00  0.00    +0.029 C 
ATOM     18  C   UNL     1      -7.614  -4.198  -4.292  0.00  0.00    +0.029 C 
ENDBRANCH  13  15
ENDBRANCH  10  13
ENDBRANCH   4  10
BRANCH   1  19
ATOM     19  N   UNL     1      -0.792  -3.385  -1.187  0.00  0.00    -0.344 N 
ATOM     20  H   UNL     1       0.016  -3.917  -1.263  0.00  0.00    +0.146 HD
BRANCH  19  21
ATOM     21  C   UNL     1      -0.705  -1.963  -0.848  0.00  0.00    +0.086 C 
BRANCH  21  22
ATOM     22  C   UNL     1       0.764  -1.537  -0.811  0.00  0.00    -0.049 C 
BRANCH  22  27
ATOM     23  C   UNL     1      -0.143   0.722  -0.840  0.00  0.00    -0.078 C 
ATOM     24  C   UNL     1      -0.246   1.868   0.197  0.00  0.00    -0.020 C 
ATOM     25  C   UNL     1      -0.116   1.126   1.547  0.00  0.00    -0.020 C 
ATOM     26  C   UNL     1       0.591  -0.200   1.210  0.00  0.00    -0.078 C 
ATOM     27  N   UNL     1       0.859  -0.165  -0.228  0.00  0.00    +0.383 N 
ATOM     28  H   UNL     1       1.801   0.208  -0.396  0.00  0.00    -0.081 HD
ENDBRANCH  22  27
BRANCH  22  30
ATOM     29  C   UNL     1       2.753  -0.974  -2.215  0.00  0.00    +0.005 C 
ATOM     30  C   UNL     1       1.331  -1.537  -2.233  0.00  0.00    -0.029 C 
ATOM     31  C   UNL     1       1.355  -2.968  -2.772  0.00  0.00    +0.005 C 
ENDBRANCH  22  30
ENDBRANCH  21  22
ENDBRANCH  19  21
ENDBRANCH   1  19
TORSDOF 9
