REMARK  Name = ZINC21223002
REMARK  11 active torsions:
REMARK  status: ('A' for Active; 'I' for Inactive)
REMARK    1  A    between atoms: C_1  and  N_2
REMARK    2  A    between atoms: N_2  and  C_3
REMARK    3  A    between atoms: N_2  and  C_4
REMARK    4  A    between atoms: C_7  and  C_10
REMARK    5  A    between atoms: C_15  and  C_25
REMARK    6  A    between atoms: C_28  and  O_35
REMARK    7  A    between atoms: C_29  and  O_33
REMARK    8  A    between atoms: C_30  and  O_31
REMARK    9  A    between atoms: O_31  and  C_32
REMARK   10  A    between atoms: O_33  and  C_34
REMARK   11  A    between atoms: O_35  and  C_36
REMARK                            x       y       z     vdW  Elec       q    Type
REMARK                         _______ _______ _______ _____ _____    ______ ____
ROOT
ATOM      1  C   UNL     1      -3.898   5.609   3.929  0.00  0.00    +0.032 C 
ATOM      2  C   UNL     1      -4.272   4.141   3.737  0.00  0.00    +0.059 C 
ATOM      3  C   UNL     1      -4.088   3.746   2.281  0.00  0.00    +0.017 C 
ATOM      4  C   UNL     1      -3.119   4.309   1.541  0.00  0.00    +0.037 C 
ATOM      5  C   UNL     1      -2.810   3.993   0.097  0.00  0.00    +0.140 C 
ATOM      6  N   UNL     1      -3.817   3.193  -0.570  0.00  0.00    -0.331 N 
ATOM      7  C   UNL     1      -4.082   1.885  -0.166  0.00  0.00    +0.049 A 
ATOM      8  C   UNL     1      -3.773   0.803  -0.973  0.00  0.00    +0.025 A 
ATOM      9  C   UNL     1      -3.954  -0.481  -0.488  0.00  0.00    +0.002 A 
ATOM     10  C   UNL     1      -4.442  -0.683   0.790  0.00  0.00    +0.002 A 
ATOM     11  C   UNL     1      -4.772   0.397   1.591  0.00  0.00    +0.025 A 
ATOM     12  C   UNL     1      -4.607   1.680   1.101  0.00  0.00    +0.052 A 
ATOM     13  N   UNL     1      -4.961   2.807   1.834  0.00  0.00    -0.316 N 
ATOM     14  C   UNL     1      -2.278   5.299   2.102  0.00  0.00    +0.163 C 
ATOM     15  O   UNL     1      -1.400   5.780   1.413  0.00  0.00    -0.292 OA
ATOM     16  C   UNL     1      -2.432   5.775   3.515  0.00  0.00    +0.088 C 
ATOM     17  H   UNL     1      -4.387   3.615  -1.411  0.00  0.00    +0.147 HD
ATOM     18  H   UNL     1      -6.035   2.909   2.047  0.00  0.00    +0.152 HD
ENDROOT
BRANCH   1  22
ATOM     19  C   UNL     1      -4.376   6.701   8.034  0.00  0.00    +0.029 A 
ATOM     20  C   UNL     1      -5.077   7.382   7.047  0.00  0.00    +0.023 A 
ATOM     21  C   UNL     1      -4.920   7.027   5.721  0.00  0.00    +0.006 A 
ATOM     22  C   UNL     1      -4.067   5.994   5.377  0.00  0.00    -0.043 A 
ATOM     23  C   UNL     1      -3.372   5.310   6.358  0.00  0.00    +0.006 A 
ATOM     24  C   UNL     1      -3.520   5.664   7.684  0.00  0.00    +0.023 A 
BRANCH  19  26
ATOM     25  C   UNL     1      -5.523   8.067   9.754  0.00  0.00    +0.129 C 
ATOM     26  N   UNL     1      -4.532   7.058   9.375  0.00  0.00    -0.336 N 
ATOM     27  C   UNL     1      -3.703   6.423  10.403  0.00  0.00    +0.129 C 
ENDBRANCH  19  26
ENDBRANCH   1  22
BRANCH   5  28
ATOM     28  C   UNL     1      -1.498   3.254   0.039  0.00  0.00    +0.023 A 
ATOM     29  C   UNL     1      -0.981   2.675   1.183  0.00  0.00    +0.013 A 
ATOM     30  C   UNL     1       0.224   2.001   1.137  0.00  0.00    +0.050 A 
ATOM     31  C   UNL     1       0.916   1.894  -0.061  0.00  0.00    +0.165 A 
ATOM     32  C   UNL     1       0.397   2.470  -1.214  0.00  0.00    +0.204 A 
ATOM     33  C   UNL     1      -0.813   3.152  -1.162  0.00  0.00    +0.170 A 
BRANCH  33  34
ATOM     34  O   UNL     1      -1.325   3.717  -2.288  0.00  0.00    -0.491 OA
ATOM     35  C   UNL     1      -0.863   5.027  -2.623  0.00  0.00    +0.277 C 
ENDBRANCH  33  34
BRANCH  32  36
ATOM     36  O   UNL     1       1.073   2.368  -2.391  0.00  0.00    -0.488 OA
ATOM     37  C   UNL     1       0.856   1.185  -3.163  0.00  0.00    +0.277 C 
ENDBRANCH  32  36
BRANCH  31  38
ATOM     38  O   UNL     1       2.100   1.226  -0.106  0.00  0.00    -0.491 OA
ATOM     39  C   UNL     1       2.572   0.659   1.117  0.00  0.00    +0.277 C 
ENDBRANCH  31  38
ENDBRANCH   5  28
TORSDOF 6
