REMARK  Name = ZINC59878023
REMARK  9 active torsions:
REMARK  status: ('A' for Active; 'I' for Inactive)
REMARK    1  A    between atoms: C_1  and  C_2
REMARK    2  A    between atoms: C_2  and  C_3
REMARK    3  A    between atoms: C_2  and  C_4
REMARK    4  A    between atoms: N_6  and  C_7
REMARK    5  A    between atoms: C_7  and  C_9
REMARK    6  A    between atoms: C_7  and  C_20
REMARK    7  A    between atoms: C_9  and  C_10
REMARK    8  A    between atoms: N_22  and  N_23
REMARK    9  A    between atoms: N_23  and  C_24
REMARK                            x       y       z     vdW  Elec       q    Type
REMARK                         _______ _______ _______ _____ _____    ______ ____
ROOT
ATOM      1  C   UNL     1       0.986  -0.676   3.640  0.00  0.00    +0.165 C 
ENDROOT
BRANCH   1   4
ATOM      2  C   UNL     1       0.731  -0.503   1.223  0.00  0.00    +0.216 C 
ATOM      3  O   UNL     1       1.725  -1.187   1.099  0.00  0.00    -0.276 OA
ATOM      4  N   UNL     1       0.278  -0.191   2.453  0.00  0.00    -0.303 N 
ATOM      5  H   UNL     1      -0.517   0.356   2.553  0.00  0.00    +0.149 HD
BRANCH   2   7
ATOM      6  C   UNL     1      -0.019   1.526   0.010  0.00  0.00    +0.017 C 
ATOM      7  C   UNL     1       0.002  -0.004   0.002  0.00  0.00    +0.069 C 
ATOM      8  C   UNL     1       0.718  -0.497  -1.257  0.00  0.00    +0.017 C 
ENDBRANCH   2   7
ENDBRANCH   1   4
BRANCH   1   9
ATOM      9  C   UNL     1       1.007  -2.183   3.632  0.00  0.00    +0.250 C 
ATOM     10  O   UNL     1       0.823  -2.786   2.596  0.00  0.00    -0.272 OA
ATOM     11  N   UNL     1       1.230  -2.860   4.775  0.00  0.00    -0.235 N 
ATOM     12  H   UNL     1       1.377  -2.377   5.604  0.00  0.00    +0.173 HD
BRANCH  11  13
ATOM     13  N   UNL     1       1.249  -4.261   4.768  0.00  0.00    -0.264 N 
ATOM     14  H   UNL     1       1.101  -4.743   3.939  0.00  0.00    +0.170 HD
BRANCH  13  15
ATOM     15  C   UNL     1       1.480  -4.963   5.954  0.00  0.00    +0.044 A 
ATOM     16  C   UNL     1       1.685  -4.273   7.142  0.00  0.00    +0.025 A 
ATOM     17  C   UNL     1       1.913  -4.970   8.312  0.00  0.00    +0.017 A 
ATOM     18  C   UNL     1       1.938  -6.353   8.302  0.00  0.00    +0.018 A 
ATOM     19  C   UNL     1       1.733  -7.043   7.120  0.00  0.00    +0.017 A 
ATOM     20  C   UNL     1       1.499  -6.352   5.947  0.00  0.00    +0.025 A 
ATOM     21 BR   UNL     1       2.251  -7.303   9.906  0.00  0.00    -0.050 Br
ENDBRANCH  13  15
ENDBRANCH  11  13
ENDBRANCH   1   9
BRANCH   1  22
ATOM     22  C   UNL     1       2.422  -0.146   3.629  0.00  0.00    +0.069 C 
BRANCH  22  23
ATOM     23  C   UNL     1       2.404   1.355   3.761  0.00  0.00    -0.020 A 
ATOM     24  C   UNL     1       2.441   2.245   2.757  0.00  0.00    +0.087 A 
ATOM     25  N   UNL     1       2.409   3.517   3.260  0.00  0.00    -0.360 N 
ATOM     26  H   UNL     1       2.426   4.328   2.728  0.00  0.00    +0.165 HD
ATOM     27  C   UNL     1       2.350   3.475   4.635  0.00  0.00    +0.047 A 
ATOM     28  C   UNL     1       2.338   2.119   5.009  0.00  0.00    +0.003 A 
ATOM     29  C   UNL     1       2.276   1.769   6.359  0.00  0.00    +0.010 A 
ATOM     30  C   UNL     1       2.223   2.747   7.312  0.00  0.00    +0.001 A 
ATOM     31  C   UNL     1       2.230   4.087   6.948  0.00  0.00    +0.002 A 
ATOM     32  C   UNL     1       2.301   4.455   5.622  0.00  0.00    +0.026 A 
ENDBRANCH  22  23
ENDBRANCH   1  22
TORSDOF 7
