REMARK  Name = ZINC08386659
REMARK  8 active torsions:
REMARK  status: ('A' for Active; 'I' for Inactive)
REMARK    1  A    between atoms: C_1  and  C_2
REMARK    2  A    between atoms: C_2  and  N_3
REMARK    3  A    between atoms: N_3  and  N_4
REMARK    4  A    between atoms: C_5  and  C_7
REMARK    5  A    between atoms: C_10  and  N_14
REMARK    6  A    between atoms: C_17  and  C_18
REMARK    7  A    between atoms: N_20  and  C_21
REMARK    8  A    between atoms: C_26  and  C_27
REMARK                            x       y       z     vdW  Elec       q    Type
REMARK                         _______ _______ _______ _____ _____    ______ ____
ROOT
ATOM      1  C   UNL     1      -1.959   2.418   1.126  0.00  0.00    +0.062 C 
ATOM      2  C   UNL     1      -0.726   1.559   1.248  0.00  0.00    +0.024 C 
ATOM      3  C   UNL     1      -0.021   1.074   0.008  0.00  0.00    +0.087 C 
ENDROOT
BRANCH   3   4
ATOM      4  C   UNL     1      -0.743   1.583  -1.213  0.00  0.00    +0.243 C 
ATOM      5  O   UNL     1      -1.733   2.272  -1.088  0.00  0.00    -0.270 OA
ATOM      6  N   UNL     1      -0.288   1.272  -2.443  0.00  0.00    -0.281 N 
ATOM      7  H   UNL     1       0.659   0.725  -2.558  0.00  0.00    +0.155 HD
BRANCH   6   8
ATOM      8  C   UNL     1      -1.020   1.646  -3.573  0.00  0.00    +0.041 A 
ATOM      9  C   UNL     1      -2.389   1.852  -3.479  0.00  0.00    +0.024 A 
ATOM     10  C   UNL     1      -3.111   2.221  -4.598  0.00  0.00    +0.002 A 
ATOM     11  C   UNL     1      -2.476   2.388  -5.816  0.00  0.00    +0.001 A 
ATOM     12  C   UNL     1      -1.115   2.187  -5.924  0.00  0.00    +0.010 A 
ATOM     13  C   UNL     1      -0.375   1.819  -4.803  0.00  0.00    +0.003 A 
BRANCH  13  14
ATOM     14  C   UNL     1       1.089   1.607  -4.912  0.00  0.00    -0.016 A 
ATOM     15  C   UNL     1       1.954   2.226  -4.012  0.00  0.00    +0.008 A 
ATOM     16  C   UNL     1       3.315   2.022  -4.116  0.00  0.00    +0.001 A 
ATOM     17  C   UNL     1       3.821   1.213  -5.117  0.00  0.00    +0.000 A 
ATOM     18  C   UNL     1       2.967   0.599  -6.016  0.00  0.00    +0.001 A 
ATOM     19  C   UNL     1       1.604   0.793  -5.919  0.00  0.00    +0.008 A 
ENDBRANCH  13  14
ENDBRANCH   6   8
ENDBRANCH   3   4
BRANCH   2  20
ATOM     20  N   UNL     1      -0.279   1.242   2.405  0.00  0.00    -0.268 N 
ATOM     21  H   UNL     1       0.621   0.615   2.493  0.00  0.00    +0.170 HD
BRANCH  20  22
ATOM     22  N   UNL     1      -0.935   1.693   3.557  0.00  0.00    -0.233 N 
ATOM     23  C   UNL     1      -0.463   1.359   4.775  0.00  0.00    +0.260 C 
ATOM     24  O   UNL     1       0.531   0.666   4.873  0.00  0.00    -0.269 OA
ATOM     25  H   UNL     1      -1.834   2.320   3.469  0.00  0.00    +0.173 HD
BRANCH  23  26
ATOM     26  C   UNL     1      -1.155   1.835   5.991  0.00  0.00    +0.040 A 
ATOM     27  C   UNL     1      -2.294   2.635   5.882  0.00  0.00    +0.015 A 
ATOM     28  C   UNL     1      -2.939   3.072   7.021  0.00  0.00    +0.035 A 
ATOM     29  C   UNL     1      -2.453   2.728   8.270  0.00  0.00    +0.144 A 
ATOM     30  C   UNL     1      -1.321   1.939   8.386  0.00  0.00    +0.072 A 
ATOM     31  C   UNL     1      -0.670   1.490   7.254  0.00  0.00    +0.035 A 
ATOM     32 CL   UNL     1      -0.720   1.512   9.958  0.00  0.00    -0.081 Cl
BRANCH  29  33
ATOM     33  N   UNL     1      -3.146   3.206   9.487  0.00  0.00    +0.058 N 
ATOM     34  O   UNL     1      -4.142   3.900   9.388  0.00  0.00    -0.126 OA
ATOM     35  O   UNL     1      -2.721   2.905  10.588  0.00  0.00    -0.126 OA
ENDBRANCH  29  33
ENDBRANCH  23  26
ENDBRANCH  20  22
ENDBRANCH   2  20
TORSDOF 7
