REMARK  Name = ZINC63588739
REMARK  11 active torsions:
REMARK  status: ('A' for Active; 'I' for Inactive)
REMARK    1  A    between atoms: C_1  and  C_2
REMARK    2  A    between atoms: C_2  and  O_3
REMARK    3  A    between atoms: O_3  and  C_4
REMARK    4  A    between atoms: C_7  and  C_10
REMARK    5  A    between atoms: C_10  and  N_12
REMARK    6  A    between atoms: N_14  and  C_15
REMARK    7  A    between atoms: C_20  and  O_21
REMARK    8  A    between atoms: O_21  and  C_22
REMARK    9  A    between atoms: N_23  and  C_24
REMARK   10  A    between atoms: C_24  and  C_25
REMARK   11  A    between atoms: C_25  and  C_26
REMARK                            x       y       z     vdW  Elec       q    Type
REMARK                         _______ _______ _______ _____ _____    ______ ____
ROOT
ATOM      1  N   UNL     1       2.615  -6.798   3.377  0.00  0.00    -0.143 NA
ATOM      2  C   UNL     1       2.385  -7.787   2.526  0.00  0.00    +0.194 C 
ATOM      3  N   UNL     1       1.195  -7.851   1.861  0.00  0.00    -0.325 N 
ATOM      4  N   UNL     1       3.337  -8.741   2.314  0.00  0.00    -0.357 N 
ATOM      5  H   UNL     1       0.893  -7.096   1.332  0.00  0.00    +0.169 HD
ATOM      6  H   UNL     1       4.165  -8.720   2.819  0.00  0.00    +0.162 HD
ENDROOT
BRANCH   3   7
ATOM      7  C   UNL     1       0.409  -9.008   1.941  0.00  0.00    +0.084 A 
ATOM      8  C   UNL     1       0.352  -9.729   3.125  0.00  0.00    +0.029 A 
ATOM      9  C   UNL     1      -0.424 -10.870   3.202  0.00  0.00    +0.002 A 
ATOM     10  C   UNL     1      -1.145 -11.295   2.101  0.00  0.00    +0.004 A 
ATOM     11  C   UNL     1      -1.093 -10.582   0.918  0.00  0.00    +0.048 A 
ATOM     12  C   UNL     1      -0.322  -9.434   0.834  0.00  0.00    +0.143 A 
BRANCH  12  13
ATOM     13  O   UNL     1      -0.275  -8.728  -0.327  0.00  0.00    -0.493 OA
ATOM     14  C   UNL     1      -1.050  -9.224  -1.420  0.00  0.00    +0.277 C 
ENDBRANCH  12  13
ENDBRANCH   3   7
BRANCH   1  15
ATOM     15  C   UNL     1       1.631  -5.949   3.699  0.00  0.00    +0.270 C 
ATOM     16  O   UNL     1       0.552  -6.024   3.137  0.00  0.00    -0.268 OA
BRANCH  15  20
ATOM     17  C   UNL     1       2.268  -2.991   6.684  0.00  0.00    +0.121 A 
ATOM     18  C   UNL     1       1.038  -3.075   6.043  0.00  0.00    +0.046 A 
ATOM     19  C   UNL     1       0.828  -4.033   5.075  0.00  0.00    +0.017 A 
ATOM     20  C   UNL     1       1.853  -4.919   4.737  0.00  0.00    +0.039 A 
ATOM     21  C   UNL     1       3.087  -4.831   5.383  0.00  0.00    +0.017 A 
ATOM     22  C   UNL     1       3.292  -3.868   6.346  0.00  0.00    +0.046 A 
BRANCH  17  23
ATOM     23  O   UNL     1       2.472  -2.047   7.637  0.00  0.00    -0.492 OA
BRANCH  23  25
ATOM     24  C   UNL     1       1.792  -0.189   9.025  0.00  0.00    +0.048 C 
ATOM     25  C   UNL     1       1.377  -1.179   7.934  0.00  0.00    +0.225 C 
ENDBRANCH  23  25
ENDBRANCH  17  23
ENDBRANCH  15  20
ENDBRANCH   1  15
BRANCH   4  26
ATOM     26  C   UNL     1       3.109  -9.797   1.325  0.00  0.00    +0.120 C 
BRANCH  26  27
ATOM     27  C   UNL     1       4.343 -10.698   1.248  0.00  0.00    +0.054 C 
BRANCH  27  28
ATOM     28  C   UNL     1       4.157 -11.710   0.146  0.00  0.00    -0.040 C 
ATOM     29  C   UNL     1       4.568 -11.599  -1.138  0.00  0.00    -0.001 A 
ATOM     30  C   UNL     1       5.281 -10.542  -1.866  0.00  0.00    +0.010 A 
ATOM     31  C   UNL     1       5.558 -10.722  -3.177  0.00  0.00    +0.001 A 
ATOM     32  C   UNL     1       5.181 -11.887  -3.858  0.00  0.00    +0.002 A 
ATOM     33  C   UNL     1       4.522 -12.902  -3.257  0.00  0.00    +0.026 A 
ATOM     34  C   UNL     1       4.181 -12.820  -1.879  0.00  0.00    +0.043 A 
ATOM     35  N   UNL     1       3.555 -13.655  -1.084  0.00  0.00    -0.380 N 
ATOM     36  C   UNL     1       3.480 -13.058   0.254  0.00  0.00    +0.144 C 
ATOM     37  H   UNL     1       3.204 -14.523  -1.337  0.00  0.00    +0.160 HD
ENDBRANCH  27  28
ENDBRANCH  26  27
ENDBRANCH   4  26
TORSDOF 9
