REMARK  Name = ZINC36029075
REMARK  11 active torsions:
REMARK  status: ('A' for Active; 'I' for Inactive)
REMARK    1  A    between atoms: C_1  and  C_2
REMARK    2  A    between atoms: C_2  and  C_3
REMARK    3  A    between atoms: C_3  and  C_5
REMARK    4  A    between atoms: C_3  and  C_6
REMARK    5  A    between atoms: N_10  and  C_31
REMARK    6  A    between atoms: N_15  and  S_18
REMARK    7  A    between atoms: S_18  and  C_21
REMARK    8  A    between atoms: C_25  and  C_27
REMARK    9  A    between atoms: C_31  and  C_32
REMARK   10  A    between atoms: C_32  and  O_33
REMARK   11  A    between atoms: O_33  and  C_34
REMARK                            x       y       z     vdW  Elec       q    Type
REMARK                         _______ _______ _______ _____ _____    ______ ____
ROOT
ATOM      1  C   UNL     1      -2.011  -2.312  -0.265  0.00  0.00    +0.022 C 
ATOM      2  C   UNL     1      -1.254  -2.740   0.973  0.00  0.00    +0.201 C 
ATOM      3  O   UNL     1      -0.309  -2.158   1.463  0.00  0.00    -0.277 OA
ATOM      4  N   UNL     1      -1.807  -3.878   1.441  0.00  0.00    -0.311 N 
ATOM      5  C   UNL     1      -2.922  -4.271   0.575  0.00  0.00    +0.006 C 
ATOM      6  N   UNL     1      -3.281  -3.075  -0.217  0.00  0.00    +0.401 N 
ATOM      7  C   UNL     1      -4.117  -4.711   1.419  0.00  0.00    +0.023 C 
ATOM      8  C   UNL     1      -3.724  -5.928   2.262  0.00  0.00    +0.109 C 
ATOM      9  N   UNL     1      -3.187  -6.967   1.372  0.00  0.00    -0.177 NA
ATOM     10  C   UNL     1      -2.083  -6.621   0.466  0.00  0.00    +0.109 C 
ATOM     11  C   UNL     1      -2.491  -5.398  -0.362  0.00  0.00    +0.023 C 
ATOM     12  H   UNL     1      -4.000  -2.542   0.249  0.00  0.00    -0.082 HD
ATOM     13  H   UNL     1      -3.575  -3.336  -1.147  0.00  0.00    -0.082 HD
ENDROOT
BRANCH   9  14
ATOM     14  S   UNL     1      -3.815  -8.499   1.389  0.00  0.00    +0.061 S 
ATOM     15  O   UNL     1      -2.798  -9.360   0.897  0.00  0.00    -0.153 OA
ATOM     16  O   UNL     1      -4.413  -8.678   2.666  0.00  0.00    -0.153 OA
BRANCH  14  17
ATOM     17  C   UNL     1      -5.124  -8.539   0.210  0.00  0.00    +0.106 A 
ATOM     18  C   UNL     1      -6.412  -8.222   0.597  0.00  0.00    +0.028 A 
ATOM     19  C   UNL     1      -7.439  -8.253  -0.328  0.00  0.00    +0.002 A 
ATOM     20  C   UNL     1      -7.177  -8.602  -1.640  0.00  0.00    +0.012 A 
ATOM     21  C   UNL     1      -5.888  -8.918  -2.027  0.00  0.00    +0.057 A 
ATOM     22  C   UNL     1      -4.861  -8.883  -1.103  0.00  0.00    +0.041 A 
BRANCH  21  23
ATOM     23  C   UNL     1      -5.603  -9.299  -3.457  0.00  0.00    +0.417 C 
ATOM     24  F   UNL     1      -6.790  -9.260  -4.196  0.00  0.00    -0.166 F 
ATOM     25  F   UNL     1      -4.683  -8.398  -4.004  0.00  0.00    -0.166 F 
ATOM     26  F   UNL     1      -5.070 -10.592  -3.498  0.00  0.00    -0.166 F 
ENDBRANCH  21  23
ENDBRANCH  14  17
ENDBRANCH   9  14
BRANCH   1  27
ATOM     27  C   UNL     1      -2.291  -0.808  -0.225  0.00  0.00    -0.020 C 
ATOM     28  C   UNL     1      -2.955  -0.448   1.105  0.00  0.00    +0.006 C 
BRANCH  27  30
ATOM     29  C   UNL     1      -1.264   1.459  -0.447  0.00  0.00    +0.004 C 
ATOM     30  C   UNL     1      -0.974  -0.040  -0.361  0.00  0.00    -0.001 C 
ENDBRANCH  27  30
ENDBRANCH   1  27
BRANCH   4  31
ATOM     31  C   UNL     1      -1.362  -4.608   2.631  0.00  0.00    +0.134 C 
BRANCH  31  32
ATOM     32  C   UNL     1      -1.984  -3.976   3.878  0.00  0.00    +0.178 C 
BRANCH  32  33
ATOM     33  O   UNL     1      -3.408  -4.028   3.779  0.00  0.00    -0.381 OA
ATOM     34  C   UNL     1      -4.090  -3.461   4.900  0.00  0.00    +0.194 C 
ENDBRANCH  32  33
ENDBRANCH  31  32
ENDBRANCH   4  31
TORSDOF 8
