REMARK  Name = ZINC13656271
REMARK  9 active torsions:
REMARK  status: ('A' for Active; 'I' for Inactive)
REMARK    1  A    between atoms: C_1  and  C_2
REMARK    2  A    between atoms: C_10  and  C_12
REMARK    3  A    between atoms: C_15  and  O_22
REMARK    4  A    between atoms: C_16  and  O_20
REMARK    5  A    between atoms: C_17  and  O_18
REMARK    6  A    between atoms: O_18  and  C_19
REMARK    7  A    between atoms: O_20  and  C_21
REMARK    8  A    between atoms: O_22  and  C_23
REMARK    9  A    between atoms: C_27  and  C_30
REMARK                            x       y       z     vdW  Elec       q    Type
REMARK                         _______ _______ _______ _____ _____    ______ ____
ROOT
ATOM      1  C   UNL     1       0.345   1.135  -0.072  0.00  0.00    +0.069 C 
ATOM      2  C   UNL     1       0.324  -0.363  -0.229  0.00  0.00    +0.087 A 
ATOM      3  C   UNL     1       0.228  -1.058  -1.433  0.00  0.00    +0.049 A 
ATOM      4  C   UNL     1       0.244  -2.396  -1.151  0.00  0.00    +0.226 A 
ATOM      5  O   UNL     1       0.342  -2.537   0.170  0.00  0.00    -0.339 OA
ATOM      6  N   UNL     1       0.399  -1.238   0.740  0.00  0.00    -0.081 NA
ATOM      7  N   UNL     1       0.169  -3.345  -2.154  0.00  0.00    -0.286 N 
ATOM      8  C   UNL     1       0.377  -2.949  -3.453  0.00  0.00    +0.019 C 
ATOM      9  C   UNL     1       0.373  -1.651  -3.821  0.00  0.00    +0.024 C 
ATOM     10  C   UNL     1       0.120  -0.530  -2.836  0.00  0.00    +0.094 C 
ATOM     11  C   UNL     1       0.611  -1.278  -5.157  0.00  0.00    +0.162 C 
ATOM     12  O   UNL     1       0.587  -0.101  -5.458  0.00  0.00    -0.292 OA
ATOM     13  C   UNL     1       0.894  -2.301  -6.221  0.00  0.00    +0.088 C 
ATOM     14  C   UNL     1       1.544  -3.527  -5.571  0.00  0.00    +0.032 C 
ATOM     15  C   UNL     1       0.610  -4.040  -4.473  0.00  0.00    +0.059 C 
ATOM     16  H   UNL     1      -0.026  -4.272  -1.945  0.00  0.00    +0.155 HD
ENDROOT
BRANCH  10  17
ATOM     17  C   UNL     1      -1.263   0.029  -3.056  0.00  0.00    +0.010 A 
ATOM     18  C   UNL     1      -1.453   1.397  -3.115  0.00  0.00    +0.012 A 
ATOM     19  C   UNL     1      -2.718   1.914  -3.317  0.00  0.00    +0.050 A 
ATOM     20  C   UNL     1      -3.803   1.062  -3.461  0.00  0.00    +0.165 A 
ATOM     21  C   UNL     1      -3.616  -0.314  -3.403  0.00  0.00    +0.204 A 
ATOM     22  C   UNL     1      -2.341  -0.830  -3.205  0.00  0.00    +0.169 A 
BRANCH  22  23
ATOM     23  O   UNL     1      -2.152  -2.176  -3.153  0.00  0.00    -0.491 OA
ATOM     24  C   UNL     1      -2.471  -2.829  -1.923  0.00  0.00    +0.277 C 
ENDBRANCH  22  23
BRANCH  21  25
ATOM     25  O   UNL     1      -4.678  -1.153  -3.545  0.00  0.00    -0.488 OA
ATOM     26  C   UNL     1      -4.995  -1.581  -4.871  0.00  0.00    +0.277 C 
ENDBRANCH  21  25
BRANCH  20  27
ATOM     27  O   UNL     1      -5.048   1.572  -3.659  0.00  0.00    -0.491 OA
ATOM     28  C   UNL     1      -5.166   2.995  -3.707  0.00  0.00    +0.277 C 
ENDBRANCH  20  27
ENDBRANCH  10  17
BRANCH  14  29
ATOM     29  C   UNL     1       1.750  -4.603  -6.607  0.00  0.00    -0.044 A 
ATOM     30  C   UNL     1       0.665  -5.120  -7.290  0.00  0.00    +0.004 A 
ATOM     31  C   UNL     1       0.854  -6.106  -8.240  0.00  0.00    +0.000 A 
ATOM     32  C   UNL     1       2.127  -6.574  -8.507  0.00  0.00    +0.000 A 
ATOM     33  C   UNL     1       3.211  -6.056  -7.824  0.00  0.00    +0.000 A 
ATOM     34  C   UNL     1       3.023  -5.067  -6.877  0.00  0.00    +0.004 A 
ENDBRANCH  14  29
TORSDOF 5
