REMARK  Name = ZINC38980545
REMARK  5 active torsions:
REMARK  status: ('A' for Active; 'I' for Inactive)
REMARK    1  A    between atoms: N_7  and  S_8
REMARK    2  A    between atoms: S_8  and  C_11
REMARK    3  A    between atoms: C_18  and  N_23
REMARK    4  A    between atoms: N_23  and  C_24
REMARK    5  A    between atoms: C_28  and  C_30
REMARK                            x       y       z     vdW  Elec       q    Type
REMARK                         _______ _______ _______ _____ _____    ______ ____
ROOT
ATOM      1  C   UNL     1       0.573   1.429  -0.704  0.00  0.00    +0.002 A 
ATOM      2  C   UNL     1       1.793   2.108  -0.543  0.00  0.00    +0.002 A 
ATOM      3  C   UNL     1       2.960   1.467  -0.315  0.00  0.00    +0.030 A 
ATOM      4  C   UNL     1       2.997   0.052  -0.228  0.00  0.00    +0.089 A 
ATOM      5  N   UNL     1       4.137  -0.566  -0.004  0.00  0.00    -0.226 NA
ATOM      6  C   UNL     1       4.207  -1.904   0.084  0.00  0.00    +0.192 C 
ATOM      7  N   UNL     1       5.345  -2.493   0.305  0.00  0.00    -0.110 NA
ATOM      8  C   UNL     1       2.942  -2.717  -0.078  0.00  0.00    +0.237 C 
ATOM      9  N   UNL     1       1.686  -1.991  -0.326  0.00  0.00    -0.359 N 
ATOM     10  C   UNL     1       1.723  -0.690  -0.394  0.00  0.00    +0.063 A 
ATOM     11  C   UNL     1       0.496   0.082  -0.640  0.00  0.00    +0.027 A 
ATOM     12  H   UNL     1       0.850  -2.470  -0.436  0.00  0.00    +0.162 HD
ENDROOT
BRANCH   7  13
ATOM     13  S   UNL     1       6.723  -1.591   0.481  0.00  0.00    +0.100 S 
ATOM     14  O   UNL     1       6.971  -0.979  -0.778  0.00  0.00    -0.146 OA
ATOM     15  O   UNL     1       6.566  -0.838   1.676  0.00  0.00    -0.146 OA
BRANCH  13  16
ATOM     16  C   UNL     1       8.049  -2.715   0.764  0.00  0.00    +0.114 A 
ATOM     17  C   UNL     1       8.371  -3.093   2.054  0.00  0.00    +0.029 A 
ATOM     18  C   UNL     1       9.412  -3.975   2.277  0.00  0.00    +0.003 A 
ATOM     19  C   UNL     1      10.131  -4.480   1.210  0.00  0.00    +0.020 A 
ATOM     20  C   UNL     1       9.809  -4.103  -0.081  0.00  0.00    +0.043 A 
ATOM     21  C   UNL     1       8.764  -3.224  -0.304  0.00  0.00    +0.049 A 
ATOM     22 CL   UNL     1      10.712  -4.736  -1.422  0.00  0.00    -0.083 Cl
ENDBRANCH  13  16
ENDBRANCH   7  13
BRANCH   8  23
ATOM     23  N   UNL     1       2.764  -3.514   1.139  0.00  0.00    -0.318 N 
ATOM     24  H   UNL     1       2.908  -3.109   2.009  0.00  0.00    +0.148 HD
BRANCH  23  25
ATOM     25  C   UNL     1       2.387  -4.856   1.046  0.00  0.00    +0.030 A 
ATOM     26  C   UNL     1       2.034  -5.395  -0.186  0.00  0.00    +0.023 A 
ATOM     27  C   UNL     1       1.660  -6.722  -0.284  0.00  0.00    +0.003 A 
ATOM     28  C   UNL     1       1.634  -7.521   0.840  0.00  0.00    +0.015 A 
ATOM     29  C   UNL     1       1.987  -6.990   2.083  0.00  0.00    +0.065 A 
ATOM     30  C   UNL     1       2.370  -5.651   2.181  0.00  0.00    +0.038 A 
BRANCH  29  31
ATOM     31  C   UNL     1       1.959  -7.842   3.288  0.00  0.00    +0.387 C 
ATOM     32  O   UNL     1       1.627  -9.016   3.199  0.00  0.00    -0.241 OA
ATOM     33  O   UNL     1       2.268  -7.375   4.375  0.00  0.00    -0.241 OA
ENDBRANCH  29  31
ENDBRANCH  23  25
ENDBRANCH   8  23
TORSDOF 5
