REMARK  Name = ZINC63494683
REMARK  10 active torsions:
REMARK  status: ('A' for Active; 'I' for Inactive)
REMARK    1  A    between atoms: C_1  and  C_2
REMARK    2  A    between atoms: C_4  and  C_9
REMARK    3  A    between atoms: C_5  and  C_8
REMARK    4  A    between atoms: C_9  and  C_10
REMARK    5  A    between atoms: C_10  and  C_11
REMARK    6  A    between atoms: C_21  and  N_25
REMARK    7  A    between atoms: N_25  and  C_26
REMARK    8  A    between atoms: C_26  and  C_27
REMARK    9  A    between atoms: C_31  and  O_33
REMARK   10  A    between atoms: O_33  and  C_34
REMARK                            x       y       z     vdW  Elec       q    Type
REMARK                         _______ _______ _______ _____ _____    ______ ____
ROOT
ATOM      1  C   UNL     1      -0.903  -1.177  -4.570  0.00  0.00    +0.090 C 
ATOM      2  N   UNL     1      -1.866  -0.418  -5.033  0.00  0.00    -0.332 N 
ATOM      3  C   UNL     1      -1.883  -0.460  -6.371  0.00  0.00    +0.129 C 
ATOM      4  C   UNL     1      -2.702   0.162  -7.336  0.00  0.00    +0.038 A 
ATOM      5  C   UNL     1      -3.743   1.020  -6.944  0.00  0.00    +0.013 A 
ATOM      6  C   UNL     1      -4.523   1.612  -7.890  0.00  0.00    +0.001 A 
ATOM      7  C   UNL     1      -4.318   1.390  -9.250  0.00  0.00    +0.002 A 
ATOM      8  C   UNL     1      -3.328   0.571  -9.696  0.00  0.00    +0.026 A 
ATOM      9  C   UNL     1      -2.483  -0.074  -8.766  0.00  0.00    +0.048 A 
ATOM     10  N   UNL     1      -1.512  -0.875  -9.181  0.00  0.00    -0.353 N 
ATOM     11  C   UNL     1      -0.646  -1.535  -8.197  0.00  0.00    +0.261 C 
ATOM     12  N   UNL     1      -0.873  -1.293  -6.772  0.00  0.00    -0.200 N 
ATOM     13  N   UNL     1      -0.245  -1.744  -5.605  0.00  0.00    -0.249 N 
ATOM     14  H   UNL     1       0.513  -2.348  -5.550  0.00  0.00    +0.171 HD
ATOM     15  H   UNL     1      -1.375  -1.025 -10.130  0.00  0.00    +0.163 HD
ATOM     16  H   UNL     1      -2.478   0.099  -4.486  0.00  0.00    +0.168 HD
ENDROOT
BRANCH  11  17
ATOM     17  N   UNL     1       0.739  -1.145  -8.494  0.00  0.00    -0.276 NA
ATOM     18  H   UNL     1       0.816  -0.145  -8.610  0.00  0.00    +0.126 HD
BRANCH  17  19
ATOM     19  C   UNL     1       1.242  -1.852  -9.680  0.00  0.00    +0.120 C 
BRANCH  19  20
ATOM     20  C   UNL     1       2.662  -1.427  -9.953  0.00  0.00    -0.030 A 
ATOM     21  C   UNL     1       2.912  -0.342 -10.773  0.00  0.00    +0.005 A 
ATOM     22  C   UNL     1       4.213   0.051 -11.026  0.00  0.00    +0.004 A 
ATOM     23  C   UNL     1       5.267  -0.641 -10.461  0.00  0.00    +0.045 A 
ATOM     24  C   UNL     1       5.018  -1.729  -9.638  0.00  0.00    +0.120 A 
ATOM     25  C   UNL     1       3.711  -2.118  -9.380  0.00  0.00    +0.050 A 
BRANCH  24  26
ATOM     26  O   UNL     1       6.053  -2.411  -9.080  0.00  0.00    -0.495 OA
ATOM     27  C   UNL     1       7.372  -1.952  -9.384  0.00  0.00    +0.277 C 
ENDBRANCH  24  26
ENDBRANCH  19  20
ENDBRANCH  17  19
ENDBRANCH  11  17
BRANCH   1  28
ATOM     28  C   UNL     1      -0.577  -1.379  -3.113  0.00  0.00    +0.075 C 
BRANCH  28  29
ATOM     29  C   UNL     1       0.433  -0.322  -2.664  0.00  0.00    +0.042 C 
BRANCH  29  32
ATOM     30  C   UNL     1      -0.019   1.526   0.010  0.00  0.00    +0.039 C 
ATOM     31  C   UNL     1       0.002  -0.004   0.002  0.00  0.00    +0.153 C 
ATOM     32  C   UNL     1       0.759  -0.524  -1.207  0.00  0.00    -0.021 C 
ATOM     33  C   UNL     1       1.780  -1.203  -0.679  0.00  0.00    +0.061 C 
ATOM     34  N   UNL     1       1.738  -1.160   0.671  0.00  0.00    -0.159 NA
ATOM     35  N   UNL     1       0.787  -0.521   1.136  0.00  0.00    -0.180 NA
ATOM     36  C   UNL     1       2.837  -1.919  -1.480  0.00  0.00    +0.067 C 
ENDBRANCH  29  32
ENDBRANCH  28  29
ENDBRANCH   1  28
TORSDOF 7
