REMARK  Name = ZINC56941789
REMARK  8 active torsions:
REMARK  status: ('A' for Active; 'I' for Inactive)
REMARK    1  A    between atoms: C_1  and  C_2
REMARK    2  A    between atoms: C_2  and  C_4
REMARK    3  A    between atoms: C_2  and  N_12
REMARK    4  A    between atoms: N_15  and  N_16
REMARK    5  A    between atoms: C_17  and  C_19
REMARK    6  A    between atoms: C_19  and  C_21
REMARK    7  A    between atoms: C_19  and  O_22
REMARK    8  A    between atoms: O_22  and  C_23
REMARK                            x       y       z     vdW  Elec       q    Type
REMARK                         _______ _______ _______ _____ _____    ______ ____
ROOT
ATOM      1  N   UNL     1      -1.529  -0.168  -0.007  0.00  0.00    -0.292 N 
ATOM      2  C   UNL     1      -2.292  -0.136  -1.117  0.00  0.00    +0.316 C 
ATOM      3  O   UNL     1      -1.853   0.349  -2.143  0.00  0.00    -0.251 OA
ATOM      4  N   UNL     1      -3.542  -0.640  -1.091  0.00  0.00    -0.218 N 
ATOM      5  H   UNL     1      -1.879  -0.555   0.811  0.00  0.00    +0.151 HD
ATOM      6  H   UNL     1      -4.091  -0.617  -1.891  0.00  0.00    +0.174 HD
ENDROOT
BRANCH   4   7
ATOM      7  N   UNL     1      -4.047  -1.199   0.090  0.00  0.00    -0.230 N 
ATOM      8  C   UNL     1      -5.297  -1.703   0.116  0.00  0.00    +0.270 C 
ATOM      9  O   UNL     1      -5.983  -1.674  -0.883  0.00  0.00    -0.270 OA
ATOM     10  H   UNL     1      -3.498  -1.222   0.889  0.00  0.00    +0.173 HD
BRANCH   8  11
ATOM     11  C   UNL     1      -5.840  -2.304   1.387  0.00  0.00    +0.257 C 
ATOM     12  C   UNL     1      -5.964  -1.214   2.454  0.00  0.00    +0.062 C 
BRANCH  11  13
ATOM     13  O   UNL     1      -7.128  -2.870   1.133  0.00  0.00    -0.480 OA
BRANCH  13  14
ATOM     14  C   UNL     1      -7.536  -3.869   1.960  0.00  0.00    +0.122 A 
ATOM     15  C   UNL     1      -8.720  -4.543   1.701  0.00  0.00    +0.048 A 
ATOM     16  C   UNL     1      -9.134  -5.559   2.542  0.00  0.00    +0.042 A 
ATOM     17  C   UNL     1      -8.368  -5.903   3.642  0.00  0.00    +0.124 A 
ATOM     18  C   UNL     1      -7.185  -5.231   3.901  0.00  0.00    +0.042 A 
ATOM     19  C   UNL     1      -6.766  -4.220   3.058  0.00  0.00    +0.048 A 
ATOM     20  F   UNL     1      -8.774  -6.896   4.464  0.00  0.00    -0.205 F 
ENDBRANCH  13  14
ENDBRANCH  11  13
ENDBRANCH   8  11
ENDBRANCH   4   7
BRANCH   1  22
ATOM     21  C   UNL     1      -0.224   1.887   0.223  0.00  0.00    +0.033 C 
ATOM     22  C   UNL     1      -0.171   0.380  -0.035  0.00  0.00    +0.102 C 
BRANCH  22  23
ATOM     23  C   UNL     1       0.661  -0.283   1.032  0.00  0.00    -0.026 A 
ATOM     24  C   UNL     1       0.108  -0.554   2.270  0.00  0.00    +0.008 A 
ATOM     25  C   UNL     1       0.869  -1.163   3.250  0.00  0.00    +0.040 A 
ATOM     26  C   UNL     1       2.187  -1.501   2.992  0.00  0.00    +0.142 A 
ATOM     27  C   UNL     1       2.740  -1.229   1.752  0.00  0.00    +0.076 A 
ATOM     28  C   UNL     1       1.975  -0.624   0.771  0.00  0.00    +0.028 A 
ATOM     29 CL   UNL     1       4.392  -1.652   1.426  0.00  0.00    -0.081 Cl
ATOM     30  F   UNL     1       2.932  -2.095   3.950  0.00  0.00    -0.204 F 
ENDBRANCH  22  23
ENDBRANCH   1  22
TORSDOF 6
