REMARK  Name = ZINC20731266
REMARK  4 active torsions:
REMARK  status: ('A' for Active; 'I' for Inactive)
REMARK    1  A    between atoms: C_1  and  C_2
REMARK    2  A    between atoms: C_2  and  C_3
REMARK    3  A    between atoms: C_3  and  C_4
REMARK    4  A    between atoms: C_4  and  N_5
REMARK                            x       y       z     vdW  Elec       q    Type
REMARK                         _______ _______ _______ _____ _____    ______ ____
ROOT
ATOM      1  N   UNL     1       1.471  -2.526   2.420  0.00  0.00    -0.270 N 
ATOM      2  C   UNL     1       2.834  -2.761   2.465  0.00  0.00    +0.041 A 
ATOM      3  C   UNL     1       3.793  -2.607   1.463  0.00  0.00    +0.024 A 
ATOM      4  C   UNL     1       5.104  -2.920   1.786  0.00  0.00    +0.002 A 
ATOM      5  C   UNL     1       5.460  -3.364   3.043  0.00  0.00    +0.000 A 
ATOM      6  C   UNL     1       4.515  -3.522   4.050  0.00  0.00    +0.007 A 
ATOM      7  C   UNL     1       3.208  -3.214   3.737  0.00  0.00    -0.006 A 
ATOM      8  C   UNL     1       1.954  -3.265   4.548  0.00  0.00    +0.112 C 
ATOM      9  C   UNL     1       0.873  -2.792   3.600  0.00  0.00    +0.235 C 
ATOM     10  O   UNL     1      -0.308  -2.676   3.852  0.00  0.00    -0.274 OA
ATOM     11  C   UNL     1       1.659  -4.686   5.021  0.00  0.00    +0.122 C 
ATOM     12  C   UNL     1       2.469  -5.034   6.239  0.00  0.00    +0.220 C 
ATOM     13  O   UNL     1       2.904  -6.161   6.353  0.00  0.00    -0.275 OA
ATOM     14  N   UNL     1       2.728  -4.133   7.210  0.00  0.00    -0.270 N 
ATOM     15  C   UNL     1       2.401  -2.797   6.979  0.00  0.00    +0.125 A 
ATOM     16  C   UNL     1       2.030  -2.350   5.737  0.00  0.00    +0.032 A 
ATOM     17  C   UNL     1       1.771  -0.991   5.834  0.00  0.00    +0.141 A 
ATOM     18  N   UNL     1       1.982  -0.621   7.076  0.00  0.00    -0.180 NA
ATOM     19  N   UNL     1       2.389  -1.746   7.811  0.00  0.00    -0.264 N 
ATOM     20  H   UNL     1       2.620  -1.760   8.753  0.00  0.00    +0.190 HD
ATOM     21  H   UNL     1       3.132  -4.408   8.048  0.00  0.00    +0.156 HD
ENDROOT
BRANCH   1  22
ATOM     22  C   UNL     1       0.763  -2.041   1.233  0.00  0.00    +0.114 C 
BRANCH  22  23
ATOM     23  C   UNL     1       0.742  -0.511   1.242  0.00  0.00    +0.019 C 
BRANCH  23  25
ATOM     24  C   UNL     1      -0.019   1.526   0.010  0.00  0.00    +0.004 C 
ATOM     25  C   UNL     1       0.002  -0.004   0.002  0.00  0.00    -0.002 C 
ENDBRANCH  23  25
ENDBRANCH  22  23
ENDBRANCH   1  22
TORSDOF 3
