REMARK  Name = ZINC64002372
REMARK  6 active torsions:
REMARK  status: ('A' for Active; 'I' for Inactive)
REMARK    1  A    between atoms: C_7  and  C_10
REMARK    2  A    between atoms: C_10  and  C_11
REMARK    3  A    between atoms: C_11  and  C_12
REMARK    4  A    between atoms: C_17  and  N_20
REMARK    5  A    between atoms: C_24  and  C_36
REMARK    6  A    between atoms: C_28  and  C_30
REMARK                            x       y       z     vdW  Elec       q    Type
REMARK                         _______ _______ _______ _____ _____    ______ ____
ROOT
ATOM      1  C   UNL     1      -0.484  -4.830  -1.460  0.00  0.00    +0.216 C 
ATOM      2  O   UNL     1      -0.925  -5.254  -0.412  0.00  0.00    -0.276 OA
ATOM      3  N   UNL     1      -0.837  -5.413  -2.623  0.00  0.00    -0.301 N 
ATOM      4  C   UNL     1      -0.307  -4.916  -3.900  0.00  0.00    +0.109 C 
ATOM      5  C   UNL     1       0.331  -6.084  -4.658  0.00  0.00    +0.041 C 
ATOM      6  C   UNL     1      -0.690  -7.215  -4.799  0.00  0.00    +0.078 C 
ATOM      7  C   UNL     1      -1.103  -7.707  -3.410  0.00  0.00    +0.041 C 
ATOM      8  C   UNL     1      -1.753  -6.561  -2.638  0.00  0.00    +0.109 C 
ENDROOT
BRANCH   6   9
ATOM      9  N   UNL     1      -0.093  -8.321  -5.551  0.00  0.00    -0.305 N 
ATOM     10  C   UNL     1       1.044  -9.055  -5.188  0.00  0.00    +0.053 A 
ATOM     11  C   UNL     1       1.873  -8.944  -4.078  0.00  0.00    +0.025 A 
ATOM     12  C   UNL     1       2.954  -9.791  -3.931  0.00  0.00    +0.014 A 
ATOM     13  C   UNL     1       3.215 -10.755  -4.888  0.00  0.00    +0.057 A 
ATOM     14  C   UNL     1       2.397 -10.873  -5.995  0.00  0.00    +0.037 A 
ATOM     15  C   UNL     1       1.307 -10.024  -6.151  0.00  0.00    +0.050 A 
ATOM     16  N   UNL     1       0.349  -9.952  -7.171  0.00  0.00    -0.322 N 
ATOM     17  C   UNL     1      -0.580  -8.870  -6.823  0.00  0.00    +0.188 C 
ATOM     18  H   UNL     1       0.305 -10.515  -7.960  0.00  0.00    +0.148 HD
BRANCH  17  19
ATOM     19  C   UNL     1      -0.558  -7.790  -7.907  0.00  0.00    +0.157 C 
ATOM     20  C   UNL     1      -1.183  -8.340  -9.207  0.00  0.00    +0.037 C 
ATOM     21  C   UNL     1      -0.264  -7.728 -10.299  0.00  0.00    +0.031 C 
ATOM     22  C   UNL     1       1.102  -7.728  -9.569  0.00  0.00    +0.160 C 
ATOM     23  O   UNL     1       0.795  -7.420  -8.197  0.00  0.00    -0.373 OA
ENDBRANCH  17  19
BRANCH  13  24
ATOM     24  C   UNL     1       4.396 -11.677  -4.724  0.00  0.00    +0.417 C 
ATOM     25  F   UNL     1       5.068 -11.367  -3.537  0.00  0.00    -0.166 F 
ATOM     26  F   UNL     1       3.949 -13.002  -4.675  0.00  0.00    -0.166 F 
ATOM     27  F   UNL     1       5.266 -11.518  -5.808  0.00  0.00    -0.166 F 
ENDBRANCH  13  24
ENDBRANCH   6   9
BRANCH   1  28
ATOM     28  C   UNL     1       0.457  -3.653  -1.462  0.00  0.00    +0.100 C 
BRANCH  28  29
ATOM     29  C   UNL     1       0.691  -3.186  -0.024  0.00  0.00    +0.042 C 
BRANCH  29  36
ATOM     30  C   UNL     1      -0.016   1.348   0.009  0.00  0.00    +0.001 A 
ATOM     31  C   UNL     1       1.166   2.101   0.002  0.00  0.00    +0.002 A 
ATOM     32  C   UNL     1       2.391   1.535  -0.013  0.00  0.00    +0.026 A 
ATOM     33  C   UNL     1       2.529   0.120  -0.022  0.00  0.00    +0.043 A 
ATOM     34  N   UNL     1       3.587  -0.654  -0.037  0.00  0.00    -0.380 N 
ATOM     35  C   UNL     1       3.143  -2.053  -0.041  0.00  0.00    +0.144 C 
ATOM     36  C   UNL     1       1.631  -2.008  -0.025  0.00  0.00    -0.041 C 
ATOM     37  C   UNL     1       1.295  -0.698  -0.014  0.00  0.00    -0.001 A 
ATOM     38  C   UNL     1       0.002  -0.004   0.002  0.00  0.00    +0.010 A 
ATOM     39  H   UNL     1       4.509  -0.353  -0.045  0.00  0.00    +0.160 HD
ENDBRANCH  29  36
ENDBRANCH  28  29
ENDBRANCH   1  28
TORSDOF 6
