REMARK  Name = ZINC15175804
REMARK  10 active torsions:
REMARK  status: ('A' for Active; 'I' for Inactive)
REMARK    1  A    between atoms: C_1  and  C_2
REMARK    2  A    between atoms: C_2  and  C_3
REMARK    3  A    between atoms: C_2  and  C_4
REMARK    4  A    between atoms: C_2  and  N_5
REMARK    5  A    between atoms: C_6  and  C_8
REMARK    6  A    between atoms: C_8  and  N_9
REMARK    7  A    between atoms: C_10  and  C_12
REMARK    8  A    between atoms: C_14  and  N_26
REMARK    9  A    between atoms: C_17  and  S_18
REMARK   10  A    between atoms: S_18  and  C_19
REMARK                            x       y       z     vdW  Elec       q    Type
REMARK                         _______ _______ _______ _____ _____    ______ ____
ROOT
ATOM      1  C   UNL     1      -1.161  -1.666  -0.076  0.00  0.00    +0.053 A 
ATOM      2  C   UNL     1       0.159  -2.120  -0.141  0.00  0.00    +0.047 A 
ATOM      3  C   UNL     1       0.420  -3.472  -0.183  0.00  0.00    +0.127 A 
ATOM      4  C   UNL     1      -0.621  -4.387  -0.161  0.00  0.00    +0.034 A 
ATOM      5  C   UNL     1      -1.930  -3.956  -0.098  0.00  0.00    +0.018 A 
ATOM      6  C   UNL     1      -2.213  -2.596  -0.048  0.00  0.00    +0.025 A 
ENDROOT
BRANCH   1   8
ATOM      7  N   UNL     1      -0.433   0.668  -0.051  0.00  0.00    -0.303 N 
ATOM      8  C   UNL     1      -1.447  -0.221  -0.030  0.00  0.00    +0.246 C 
ATOM      9  O   UNL     1      -2.597   0.170   0.027  0.00  0.00    -0.270 OA
ATOM     10  H   UNL     1       0.484   0.356  -0.096  0.00  0.00    +0.150 HD
BRANCH   7  11
ATOM     11  C   UNL     1      -0.718   2.104  -0.006  0.00  0.00    +0.200 C 
BRANCH  11  13
ATOM     12  N   UNL     1       0.562   4.221  -0.009  0.00  0.00    -0.309 N 
ATOM     13  C   UNL     1       0.578   2.874  -0.041  0.00  0.00    +0.231 C 
ATOM     14  O   UNL     1       1.634   2.281  -0.099  0.00  0.00    -0.274 OA
ATOM     15  H   UNL     1      -0.283   4.695   0.037  0.00  0.00    +0.149 HD
BRANCH  12  17
ATOM     16  C   UNL     1       2.575   4.639  -1.333  0.00  0.00    +0.031 C 
ATOM     17  C   UNL     1       1.821   4.969  -0.044  0.00  0.00    +0.026 C 
ATOM     18  C   UNL     1       1.524   6.469   0.004  0.00  0.00    +0.031 C 
ATOM     19  C   UNL     1       2.678   4.581   1.162  0.00  0.00    +0.031 C 
ENDBRANCH  12  17
ENDBRANCH  11  13
ENDBRANCH   7  11
ENDBRANCH   1   8
BRANCH   3  20
ATOM     20  N   UNL     1       1.819  -3.950  -0.252  0.00  0.00    +0.056 N 
ATOM     21  O   UNL     1       2.736  -3.149  -0.272  0.00  0.00    -0.126 OA
ATOM     22  O   UNL     1       2.053  -5.145  -0.290  0.00  0.00    -0.126 OA
ENDBRANCH   3  20
BRANCH   6  23
ATOM     23  S   UNL     1      -3.883  -2.041   0.042  0.00  0.00    -0.089 S 
BRANCH  23  24
ATOM     24  C   UNL     1      -4.092  -1.592   1.733  0.00  0.00    +0.013 A 
ATOM     25  C   UNL     1      -3.082  -1.848   2.651  0.00  0.00    +0.016 A 
ATOM     26  C   UNL     1      -3.246  -1.489   3.974  0.00  0.00    +0.021 A 
ATOM     27  C   UNL     1      -4.421  -0.885   4.388  0.00  0.00    +0.041 A 
ATOM     28  C   UNL     1      -5.432  -0.634   3.477  0.00  0.00    +0.021 A 
ATOM     29  C   UNL     1      -5.271  -0.986   2.151  0.00  0.00    +0.016 A 
ATOM     30 CL   UNL     1      -4.627  -0.441   6.054  0.00  0.00    -0.084 Cl
ENDBRANCH  23  24
ENDBRANCH   6  23
TORSDOF 7
