REMARK  Name = ZINC19295201
REMARK  5 active torsions:
REMARK  status: ('A' for Active; 'I' for Inactive)
REMARK    1  A    between atoms: N_12  and  C_16
REMARK    2  A    between atoms: C_16  and  C_17
REMARK    3  A    between atoms: C_17  and  N_19
REMARK    4  A    between atoms: N_21  and  C_25
REMARK    5  A    between atoms: C_25  and  C_26
REMARK                            x       y       z     vdW  Elec       q    Type
REMARK                         _______ _______ _______ _____ _____    ______ ____
ROOT
ATOM      1  C   UNL     1       6.689   0.494  -0.286  0.00  0.00    +0.215 C 
ENDROOT
BRANCH   1  13
ATOM      2  C   UNL     1      -0.337  -0.311  -1.782  0.00  0.00    +0.000 A 
ATOM      3  C   UNL     1       0.576   0.717  -1.633  0.00  0.00    +0.000 A 
ATOM      4  C   UNL     1       1.846   0.448  -1.164  0.00  0.00    +0.006 A 
ATOM      5  C   UNL     1       2.212  -0.848  -0.840  0.00  0.00    -0.012 A 
ATOM      6  C   UNL     1       1.296  -1.876  -0.985  0.00  0.00    -0.042 A 
ATOM      7  C   UNL     1       0.024  -1.604  -1.458  0.00  0.00    +0.004 A 
ATOM      8  C   UNL     1       1.925  -3.187  -0.559  0.00  0.00    +0.038 C 
ATOM      9  C   UNL     1       3.447  -2.922  -0.548  0.00  0.00    +0.045 C 
ATOM     10  C   UNL     1       3.511  -1.406  -0.323  0.00  0.00    +0.138 C 
ATOM     11  C   UNL     1       4.696  -0.799  -1.029  0.00  0.00    +0.251 C 
ATOM     12  O   UNL     1       4.936  -0.824  -2.216  0.00  0.00    -0.272 OA
ATOM     13  N   UNL     1       5.432  -0.223  -0.054  0.00  0.00    -0.215 N 
ATOM     14  C   UNL     1       4.871  -0.388   1.151  0.00  0.00    +0.310 C 
ATOM     15  O   UNL     1       5.347   0.042   2.183  0.00  0.00    -0.252 OA
ATOM     16  N   UNL     1       3.718  -1.084   1.089  0.00  0.00    -0.281 N 
ATOM     17  H   UNL     1       3.141  -1.323   1.831  0.00  0.00    +0.152 HD
ENDBRANCH   1  13
BRANCH   1  18
ATOM     18  C   UNL     1       6.397   1.951  -0.537  0.00  0.00    +0.256 C 
ATOM     19  O   UNL     1       5.249   2.353  -0.523  0.00  0.00    -0.272 OA
BRANCH  18  20
ATOM     20  N   UNL     1       7.393   2.796  -0.773  0.00  0.00    -0.155 NA
ATOM     21  C   UNL     1       7.985   2.812  -1.969  0.00  0.00    +0.166 A 
ATOM     22  N   UNL     1       7.544   2.274  -3.138  0.00  0.00    -0.324 N 
ATOM     23  C   UNL     1       8.311   2.407  -4.252  0.00  0.00    +0.095 A 
ATOM     24  C   UNL     1       9.467   3.068  -4.126  0.00  0.00    +0.066 A 
ATOM     25  S   UNL     1       9.453   3.509  -2.398  0.00  0.00    -0.061 S 
BRANCH  22  26
ATOM     26  C   UNL     1       6.264   1.563  -3.194  0.00  0.00    +0.160 C 
BRANCH  26  27
ATOM     27  C   UNL     1       5.214   2.464  -3.792  0.00  0.00    -0.009 A 
ATOM     28  C   UNL     1       4.455   3.279  -2.973  0.00  0.00    +0.007 A 
ATOM     29  C   UNL     1       3.493   4.105  -3.521  0.00  0.00    +0.000 A 
ATOM     30  C   UNL     1       3.288   4.118  -4.888  0.00  0.00    +0.001 A 
ATOM     31  C   UNL     1       4.046   3.304  -5.708  0.00  0.00    +0.020 A 
ATOM     32  C   UNL     1       5.014   2.480  -5.160  0.00  0.00    +0.046 A 
ATOM     33 CL   UNL     1       5.972   1.462  -6.190  0.00  0.00    -0.083 Cl
ENDBRANCH  26  27
ENDBRANCH  22  26
ENDBRANCH  18  20
ENDBRANCH   1  18
TORSDOF 5
