REMARK  Name = ZINC34797435
REMARK  14 active torsions:
REMARK  status: ('A' for Active; 'I' for Inactive)
REMARK    1  A    between atoms: C_1  and  C_2
REMARK    2  A    between atoms: C_2  and  O_3
REMARK    3  A    between atoms: O_3  and  C_4
REMARK    4  A    between atoms: C_4  and  C_6
REMARK    5  A    between atoms: C_7  and  C_20
REMARK    6  A    between atoms: C_12  and  C_14
REMARK    7  A    between atoms: C_17  and  C_19
REMARK    8  A    between atoms: C_20  and  N_21
REMARK    9  A    between atoms: N_21  and  C_22
REMARK   10  A    between atoms: N_21  and  C_23
REMARK   11  A    between atoms: C_23  and  C_25
REMARK   12  A    between atoms: C_23  and  C_26
REMARK   13  A    between atoms: C_29  and  O_32
REMARK   14  A    between atoms: O_32  and  C_33
REMARK                            x       y       z     vdW  Elec       q    Type
REMARK                         _______ _______ _______ _____ _____    ______ ____
ROOT
ATOM      1  C   UNL     1       1.300  -2.444  -2.822  0.00  0.00    +0.079 C 
ATOM      2  C   UNL     1       1.651  -3.744  -2.723  0.00  0.00    +0.008 C 
ATOM      3  N   UNL     1       2.456  -4.331  -3.657  0.00  0.00    -0.274 N 
ATOM      4  C   UNL     1       2.952  -3.685  -4.721  0.00  0.00    +0.304 C 
ATOM      5  O   UNL     1       3.660  -4.292  -5.500  0.00  0.00    -0.252 OA
ATOM      6  N   UNL     1       2.690  -2.384  -4.956  0.00  0.00    -0.285 N 
ATOM      7  C   UNL     1       1.825  -1.661  -4.008  0.00  0.00    +0.179 C 
ATOM      8  H   UNL     1       2.682  -5.267  -3.545  0.00  0.00    +0.156 HD
ATOM      9  H   UNL     1       3.059  -1.935  -5.732  0.00  0.00    +0.151 HD
ENDROOT
BRANCH   7  10
ATOM     10  C   UNL     1       0.641  -1.123  -4.770  0.00  0.00    +0.130 A 
ATOM     11  C   UNL     1       0.164   0.133  -4.699  0.00  0.00    +0.047 A 
ATOM     12  C   UNL     1      -0.946   0.200  -5.572  0.00  0.00    +0.045 A 
ATOM     13  C   UNL     1      -1.081  -1.019  -6.125  0.00  0.00    +0.102 A 
ATOM     14  O   UNL     1      -0.113  -1.815  -5.641  0.00  0.00    -0.463 OA
ATOM     15  C   UNL     1      -2.135  -1.422  -7.124  0.00  0.00    +0.086 C 
ENDBRANCH   7  10
BRANCH   1  16
ATOM     16  C   UNL     1       0.466  -1.836  -1.855  0.00  0.00    +0.339 C 
ATOM     17  O   UNL     1      -0.044  -2.511  -0.980  0.00  0.00    -0.245 OA
BRANCH  16  18
ATOM     18  O   UNL     1       0.235  -0.507  -1.903  0.00  0.00    -0.462 OA
BRANCH  18  20
ATOM     19  C   UNL     1      -0.759   1.548  -1.110  0.00  0.00    +0.048 C 
ATOM     20  C   UNL     1      -0.617   0.040  -0.894  0.00  0.00    +0.229 C 
ENDBRANCH  18  20
ENDBRANCH  16  18
ENDBRANCH   1  16
BRANCH   2  21
ATOM     21  C   UNL     1       1.147  -4.562  -1.561  0.00  0.00    -0.026 C 
BRANCH  21  22
ATOM     22  N   UNL     1      -0.177  -5.110  -1.886  0.00  0.00    +0.386 N 
ATOM     23  C   UNL     1      -0.060  -6.027  -3.028  0.00  0.00    -0.095 C 
ATOM     24  H   UNL     1      -0.804  -4.356  -2.123  0.00  0.00    -0.081 HD
BRANCH  22  25
ATOM     25  C   UNL     1      -0.703  -5.839  -0.725  0.00  0.00    -0.041 C 
ATOM     26  C   UNL     1      -0.825  -4.884   0.465  0.00  0.00    -0.008 C 
BRANCH  25  27
ATOM     27  C   UNL     1      -2.061  -6.401  -1.058  0.00  0.00    -0.061 A 
ATOM     28  C   UNL     1      -2.955  -5.652  -1.801  0.00  0.00    +0.005 A 
ATOM     29  C   UNL     1      -4.200  -6.165  -2.107  0.00  0.00    +0.046 A 
ATOM     30  C   UNL     1      -4.554  -7.433  -1.669  0.00  0.00    +0.120 A 
ATOM     31  C   UNL     1      -3.655  -8.183  -0.924  0.00  0.00    +0.046 A 
ATOM     32  C   UNL     1      -2.409  -7.667  -0.625  0.00  0.00    +0.005 A 
BRANCH  30  33
ATOM     33  O   UNL     1      -5.779  -7.939  -1.969  0.00  0.00    -0.495 OA
ATOM     34  C   UNL     1      -6.075  -9.251  -1.485  0.00  0.00    +0.277 C 
ENDBRANCH  30  33
ENDBRANCH  25  27
ENDBRANCH  22  25
ENDBRANCH  21  22
ENDBRANCH   2  21
TORSDOF 9
