REMARK  Name = ZINC08809612
REMARK  12 active torsions:
REMARK  status: ('A' for Active; 'I' for Inactive)
REMARK    1  A    between atoms: C_1  and  C_2
REMARK    2  A    between atoms: C_2  and  O_3
REMARK    3  A    between atoms: O_3  and  C_4
REMARK    4  A    between atoms: C_4  and  C_6
REMARK    5  A    between atoms: C_7  and  C_23
REMARK    6  A    between atoms: C_9  and  N_22
REMARK    7  A    between atoms: C_10  and  C_20
REMARK    8  A    between atoms: C_11  and  C_13
REMARK    9  A    between atoms: C_23  and  S_24
REMARK   10  A    between atoms: S_24  and  C_25
REMARK   11  A    between atoms: C_26  and  C_36
REMARK   12  A    between atoms: C_29  and  C_31
REMARK                            x       y       z     vdW  Elec       q    Type
REMARK                         _______ _______ _______ _____ _____    ______ ____
ROOT
ATOM      1  C   UNL     1      -0.029   1.417  -0.102  0.00  0.00    +0.088 C 
ATOM      2  C   UNL     1       1.133   2.084  -0.096  0.00  0.00    +0.128 C 
ATOM      3  O   UNL     1       1.192   3.418   0.018  0.00  0.00    -0.444 OA
ATOM      4  C   UNL     1       0.098   4.153  -0.249  0.00  0.00    +0.198 C 
ATOM      5  C   UNL     1      -1.142   3.607  -0.265  0.00  0.00    +0.098 C 
ATOM      6  C   UNL     1      -1.341   2.143   0.013  0.00  0.00    +0.105 C 
ENDROOT
BRANCH   6   7
ATOM      7  C   UNL     1      -1.888   1.972   1.407  0.00  0.00    -0.032 A 
ATOM      8  C   UNL     1      -3.116   1.367   1.599  0.00  0.00    +0.005 A 
ATOM      9  C   UNL     1      -3.619   1.210   2.877  0.00  0.00    +0.003 A 
ATOM     10  C   UNL     1      -2.894   1.658   3.965  0.00  0.00    +0.038 A 
ATOM     11  C   UNL     1      -1.664   2.264   3.774  0.00  0.00    +0.124 A 
ATOM     12  C   UNL     1      -1.159   2.416   2.494  0.00  0.00    +0.043 A 
ATOM     13  F   UNL     1      -0.954   2.702   4.837  0.00  0.00    -0.205 F 
ENDBRANCH   6   7
BRANCH   4  14
ATOM     14  N   UNL     1       0.242   5.492  -0.515  0.00  0.00    -0.328 N 
ATOM     15  H   UNL     1       1.123   5.896  -0.507  0.00  0.00    +0.145 HD
ATOM     16  H   UNL     1      -0.539   6.034  -0.710  0.00  0.00    +0.145 HD
ENDBRANCH   4  14
BRANCH   1  17
ATOM     17  C   UNL     1      -0.021   0.006  -0.225  0.00  0.00    +0.339 C 
ATOM     18  O   UNL     1      -0.250  -0.512  -1.301  0.00  0.00    -0.245 OA
BRANCH  17  19
ATOM     19  O   UNL     1       0.238  -0.763   0.853  0.00  0.00    -0.462 OA
BRANCH  19  21
ATOM     20  C   UNL     1       0.543  -2.879   1.980  0.00  0.00    +0.048 C 
ATOM     21  C   UNL     1       0.229  -2.179   0.657  0.00  0.00    +0.229 C 
ENDBRANCH  19  21
ENDBRANCH  17  19
ENDBRANCH   1  17
BRANCH   5  22
ATOM     22  C   UNL     1      -2.275   4.433  -0.554  0.00  0.00    +0.101 C 
ATOM     23  N   UNL     1      -3.174   5.088  -0.783  0.00  0.00    -0.191 NA
ENDBRANCH   5  22
BRANCH   2  24
ATOM     24  C   UNL     1       2.418   1.306  -0.222  0.00  0.00    +0.150 C 
BRANCH  24  25
ATOM     25  S   UNL     1       3.081   1.505  -1.895  0.00  0.00    -0.097 S 
BRANCH  25  26
ATOM     26  C   UNL     1       4.537   0.522  -1.765  0.00  0.00    +0.115 A 
ATOM     27  C   UNL     1       5.388   0.384  -2.878  0.00  0.00    +0.084 A 
ATOM     28  C   UNL     1       6.546  -0.398  -2.756  0.00  0.00    +0.023 A 
ATOM     29  C   UNL     1       6.801  -1.012  -1.548  0.00  0.00    +0.030 A 
ATOM     30  C   UNL     1       5.909  -0.836  -0.485  0.00  0.00    +0.079 A 
ATOM     31  N   UNL     1       4.820  -0.085  -0.625  0.00  0.00    -0.239 NA
BRANCH  30  32
ATOM     32  C   UNL     1       6.180  -1.491   0.807  0.00  0.00    +0.038 A 
ATOM     33  C   UNL     1       5.447  -1.452   1.966  0.00  0.00    +0.017 A 
ATOM     34  C   UNL     1       5.902  -2.151   3.059  0.00  0.00    +0.008 A 
ATOM     35  C   UNL     1       7.059  -2.858   2.960  0.00  0.00    +0.046 A 
ATOM     36  S   UNL     1       7.543  -2.547   1.270  0.00  0.00    -0.095 S 
ENDBRANCH  30  32
BRANCH  27  37
ATOM     37  C   UNL     1       5.079   1.036  -4.114  0.00  0.00    +0.102 C 
ATOM     38  N   UNL     1       4.834   1.554  -5.095  0.00  0.00    -0.191 NA
ENDBRANCH  27  37
ENDBRANCH  25  26
ENDBRANCH  24  25
ENDBRANCH   2  24
TORSDOF 11
