REMARK  Name = ZINC39469806
REMARK  8 active torsions:
REMARK  status: ('A' for Active; 'I' for Inactive)
REMARK    1  A    between atoms: C_1  and  C_2
REMARK    2  A    between atoms: C_2  and  C_3
REMARK    3  A    between atoms: C_2  and  S_4
REMARK    4  A    between atoms: S_4  and  P_7
REMARK    5  A    between atoms: C_15  and  C_32
REMARK    6  A    between atoms: C_16  and  C_25
REMARK    7  A    between atoms: C_25  and  C_26
REMARK    8  A    between atoms: C_32  and  C_33
REMARK                            x       y       z     vdW  Elec       q    Type
REMARK                         _______ _______ _______ _____ _____    ______ ____
ROOT
ATOM      1  P   UNL     1      -2.306   0.154  -2.399  0.00  0.00    +0.392 P 
ATOM      2  O   UNL     1      -2.219   1.628  -2.493  0.00  0.00    -0.249 OA
ATOM      3  N   UNL     1      -3.875  -0.340  -2.531  0.00  0.00    -0.274 NA
ATOM      4  N   UNL     1      -4.109  -1.651  -2.889  0.00  0.00    +0.398 N 
ATOM      5  C   UNL     1      -5.568  -1.776  -3.043  0.00  0.00    -0.046 C 
ATOM      6  C   UNL     1      -5.958  -3.196  -3.428  0.00  0.00    +0.005 C 
ATOM      7  C   UNL     1      -5.531  -4.170  -2.363  0.00  0.00    -0.021 C 
ATOM      8  C   UNL     1      -5.367  -5.453  -2.677  0.00  0.00    -0.044 C 
ATOM      9  C   UNL     1      -5.618  -5.900  -4.058  0.00  0.00    -0.043 C 
ATOM     10  C   UNL     1      -5.581  -5.020  -5.054  0.00  0.00    -0.019 C 
ATOM     11  C   UNL     1      -5.278  -3.574  -4.747  0.00  0.00    +0.016 C 
ATOM     12  C   UNL     1      -3.767  -3.399  -4.584  0.00  0.00    -0.003 C 
ATOM     13  C   UNL     1      -3.435  -1.966  -4.150  0.00  0.00    -0.020 C 
ATOM     14  C   UNL     1      -1.909  -1.881  -4.009  0.00  0.00    +0.158 C 
ATOM     15  O   UNL     1      -1.534  -0.539  -3.652  0.00  0.00    -0.304 OA
ATOM     16  H   UNL     1      -4.609   0.272  -2.363  0.00  0.00    +0.112 HD
ATOM     17  H   UNL     1      -3.777  -2.266  -2.162  0.00  0.00    -0.055 HD
ENDROOT
BRANCH   1  18
ATOM     18  S   UNL     1      -1.478  -0.514  -0.565  0.00  0.00    +0.056 S 
ATOM     19  O   UNL     1      -1.579  -1.931  -0.617  0.00  0.00    -0.164 OA
ATOM     20  O   UNL     1      -2.166   0.225   0.434  0.00  0.00    -0.164 OA
BRANCH  18  22
ATOM     21  C   UNL     1       0.348   1.512  -0.767  0.00  0.00    +0.032 C 
ATOM     22  C   UNL     1       0.263  -0.010  -0.629  0.00  0.00    +0.135 C 
ATOM     23  C   UNL     1       0.968  -0.445   0.658  0.00  0.00    +0.032 C 
ENDBRANCH  18  22
ENDBRANCH   1  18
BRANCH   9  24
ATOM     24  C   UNL     1      -5.914  -7.350  -4.341  0.00  0.00    +0.070 C 
BRANCH  24  25
ATOM     25  C   UNL     1      -7.390  -7.603  -4.169  0.00  0.00    -0.043 A 
ATOM     26  C   UNL     1      -7.892  -7.953  -2.930  0.00  0.00    +0.004 A 
ATOM     27  C   UNL     1      -9.245  -8.185  -2.773  0.00  0.00    +0.000 A 
ATOM     28  C   UNL     1     -10.097  -8.068  -3.855  0.00  0.00    +0.000 A 
ATOM     29  C   UNL     1      -9.595  -7.718  -5.095  0.00  0.00    +0.000 A 
ATOM     30  C   UNL     1      -8.242  -7.481  -5.251  0.00  0.00    +0.004 A 
ENDBRANCH  24  25
ENDBRANCH   9  24
BRANCH   8  31
ATOM     31  C   UNL     1      -4.928  -6.441  -1.627  0.00  0.00    +0.070 C 
BRANCH  31  32
ATOM     32  C   UNL     1      -3.429  -6.587  -1.669  0.00  0.00    -0.043 A 
ATOM     33  C   UNL     1      -2.855  -7.621  -2.385  0.00  0.00    +0.004 A 
ATOM     34  C   UNL     1      -1.480  -7.755  -2.424  0.00  0.00    +0.000 A 
ATOM     35  C   UNL     1      -0.678  -6.854  -1.748  0.00  0.00    +0.000 A 
ATOM     36  C   UNL     1      -1.252  -5.819  -1.034  0.00  0.00    +0.000 A 
ATOM     37  C   UNL     1      -2.627  -5.682  -0.998  0.00  0.00    +0.004 A 
ENDBRANCH  31  32
ENDBRANCH   8  31
TORSDOF 6
