REMARK  Name = ZINC27780150
REMARK  8 active torsions:
REMARK  status: ('A' for Active; 'I' for Inactive)
REMARK    1  A    between atoms: C_1  and  C_2
REMARK    2  A    between atoms: C_2  and  C_4
REMARK    3  A    between atoms: C_2  and  N_14
REMARK    4  A    between atoms: C_15  and  C_17
REMARK    5  A    between atoms: C_17  and  N_18
REMARK    6  A    between atoms: C_21  and  C_24
REMARK    7  A    between atoms: N_26  and  C_27
REMARK    8  A    between atoms: C_27  and  C_28
REMARK                            x       y       z     vdW  Elec       q    Type
REMARK                         _______ _______ _______ _____ _____    ______ ____
ROOT
ATOM      1  C   UNL     1      -2.482   0.853   0.018  0.00  0.00    +0.019 C 
ENDROOT
BRANCH   1   2
ATOM      2  N   UNL     1      -3.611   1.792   0.029  0.00  0.00    +0.385 N 
ATOM      3  C   UNL     1      -3.651   2.554   1.284  0.00  0.00    -0.077 C 
ATOM      4  C   UNL     1      -4.746   3.619   1.201  0.00  0.00    -0.006 C 
ATOM      5  C   UNL     1      -6.095   2.939   0.953  0.00  0.00    +0.071 C 
ATOM      6  C   UNL     1      -6.013   2.114  -0.334  0.00  0.00    -0.006 C 
ATOM      7  C   UNL     1      -4.880   1.092  -0.207  0.00  0.00    -0.077 C 
ATOM      8  H   UNL     1      -3.466   2.508  -0.794  0.00  0.00    -0.081 HD
BRANCH   5   9
ATOM      9  C   UNL     1      -7.169   3.987   0.811  0.00  0.00    +0.216 C 
ATOM     10  O   UNL     1      -7.806   4.067  -0.218  0.00  0.00    -0.276 OA
ATOM     11  N   UNL     1      -7.421   4.836   1.827  0.00  0.00    -0.307 N 
ATOM     12  H   UNL     1      -6.843   4.764   2.760  0.00  0.00    +0.149 HD
BRANCH  11  13
ATOM     13  C   UNL     1      -8.464   5.855   1.689  0.00  0.00    +0.217 C 
BRANCH  13  14
ATOM     14  C   UNL     1      -8.546   6.679   2.975  0.00  0.00    +0.405 C 
ATOM     15  F   UNL     1      -7.315   7.301   3.209  0.00  0.00    -0.169 F 
ATOM     16  F   UNL     1      -9.543   7.652   2.843  0.00  0.00    -0.169 F 
ATOM     17  F   UNL     1      -8.855   5.838   4.049  0.00  0.00    -0.169 F 
ENDBRANCH  13  14
ENDBRANCH  11  13
ENDBRANCH   5   9
ENDBRANCH   1   2
BRANCH   1  19
ATOM     18  N   UNL     1      -0.011   0.966   0.007  0.00  0.00    -0.310 N 
ATOM     19  C   UNL     1      -1.187   1.624   0.017  0.00  0.00    +0.197 C 
ATOM     20  O   UNL     1      -1.204   2.837   0.023  0.00  0.00    -0.278 OA
ATOM     21  H   UNL     1       0.004  -0.134   0.006  0.00  0.00    +0.149 HD
BRANCH  18  23
ATOM     22  C   UNL     1       1.635   2.077   1.435  0.00  0.00    +0.033 C 
ATOM     23  C   UNL     1       1.248   1.716  -0.001  0.00  0.00    +0.100 C 
BRANCH  23  24
ATOM     24  C   UNL     1       2.332   0.870  -0.616  0.00  0.00    -0.027 A 
ATOM     25  C   UNL     1       2.403  -0.482  -0.333  0.00  0.00    +0.006 A 
ATOM     26  C   UNL     1       3.400  -1.249  -0.898  0.00  0.00    +0.004 A 
ATOM     27  C   UNL     1       4.335  -0.675  -1.750  0.00  0.00    -0.044 A 
ATOM     28  C   UNL     1       4.262   0.669  -2.036  0.00  0.00    -0.044 A 
ATOM     29  C   UNL     1       3.255   1.440  -1.468  0.00  0.00    +0.009 A 
ATOM     30  C   UNL     1       5.234   1.356  -2.959  0.00  0.00    +0.035 C 
ATOM     31  C   UNL     1       6.491   0.507  -3.142  0.00  0.00    +0.005 C 
ATOM     32  C   UNL     1       6.062  -0.912  -3.533  0.00  0.00    +0.005 C 
ATOM     33  C   UNL     1       5.405  -1.569  -2.321  0.00  0.00    +0.035 C 
ENDBRANCH  23  24
ENDBRANCH  18  23
ENDBRANCH   1  19
TORSDOF 7
