REMARK  Name = ZINC12656844
REMARK  7 active torsions:
REMARK  status: ('A' for Active; 'I' for Inactive)
REMARK    1  A    between atoms: C_4  and  C_7
REMARK    2  A    between atoms: C_8  and  C_9
REMARK    3  A    between atoms: N_11  and  C_12
REMARK    4  A    between atoms: C_12  and  C_21
REMARK    5  A    between atoms: C_13  and  C_14
REMARK    6  A    between atoms: N_23  and  C_24
REMARK    7  A    between atoms: C_29  and  O_30
REMARK                            x       y       z     vdW  Elec       q    Type
REMARK                         _______ _______ _______ _____ _____    ______ ____
ROOT
ATOM      1  C   UNL     1      -0.163   0.006   4.826  0.00  0.00    +0.097 C 
ATOM      2  C   UNL     1      -0.196   1.358   4.779  0.00  0.00    +0.036 C 
ENDROOT
BRANCH   2   3
ATOM      3  C   UNL     1      -0.207   2.136   6.027  0.00  0.00    -0.023 A 
ATOM      4  C   UNL     1      -0.709   1.570   7.204  0.00  0.00    +0.009 A 
ATOM      5  C   UNL     1      -0.712   2.304   8.371  0.00  0.00    +0.020 A 
ATOM      6  C   UNL     1      -0.230   3.603   8.378  0.00  0.00    +0.041 A 
ATOM      7  C   UNL     1       0.263   4.172   7.215  0.00  0.00    +0.020 A 
ATOM      8  C   UNL     1       0.278   3.448   6.042  0.00  0.00    +0.009 A 
ATOM      9 CL   UNL     1      -0.245   4.522   9.850  0.00  0.00    -0.084 Cl
ENDBRANCH   2   3
BRANCH   1  12
ATOM     10  C   UNL     1      -1.233  -1.518   6.305  0.00  0.00    +0.241 C 
ATOM     11  O   UNL     1      -2.031  -1.792   5.429  0.00  0.00    -0.270 OA
ATOM     12  N   UNL     1      -0.229  -0.653   6.056  0.00  0.00    -0.278 N 
ATOM     13  H   UNL     1       0.448  -0.489   6.731  0.00  0.00    +0.155 HD
BRANCH  10  15
ATOM     14  C   UNL     1      -2.303  -3.067   7.851  0.00  0.00    +0.013 C 
ATOM     15  C   UNL     1      -1.362  -2.127   7.630  0.00  0.00    +0.068 C 
BRANCH  14  19
ATOM     16  C   UNL     1      -2.892  -4.602  11.761  0.00  0.00    +0.000 A 
ATOM     17  C   UNL     1      -3.668  -5.069  10.715  0.00  0.00    +0.001 A 
ATOM     18  C   UNL     1      -3.483  -4.574   9.441  0.00  0.00    +0.008 A 
ATOM     19  C   UNL     1      -2.508  -3.599   9.208  0.00  0.00    -0.025 A 
ATOM     20  C   UNL     1      -1.724  -3.137  10.270  0.00  0.00    +0.008 A 
ATOM     21  C   UNL     1      -1.924  -3.638  11.539  0.00  0.00    +0.001 A 
ENDBRANCH  14  19
ENDBRANCH  10  15
ENDBRANCH   1  12
BRANCH   1  22
ATOM     22  C   UNL     1      -0.059  -0.770   3.582  0.00  0.00    +0.263 C 
ATOM     23  O   UNL     1      -0.030  -1.986   3.623  0.00  0.00    -0.268 OA
ATOM     24  N   UNL     1       0.004  -0.134   2.395  0.00  0.00    -0.278 N 
ATOM     25  H   UNL     1       0.067   0.833   2.365  0.00  0.00    +0.155 HD
BRANCH  24  26
ATOM     26  C   UNL     1      -0.020  -0.871   1.204  0.00  0.00    +0.076 A 
ATOM     27  C   UNL     1      -0.604  -2.129   1.177  0.00  0.00    +0.027 A 
ATOM     28  C   UNL     1      -0.627  -2.854   0.000  0.00  0.00    +0.002 A 
ATOM     29  C   UNL     1      -0.071  -2.328  -1.151  0.00  0.00    +0.004 A 
ATOM     30  C   UNL     1       0.508  -1.072  -1.133  0.00  0.00    +0.047 A 
ATOM     31  C   UNL     1       0.540  -0.341   0.044  0.00  0.00    +0.138 A 
BRANCH  31  32
ATOM     32  O   UNL     1       1.113   0.892   0.064  0.00  0.00    -0.505 OA
ATOM     33  H   UNL     1       2.055   0.884   0.280  0.00  0.00    +0.292 HD
ENDBRANCH  31  32
ENDBRANCH  24  26
ENDBRANCH   1  22
TORSDOF 7
