REMARK  Name = ZINC39599400
REMARK  11 active torsions:
REMARK  status: ('A' for Active; 'I' for Inactive)
REMARK    1  A    between atoms: C_1  and  C_2
REMARK    2  A    between atoms: C_2  and  C_3
REMARK    3  A    between atoms: C_3  and  C_5
REMARK    4  A    between atoms: C_3  and  C_6
REMARK    5  A    between atoms: C_6  and  C_7
REMARK    6  A    between atoms: C_11  and  C_20
REMARK    7  A    between atoms: N_22  and  C_23
REMARK    8  A    between atoms: C_23  and  C_24
REMARK    9  A    between atoms: C_24  and  C_25
REMARK   10  A    between atoms: C_28  and  O_34
REMARK   11  A    between atoms: O_34  and  C_35
REMARK                            x       y       z     vdW  Elec       q    Type
REMARK                         _______ _______ _______ _____ _____    ______ ____
ROOT
ATOM      1  C   UNL     1      -2.539  -2.611   0.136  0.00  0.00    +0.216 C 
ATOM      2  O   UNL     1      -3.405  -1.764   0.092  0.00  0.00    -0.276 OA
ATOM      3  N   UNL     1      -2.872  -3.907   0.299  0.00  0.00    -0.300 N 
ATOM      4  C   UNL     1      -1.964  -5.075   0.381  0.00  0.00    +0.121 C 
ATOM      5  C   UNL     1      -2.586  -5.978   1.470  0.00  0.00    +0.100 C 
ATOM      6  C   UNL     1      -4.074  -5.588   1.500  0.00  0.00    -0.004 C 
ATOM      7  C   UNL     1      -4.230  -4.485   0.442  0.00  0.00    +0.115 C 
ATOM      8  C   UNL     1      -4.451  -5.048   2.876  0.00  0.00    -0.010 C 
ATOM      9  C   UNL     1      -5.947  -4.720   2.898  0.00  0.00    -0.082 C 
ATOM     10  N   UNL     1      -6.719  -5.932   2.597  0.00  0.00    +0.379 N 
ATOM     11  C   UNL     1      -6.418  -6.392   1.236  0.00  0.00    -0.082 C 
ATOM     12  C   UNL     1      -4.943  -6.790   1.143  0.00  0.00    -0.010 C 
ATOM     13  H   UNL     1      -6.477  -6.656   3.256  0.00  0.00    -0.086 HD
ATOM     14  H   UNL     1      -7.704  -5.729   2.672  0.00  0.00    -0.086 HD
ENDROOT
BRANCH   5  15
ATOM     15  C   UNL     1      -1.944  -5.707   2.806  0.00  0.00    +0.218 C 
ATOM     16  O   UNL     1      -1.512  -4.603   3.059  0.00  0.00    -0.275 OA
ATOM     17  N   UNL     1      -1.849  -6.693   3.720  0.00  0.00    -0.315 N 
ATOM     18  H   UNL     1      -2.194  -7.577   3.518  0.00  0.00    +0.149 HD
BRANCH  17  19
ATOM     19  C   UNL     1      -1.224  -6.431   5.019  0.00  0.00    +0.109 C 
BRANCH  19  20
ATOM     20  C   UNL     1      -1.245  -7.707   5.862  0.00  0.00    +0.056 C 
BRANCH  20  21
ATOM     21  C   UNL     1      -0.602  -7.437   7.198  0.00  0.00    -0.021 A 
ATOM     22  C   UNL     1      -1.258  -6.876   8.383  0.00  0.00    +0.006 A 
ATOM     23  C   UNL     1      -2.557  -6.445   8.658  0.00  0.00    +0.056 A 
ATOM     24  C   UNL     1      -2.861  -5.954   9.912  0.00  0.00    +0.121 A 
ATOM     25  C   UNL     1      -1.879  -5.888  10.897  0.00  0.00    +0.047 A 
ATOM     26  C   UNL     1      -0.594  -6.310  10.636  0.00  0.00    +0.030 A 
ATOM     27  C   UNL     1      -0.268  -6.808   9.380  0.00  0.00    +0.047 A 
ATOM     28  N   UNL     1       0.898  -7.295   8.828  0.00  0.00    -0.360 N 
ATOM     29  C   UNL     1       0.677  -7.670   7.530  0.00  0.00    +0.087 A 
ATOM     30  H   UNL     1       1.747  -7.366   9.291  0.00  0.00    +0.165 HD
BRANCH  24  31
ATOM     31  O   UNL     1      -4.124  -5.533  10.187  0.00  0.00    -0.495 OA
ATOM     32  C   UNL     1      -4.371  -5.036  11.504  0.00  0.00    +0.277 C 
ENDBRANCH  24  31
ENDBRANCH  20  21
ENDBRANCH  19  20
ENDBRANCH  17  19
ENDBRANCH   5  15
BRANCH   1  33
ATOM     33  C   UNL     1      -1.091  -2.216   0.007  0.00  0.00    +0.099 C 
BRANCH  33  34
ATOM     34  C   UNL     1      -0.990  -0.699  -0.167  0.00  0.00    -0.006 C 
ATOM     35  C   UNL     1      -1.639  -0.293  -1.492  0.00  0.00    +0.008 C 
BRANCH  34  37
ATOM     36  C   UNL     1       0.582   1.242  -0.221  0.00  0.00    +0.004 C 
ATOM     37  C   UNL     1       0.483  -0.284  -0.173  0.00  0.00    +0.000 C 
ENDBRANCH  34  37
ENDBRANCH  33  34
ENDBRANCH   1  33
TORSDOF 8
