REMARK  Name = ZINC12908087
REMARK  12 active torsions:
REMARK  status: ('A' for Active; 'I' for Inactive)
REMARK    1  A    between atoms: C_1  and  C_2
REMARK    2  A    between atoms: C_2  and  C_3
REMARK    3  A    between atoms: C_2  and  C_4
REMARK    4  A    between atoms: C_4  and  C_6
REMARK    5  A    between atoms: C_4  and  O_12
REMARK    6  A    between atoms: O_12  and  C_13
REMARK    7  A    between atoms: C_13  and  C_15
REMARK    8  A    between atoms: C_15  and  C_17
REMARK    9  A    between atoms: C_15  and  N_24
REMARK   10  A    between atoms: C_17  and  C_18
REMARK   11  A    between atoms: N_24  and  S_25
REMARK   12  A    between atoms: S_25  and  C_28
REMARK                            x       y       z     vdW  Elec       q    Type
REMARK                         _______ _______ _______ _____ _____    ______ ____
ROOT
ATOM      1  C   UNL     1      -4.058  -0.089  -1.717  0.00  0.00    +0.189 C 
ENDROOT
BRANCH   1   2
ATOM      2  C   UNL     1      -2.682   0.490  -1.919  0.00  0.00    +0.327 C 
ATOM      3  O   UNL     1      -1.777  -0.218  -2.292  0.00  0.00    -0.249 OA
BRANCH   2   4
ATOM      4  O   UNL     1      -2.460   1.793  -1.683  0.00  0.00    -0.450 OA
BRANCH   4   5
ATOM      5  C   UNL     1      -1.110   2.282  -1.899  0.00  0.00    +0.265 C 
BRANCH   5   6
ATOM      6  C   UNL     1      -1.160   3.730  -2.313  0.00  0.00    +0.261 C 
ATOM      7  O   UNL     1      -2.215   4.327  -2.303  0.00  0.00    -0.271 OA
ATOM      8  N   UNL     1      -0.032   4.360  -2.696  0.00  0.00    -0.237 N 
ATOM      9  C   UNL     1      -0.091   5.623  -3.164  0.00  0.00    +0.303 C 
ATOM     10  O   UNL     1      -1.163   6.192  -3.242  0.00  0.00    -0.253 OA
ATOM     11  N   UNL     1       1.036   6.253  -3.547  0.00  0.00    -0.313 N 
ATOM     12  H   UNL     1       0.823   3.906  -2.634  0.00  0.00    +0.159 HD
ATOM     13  H   UNL     1       1.891   5.799  -3.485  0.00  0.00    +0.146 HD
ATOM     14  H   UNL     1       0.994   7.162  -3.884  0.00  0.00    +0.146 HD
ENDBRANCH   5   6
BRANCH   5  16
ATOM     15  C   UNL     1      -0.992   2.953   0.505  0.00  0.00    +0.011 C 
ATOM     16  C   UNL     1      -0.307   2.150  -0.603  0.00  0.00    +0.033 C 
ATOM     17  C   UNL     1      -0.235   0.677  -0.195  0.00  0.00    +0.011 C 
ENDBRANCH   5  16
ENDBRANCH   4   5
ENDBRANCH   2   4
ENDBRANCH   1   2
BRANCH   1  18
ATOM     18  N   UNL     1      -4.039  -1.518  -2.038  0.00  0.00    -0.176 NA
ATOM     19  H   UNL     1      -4.139  -1.810  -2.957  0.00  0.00    +0.149 HD
BRANCH  18  20
ATOM     20  S   UNL     1      -3.845  -2.635  -0.831  0.00  0.00    +0.062 S 
ATOM     21  O   UNL     1      -3.830  -3.911  -1.457  0.00  0.00    -0.153 OA
ATOM     22  O   UNL     1      -2.776  -2.173  -0.017  0.00  0.00    -0.153 OA
BRANCH  20  23
ATOM     23  C   UNL     1      -5.297  -2.581   0.167  0.00  0.00    +0.140 A 
ATOM     24  C   UNL     1      -6.228  -3.600   0.089  0.00  0.00    +0.031 A 
ATOM     25  C   UNL     1      -7.364  -3.560   0.875  0.00  0.00    +0.002 A 
ATOM     26  C   UNL     1      -7.576  -2.496   1.732  0.00  0.00    +0.003 A 
ATOM     27  C   UNL     1      -6.649  -1.474   1.808  0.00  0.00    +0.040 A 
ATOM     28  C   UNL     1      -5.508  -1.515   1.025  0.00  0.00    +0.150 A 
ATOM     29  F   UNL     1      -4.602  -0.516   1.097  0.00  0.00    -0.203 F 
ENDBRANCH  20  23
ENDBRANCH  18  20
ENDBRANCH   1  18
BRANCH   1  30
ATOM     30  C   UNL     1      -5.052   0.627  -2.635  0.00  0.00    +0.067 C 
BRANCH  30  31
ATOM     31  C   UNL     1      -6.436   0.080  -2.399  0.00  0.00    -0.045 A 
ATOM     32  C   UNL     1      -6.856  -1.052  -3.072  0.00  0.00    +0.004 A 
ATOM     33  C   UNL     1      -8.124  -1.556  -2.852  0.00  0.00    +0.000 A 
ATOM     34  C   UNL     1      -8.976  -0.922  -1.968  0.00  0.00    +0.000 A 
ATOM     35  C   UNL     1      -8.559   0.213  -1.299  0.00  0.00    +0.000 A 
ATOM     36  C   UNL     1      -7.289   0.714  -1.515  0.00  0.00    +0.004 A 
ENDBRANCH  30  31
ENDBRANCH   1  30
TORSDOF 10
