REMARK  Name = ZINC04328423
REMARK  2 active torsions:
REMARK  status: ('A' for Active; 'I' for Inactive)
REMARK    1  A    between atoms: C_3  and  C_6
REMARK    2  A    between atoms: C_11  and  C_13
REMARK                            x       y       z     vdW  Elec       q    Type
REMARK                         _______ _______ _______ _____ _____    ______ ____
ROOT
ATOM      1  C   UNL     1       3.567   0.619  -0.029  0.00  0.00    +0.117 A 
ATOM      2  C   UNL     1       4.241  -0.601  -0.048  0.00  0.00    +0.123 A 
ATOM      3  C   UNL     1       5.641  -0.590  -0.062  0.00  0.00    +0.341 A 
ATOM      4  O   UNL     1       6.270  -1.636  -0.079  0.00  0.00    -0.245 OA
ATOM      5  O   UNL     1       6.284   0.597  -0.057  0.00  0.00    -0.403 OA
ATOM      6  C   UNL     1       5.589   1.749  -0.038  0.00  0.00    +0.238 A 
ATOM      7  N   UNL     1       4.272   1.762  -0.030  0.00  0.00    -0.208 NA
ENDROOT
BRANCH   1  10
ATOM      8  C   UNL     1      -0.016   1.346   0.009  0.00  0.00    +0.042 A 
ATOM      9  C   UNL     1       1.322   1.777  -0.001  0.00  0.00    +0.051 A 
ATOM     10  C   UNL     1       2.095   0.654  -0.014  0.00  0.00    +0.153 A 
ATOM     11  O   UNL     1       1.278  -0.417  -0.012  0.00  0.00    -0.461 OA
ATOM     12  C   UNL     1       0.002  -0.004   0.002  0.00  0.00    +0.196 A 
ENDBRANCH   1  10
BRANCH   6  13
ATOM     13  C   UNL     1       6.315   3.021  -0.033  0.00  0.00    +0.074 A 
ATOM     14  C   UNL     1       7.684   3.246  -0.050  0.00  0.00    +0.021 A 
ATOM     15  C   UNL     1       8.071   4.565  -0.039  0.00  0.00    +0.008 A 
ATOM     16  C   UNL     1       7.120   5.531  -0.013  0.00  0.00    +0.046 A 
ATOM     17  S   UNL     1       5.670   4.682  -0.010  0.00  0.00    -0.092 S 
ENDBRANCH   6  13
TORSDOF 2
