REMARK  Name = ZINC08949771
REMARK  5 active torsions:
REMARK  status: ('A' for Active; 'I' for Inactive)
REMARK    1  A    between atoms: C_1  and  C_2
REMARK    2  A    between atoms: C_15  and  S_17
REMARK    3  A    between atoms: S_17  and  C_18
REMARK    4  A    between atoms: C_18  and  C_19
REMARK    5  A    between atoms: N_21  and  C_22
REMARK                            x       y       z     vdW  Elec       q    Type
REMARK                         _______ _______ _______ _____ _____    ______ ____
ROOT
ATOM      1  C   UNL     1       3.510   2.095  -1.413  0.00  0.00    +0.008 C 
ATOM      2  C   UNL     1       2.159   1.397  -1.238  0.00  0.00    -0.009 C 
ATOM      3  C   UNL     1       1.389   2.042  -0.084  0.00  0.00    +0.008 C 
ATOM      4  C   UNL     1      -0.049   1.524  -0.064  0.00  0.00    +0.037 C 
ATOM      5  C   UNL     1      -0.024  -0.003  -0.063  0.00  0.00    -0.023 A 
ATOM      6  C   UNL     1       1.085  -0.672  -0.451  0.00  0.00    -0.004 A 
ATOM      7  S   UNL     1       0.670  -2.391  -0.293  0.00  0.00    -0.073 S 
ATOM      8  C   UNL     1      -0.985  -2.210   0.291  0.00  0.00    +0.117 A 
ATOM      9  C   UNL     1      -1.163  -0.808   0.345  0.00  0.00    +0.075 A 
ATOM     10  C   UNL     1      -2.437  -0.326   0.791  0.00  0.00    +0.261 A 
ATOM     11  O   UNL     1      -2.686   0.864   0.872  0.00  0.00    -0.267 OA
ATOM     12  N   UNL     1      -3.346  -1.275   1.118  0.00  0.00    -0.301 N 
ATOM     13  H   UNL     1      -4.221  -0.991   1.425  0.00  0.00    +0.171 HD
ATOM     14  C   UNL     1      -3.088  -2.609   1.035  0.00  0.00    +0.170 A 
ATOM     15  N   UNL     1      -1.921  -3.089   0.626  0.00  0.00    -0.216 NA
ATOM     16  C   UNL     1       2.384  -0.086  -0.913  0.00  0.00    +0.046 C 
ENDROOT
BRANCH  14  17
ATOM     17  S   UNL     1      -4.356  -3.745   1.490  0.00  0.00    -0.078 S 
BRANCH  17  18
ATOM     18  C   UNL     1      -3.496  -5.310   1.196  0.00  0.00    +0.173 C 
BRANCH  18  19
ATOM     19  C   UNL     1      -4.414  -6.458   1.528  0.00  0.00    +0.228 C 
ATOM     20  O   UNL     1      -5.540  -6.239   1.924  0.00  0.00    -0.275 OA
ATOM     21  N   UNL     1      -3.985  -7.728   1.385  0.00  0.00    -0.284 N 
ATOM     22  H   UNL     1      -3.109  -7.904   1.007  0.00  0.00    +0.155 HD
BRANCH  21  23
ATOM     23  C   UNL     1      -4.804  -8.792   1.781  0.00  0.00    +0.052 A 
ATOM     24  C   UNL     1      -6.181  -8.702   1.635  0.00  0.00    +0.026 A 
ATOM     25  C   UNL     1      -6.987  -9.754   2.026  0.00  0.00    +0.022 A 
ATOM     26  C   UNL     1      -6.422 -10.897   2.564  0.00  0.00    +0.042 A 
ATOM     27  C   UNL     1      -5.050 -10.990   2.712  0.00  0.00    +0.041 A 
ATOM     28  C   UNL     1      -4.238  -9.943   2.316  0.00  0.00    +0.064 A 
ATOM     29 CL   UNL     1      -2.516 -10.063   2.495  0.00  0.00    -0.082 Cl
ATOM     30 CL   UNL     1      -7.438 -12.216   3.055  0.00  0.00    -0.083 Cl
ENDBRANCH  21  23
ENDBRANCH  18  19
ENDBRANCH  17  18
ENDBRANCH  14  17
TORSDOF 4
