REMARK  Name = ZINC09447741
REMARK  12 active torsions:
REMARK  status: ('A' for Active; 'I' for Inactive)
REMARK    1  A    between atoms: C_1  and  C_2
REMARK    2  A    between atoms: C_2  and  C_4
REMARK    3  A    between atoms: C_2  and  C_5
REMARK    4  A    between atoms: C_5  and  C_7
REMARK    5  A    between atoms: C_5  and  N_19
REMARK    6  A    between atoms: N_9  and  C_10
REMARK    7  A    between atoms: C_20  and  C_22
REMARK    8  A    between atoms: C_33  and  O_35
REMARK    9  A    between atoms: O_35  and  C_36
REMARK   10  A    between atoms: C_36  and  C_37
REMARK   11  A    between atoms: C_36  and  C_38
REMARK   12  A    between atoms: C_36  and  C_39
REMARK                            x       y       z     vdW  Elec       q    Type
REMARK                         _______ _______ _______ _____ _____    ______ ____
ROOT
ATOM      1  N   UNL     1       6.130   0.136   1.952  0.00  0.00    -0.302 N 
ATOM      2  C   UNL     1       5.868   1.287   1.302  0.00  0.00    +0.235 C 
ATOM      3  O   UNL     1       6.264   1.446   0.167  0.00  0.00    -0.274 OA
ATOM      4  H   UNL     1       5.813   0.009   2.860  0.00  0.00    +0.150 HD
ENDROOT
BRANCH   2   5
ATOM      5  C   UNL     1       5.082   2.376   1.985  0.00  0.00    +0.170 C 
ATOM      6  C   UNL     1       3.778   2.625   1.229  0.00  0.00    +0.067 C 
ATOM      7  C   UNL     1       3.125   3.901   1.691  0.00  0.00    -0.040 A 
ATOM      8  C   UNL     1       1.770   4.064   1.426  0.00  0.00    +0.004 A 
ATOM      9  C   UNL     1       1.115   5.217   1.807  0.00  0.00    +0.000 A 
ATOM     10  C   UNL     1       1.808   6.217   2.463  0.00  0.00    +0.000 A 
ATOM     11  C   UNL     1       3.153   6.058   2.727  0.00  0.00    +0.005 A 
ATOM     12  C   UNL     1       3.813   4.898   2.345  0.00  0.00    -0.027 A 
ATOM     13  C   UNL     1       5.279   4.781   2.680  0.00  0.00    +0.147 C 
ATOM     14  N   UNL     1       5.856   3.629   1.978  0.00  0.00    -0.251 N 
ATOM     15  C   UNL     1       7.045   3.715   1.350  0.00  0.00    +0.404 C 
ATOM     16  O   UNL     1       7.440   2.790   0.668  0.00  0.00    -0.226 OA
BRANCH  15  17
ATOM     17  O   UNL     1       7.796   4.825   1.478  0.00  0.00    -0.445 OA
BRANCH  17  18
ATOM     18  C   UNL     1       9.066   4.847   0.774  0.00  0.00    +0.107 C 
ATOM     19  C   UNL     1       8.819   4.690  -0.727  0.00  0.00    +0.055 C 
ATOM     20  C   UNL     1       9.771   6.179   1.038  0.00  0.00    +0.055 C 
ATOM     21  C   UNL     1       9.944   3.697   1.270  0.00  0.00    +0.055 C 
ENDBRANCH  17  18
ENDBRANCH  15  17
ENDBRANCH   2   5
BRANCH   1  22
ATOM     22  C   UNL     1       6.894  -0.923   1.288  0.00  0.00    +0.162 C 
BRANCH  22  23
ATOM     23  C   UNL     1       6.547  -2.254   1.904  0.00  0.00    +0.238 C 
ATOM     24  O   UNL     1       5.920  -2.297   2.942  0.00  0.00    -0.273 OA
ATOM     25  N   UNL     1       6.933  -3.397   1.302  0.00  0.00    -0.284 N 
ATOM     26  H   UNL     1       7.493  -3.362   0.511  0.00  0.00    +0.155 HD
BRANCH  25  27
ATOM     27  C   UNL     1       6.525  -4.633   1.819  0.00  0.00    +0.037 A 
ATOM     28  C   UNL     1       5.263  -4.768   2.383  0.00  0.00    +0.027 A 
ATOM     29  C   UNL     1       4.858  -5.988   2.889  0.00  0.00    +0.051 A 
ATOM     30  C   UNL     1       5.712  -7.078   2.843  0.00  0.00    +0.166 A 
ATOM     31  C   UNL     1       6.980  -6.945   2.283  0.00  0.00    +0.168 A 
ATOM     32  C   UNL     1       7.384  -5.723   1.772  0.00  0.00    +0.072 A 
ATOM     33  O   UNL     1       7.620  -8.148   2.358  0.00  0.00    -0.453 OA
ATOM     34  C   UNL     1       6.889  -8.912   3.336  0.00  0.00    +0.466 C 
ATOM     35  O   UNL     1       5.558  -8.366   3.270  0.00  0.00    -0.453 OA
ENDBRANCH  25  27
ENDBRANCH  22  23
BRANCH  22  37
ATOM     36  C   UNL     1       8.775  -0.832   2.930  0.00  0.00    +0.009 C 
ATOM     37  C   UNL     1       8.390  -0.657   1.459  0.00  0.00    +0.012 C 
ATOM     38  C   UNL     1       8.708   0.773   1.016  0.00  0.00    +0.009 C 
ENDBRANCH  22  37
ENDBRANCH   1  22
TORSDOF 7
