REMARK  Name = ZINC16819087
REMARK  8 active torsions:
REMARK  status: ('A' for Active; 'I' for Inactive)
REMARK    1  A    between atoms: C_4  and  C_7
REMARK    2  A    between atoms: C_7  and  N_8
REMARK    3  A    between atoms: N_10  and  C_29
REMARK    4  A    between atoms: C_13  and  C_16
REMARK    5  A    between atoms: C_16  and  C_17
REMARK    6  A    between atoms: N_19  and  C_20
REMARK    7  A    between atoms: C_23  and  C_26
REMARK    8  A    between atoms: C_29  and  C_30
REMARK                            x       y       z     vdW  Elec       q    Type
REMARK                         _______ _______ _______ _____ _____    ______ ____
ROOT
ATOM      1  N   UNL     1       4.132  -0.956   1.323  0.00  0.00    -0.258 NA
ATOM      2  C   UNL     1       4.227  -2.174   1.776  0.00  0.00    +0.160 C 
ATOM      3  N   UNL     1       4.623  -2.589   3.032  0.00  0.00    -0.246 N 
ATOM      4  C   UNL     1       4.679  -3.865   3.371  0.00  0.00    +0.235 C 
ATOM      5  O   UNL     1       5.028  -4.223   4.476  0.00  0.00    -0.274 OA
ATOM      6  C   UNL     1       4.277  -4.856   2.291  0.00  0.00    +0.149 C 
ATOM      7  S   UNL     1       3.867  -3.700   0.919  0.00  0.00    -0.077 S 
ENDROOT
BRANCH   1   8
ATOM      8  C   UNL     1       3.681  -0.717  -0.050  0.00  0.00    +0.179 C 
BRANCH   8  12
ATOM      9  C   UNL     1      -0.054   1.354   0.013  0.00  0.00    +0.000 A 
ATOM     10  C   UNL     1       1.131   2.066  -0.005  0.00  0.00    +0.000 A 
ATOM     11  C   UNL     1       2.340   1.396  -0.025  0.00  0.00    +0.005 A 
ATOM     12  C   UNL     1       2.364   0.014  -0.027  0.00  0.00    -0.026 A 
ATOM     13  C   UNL     1       1.179  -0.698  -0.008  0.00  0.00    +0.005 A 
ATOM     14  C   UNL     1      -0.030  -0.028   0.011  0.00  0.00    +0.000 A 
ENDBRANCH   8  12
ENDBRANCH   1   8
BRANCH   6  15
ATOM     15  C   UNL     1       5.443  -5.775   1.920  0.00  0.00    +0.120 C 
BRANCH  15  16
ATOM     16  C   UNL     1       4.970  -6.816   0.939  0.00  0.00    +0.219 C 
ATOM     17  O   UNL     1       3.813  -6.824   0.573  0.00  0.00    -0.275 OA
ATOM     18  N   UNL     1       5.831  -7.740   0.469  0.00  0.00    -0.285 N 
ATOM     19  H   UNL     1       6.770  -7.695   0.709  0.00  0.00    +0.155 HD
BRANCH  18  20
ATOM     20  C   UNL     1       5.373  -8.760  -0.362  0.00  0.00    +0.033 A 
ATOM     21  C   UNL     1       4.356  -8.506  -1.278  0.00  0.00    +0.024 A 
ATOM     22  C   UNL     1       3.903  -9.507  -2.098  0.00  0.00    +0.017 A 
ATOM     23  C   UNL     1       4.464 -10.786  -2.013  0.00  0.00    +0.063 A 
ATOM     24  C   UNL     1       5.486 -11.038  -1.091  0.00  0.00    +0.017 A 
ATOM     25  C   UNL     1       5.938 -10.030  -0.278  0.00  0.00    +0.024 A 
BRANCH  23  26
ATOM     26  C   UNL     1       3.980 -11.864  -2.891  0.00  0.00    +0.387 C 
ATOM     27  O   UNL     1       3.086 -11.643  -3.696  0.00  0.00    -0.241 OA
ATOM     28  O   UNL     1       4.472 -12.982  -2.815  0.00  0.00    -0.241 OA
ENDBRANCH  23  26
ENDBRANCH  18  20
ENDBRANCH  15  16
ENDBRANCH   6  15
BRANCH   3  29
ATOM     29  C   UNL     1       4.997  -1.578   4.024  0.00  0.00    +0.150 C 
BRANCH  29  30
ATOM     30  C   UNL     1       3.777  -1.171   4.810  0.00  0.00    -0.030 A 
ATOM     31  C   UNL     1       2.990  -0.123   4.371  0.00  0.00    +0.005 A 
ATOM     32  C   UNL     1       1.871   0.250   5.093  0.00  0.00    +0.000 A 
ATOM     33  C   UNL     1       1.540  -0.425   6.253  0.00  0.00    +0.000 A 
ATOM     34  C   UNL     1       2.327  -1.473   6.691  0.00  0.00    +0.000 A 
ATOM     35  C   UNL     1       3.443  -1.849   5.968  0.00  0.00    +0.005 A 
ENDBRANCH  29  30
ENDBRANCH   3  29
TORSDOF 8
