REMARK  Name = ZINC39895375
REMARK  10 active torsions:
REMARK  status: ('A' for Active; 'I' for Inactive)
REMARK    1  A    between atoms: C_1  and  C_2
REMARK    2  A    between atoms: C_5  and  C_8
REMARK    3  A    between atoms: C_9  and  C_38
REMARK    4  A    between atoms: C_10  and  N_37
REMARK    5  A    between atoms: C_15  and  N_29
REMARK    6  A    between atoms: C_16  and  C_17
REMARK    7  A    between atoms: C_21  and  C_28
REMARK    8  A    between atoms: C_24  and  C_27
REMARK    9  A    between atoms: N_29  and  C_30
REMARK   10  A    between atoms: C_35  and  C_36
REMARK                            x       y       z     vdW  Elec       q    Type
REMARK                         _______ _______ _______ _____ _____    ______ ____
ROOT
ATOM      1  C   UNL     1       0.013  -4.251   0.088  0.00  0.00    +0.019 A 
ATOM      2  C   UNL     1      -1.060  -4.989  -0.463  0.00  0.00    +0.100 A 
ATOM      3  C   UNL     1      -0.940  -6.390  -0.507  0.00  0.00    +0.135 A 
ATOM      4  N   UNL     1       0.127  -7.008  -0.055  0.00  0.00    -0.230 NA
ATOM      5  C   UNL     1       1.182  -6.359   0.482  0.00  0.00    +0.095 A 
ATOM      6  C   UNL     1       1.117  -4.954   0.545  0.00  0.00    +0.049 A 
ATOM      7  S   UNL     1       2.654  -4.470   1.286  0.00  0.00    -0.071 S 
ATOM      8  C   UNL     1       3.385  -6.081   1.508  0.00  0.00    +0.085 A 
ATOM      9  C   UNL     1       2.414  -6.943   1.012  0.00  0.00    +0.091 A 
ENDROOT
BRANCH   9  10
ATOM     10  C   UNL     1       2.624  -8.389   1.007  0.00  0.00    +0.251 C 
ATOM     11  O   UNL     1       3.155  -8.924   0.051  0.00  0.00    -0.270 OA
ATOM     12  N   UNL     1       2.230  -9.131   2.061  0.00  0.00    -0.292 N 
ATOM     13  C   UNL     1       1.581  -8.508   3.226  0.00  0.00    +0.139 C 
ATOM     14  C   UNL     1       0.292  -9.281   3.532  0.00  0.00    +0.133 C 
ATOM     15  O   UNL     1       0.594 -10.674   3.643  0.00  0.00    -0.371 OA
ATOM     16  C   UNL     1       1.106 -11.259   2.443  0.00  0.00    +0.133 C 
ATOM     17  C   UNL     1       2.431 -10.589   2.079  0.00  0.00    +0.139 C 
ATOM     18  C   UNL     1       0.103 -11.055   1.306  0.00  0.00    +0.039 C 
ATOM     19  C   UNL     1      -0.303  -8.780   4.849  0.00  0.00    +0.039 C 
ENDBRANCH   9  10
BRANCH   1  24
ATOM     20  C   UNL     1      -0.186   1.494   0.402  0.00  0.00    +0.044 C 
ATOM     21  C   UNL     1      -0.134  -0.010   0.320  0.00  0.00    -0.050 A 
ATOM     22  C   UNL     1      -0.118  -0.632  -0.916  0.00  0.00    +0.004 A 
ATOM     23  C   UNL     1      -0.070  -2.009  -0.998  0.00  0.00    +0.009 A 
ATOM     24  C   UNL     1      -0.038  -2.773   0.169  0.00  0.00    -0.015 A 
ATOM     25  C   UNL     1      -0.054  -2.140   1.412  0.00  0.00    +0.009 A 
ATOM     26  C   UNL     1      -0.097  -0.762   1.480  0.00  0.00    +0.004 A 
ENDBRANCH   1  24
BRANCH   3  27
ATOM     27  N   UNL     1      -1.977  -7.139  -1.041  0.00  0.00    -0.342 N 
ATOM     28  H   UNL     1      -2.772  -6.696  -1.378  0.00  0.00    +0.144 HD
ATOM     29  H   UNL     1      -1.909  -8.106  -1.078  0.00  0.00    +0.144 HD
ENDBRANCH   3  27
BRANCH   8  30
ATOM     30  N   UNL     1       4.609  -6.395   2.049  0.00  0.00    -0.308 N 
ATOM     31  H   UNL     1       4.844  -7.322   2.212  0.00  0.00    +0.153 HD
BRANCH  30  32
ATOM     32  C   UNL     1       5.516  -5.379   2.364  0.00  0.00    +0.035 A 
ATOM     33  C   UNL     1       5.465  -4.166   1.688  0.00  0.00    +0.023 A 
ATOM     34  C   UNL     1       6.362  -3.164   2.001  0.00  0.00    +0.002 A 
ATOM     35  C   UNL     1       7.311  -3.367   2.987  0.00  0.00    +0.000 A 
ATOM     36  C   UNL     1       7.365  -4.573   3.661  0.00  0.00    +0.005 A 
ATOM     37  C   UNL     1       6.466  -5.577   3.357  0.00  0.00    -0.029 A 
ATOM     38  C   UNL     1       6.522  -6.889   4.097  0.00  0.00    +0.045 C 
ENDBRANCH  30  32
ENDBRANCH   8  30
BRANCH   2  39
ATOM     39  C   UNL     1      -2.231  -4.331  -0.960  0.00  0.00    +0.103 C 
ATOM     40  N   UNL     1      -3.159  -3.809  -1.354  0.00  0.00    -0.191 NA
ENDBRANCH   2  39
TORSDOF 6
