REMARK  Name = ZINC38654767
REMARK  10 active torsions:
REMARK  status: ('A' for Active; 'I' for Inactive)
REMARK    1  A    between atoms: C_2  and  C_3
REMARK    2  A    between atoms: C_3  and  O_4
REMARK    3  A    between atoms: O_4  and  C_5
REMARK    4  A    between atoms: C_8  and  C_11
REMARK    5  A    between atoms: C_11  and  O_13
REMARK    6  A    between atoms: O_13  and  C_14
REMARK    7  A    between atoms: C_21  and  N_36
REMARK    8  A    between atoms: C_22  and  C_34
REMARK    9  A    between atoms: C_23  and  C_25
REMARK   10  A    between atoms: C_28  and  N_31
REMARK                            x       y       z     vdW  Elec       q    Type
REMARK                         _______ _______ _______ _____ _____    ______ ____
ROOT
ATOM      1  C   UNL     1      -6.901  -6.830  -2.364  0.00  0.00    +0.135 A 
ATOM      2  C   UNL     1      -7.971  -6.435  -1.574  0.00  0.00    +0.047 A 
ATOM      3  C   UNL     1      -9.157  -7.140  -1.615  0.00  0.00    +0.012 A 
ATOM      4  C   UNL     1      -9.284  -8.243  -2.442  0.00  0.00    +0.008 A 
ATOM      5  C   UNL     1      -8.219  -8.642  -3.233  0.00  0.00    +0.138 A 
ATOM      6  C   UNL     1      -7.027  -7.930  -3.196  0.00  0.00    +0.093 A 
ATOM      7  O   UNL     1      -8.324  -9.719  -4.050  0.00  0.00    -0.441 OA
ATOM      8  C   UNL     1      -9.288 -10.631  -3.836  0.00  0.00    +0.199 C 
ATOM      9  C   UNL     1     -10.387 -10.352  -3.095  0.00  0.00    +0.098 C 
ATOM     10  C   UNL     1     -10.586  -8.998  -2.473  0.00  0.00    +0.098 C 
ENDROOT
BRANCH  10  11
ATOM     11  C   UNL     1     -11.596  -8.222  -3.278  0.00  0.00    -0.035 A 
ATOM     12  C   UNL     1     -11.347  -7.936  -4.608  0.00  0.00    +0.007 A 
ATOM     13  C   UNL     1     -12.273  -7.224  -5.347  0.00  0.00    +0.033 A 
ATOM     14  C   UNL     1     -13.447  -6.797  -4.757  0.00  0.00    +0.126 A 
ATOM     15  C   UNL     1     -13.697  -7.083  -3.427  0.00  0.00    +0.033 A 
ATOM     16  C   UNL     1     -12.773  -7.800  -2.689  0.00  0.00    +0.007 A 
BRANCH  14  17
ATOM     17  N   UNL     1     -14.438  -6.034  -5.548  0.00  0.00    +0.056 N 
ATOM     18  O   UNL     1     -14.220  -5.783  -6.710  0.00  0.00    -0.126 OA
ATOM     19  O   UNL     1     -15.466  -5.660  -5.031  0.00  0.00    -0.126 OA
ENDBRANCH  14  17
ENDBRANCH  10  11
BRANCH   8  20
ATOM     20  N   UNL     1      -9.155 -11.882  -4.384  0.00  0.00    -0.328 N 
ATOM     21  H   UNL     1      -8.373 -12.097  -4.917  0.00  0.00    +0.145 HD
ATOM     22  H   UNL     1      -9.842 -12.551  -4.239  0.00  0.00    +0.145 HD
ENDBRANCH   8  20
BRANCH   9  23
ATOM     23  C   UNL     1     -11.379 -11.366  -2.902  0.00  0.00    +0.101 C 
ATOM     24  N   UNL     1     -12.166 -12.171  -2.749  0.00  0.00    -0.191 NA
ENDBRANCH   9  23
BRANCH   1  25
ATOM     25  O   UNL     1      -5.733  -6.137  -2.324  0.00  0.00    -0.422 OA
BRANCH  25  26
ATOM     26  C   UNL     1      -5.464  -5.293  -3.340  0.00  0.00    +0.344 C 
ATOM     27  O   UNL     1      -6.210  -5.236  -4.297  0.00  0.00    -0.245 OA
BRANCH  26  31
ATOM     28  C   UNL     1      -2.007  -2.832  -3.195  0.00  0.00    +0.121 A 
ATOM     29  C   UNL     1      -2.860  -2.765  -4.291  0.00  0.00    +0.046 A 
ATOM     30  C   UNL     1      -3.982  -3.562  -4.342  0.00  0.00    +0.018 A 
ATOM     31  C   UNL     1      -4.263  -4.438  -3.290  0.00  0.00    +0.060 A 
ATOM     32  C   UNL     1      -3.403  -4.502  -2.190  0.00  0.00    +0.018 A 
ATOM     33  C   UNL     1      -2.280  -3.706  -2.150  0.00  0.00    +0.046 A 
BRANCH  28  34
ATOM     34  O   UNL     1      -0.903  -2.045  -3.149  0.00  0.00    -0.488 OA
BRANCH  34  35
ATOM     35  C   UNL     1      -0.683  -1.170  -4.257  0.00  0.00    +0.256 C 
BRANCH  35  37
ATOM     36  C   UNL     1       1.447  -0.238  -5.004  0.00  0.00    +0.007 C 
ATOM     37  C   UNL     1       0.581  -0.381  -4.031  0.00  0.00    +0.006 C 
ENDBRANCH  35  37
ENDBRANCH  34  35
ENDBRANCH  28  34
ENDBRANCH  26  31
ENDBRANCH  25  26
ENDBRANCH   1  25
TORSDOF 10
