REMARK  Name = ZINC09039600
REMARK  4 active torsions:
REMARK  status: ('A' for Active; 'I' for Inactive)
REMARK    1  A    between atoms: C_1  and  C_2
REMARK    2  A    between atoms: C_4  and  N_19
REMARK    3  A    between atoms: C_20  and  C_22
REMARK    4  A    between atoms: N_24  and  C_25
REMARK                            x       y       z     vdW  Elec       q    Type
REMARK                         _______ _______ _______ _____ _____    ______ ____
ROOT
ATOM      1  N   UNL     1       2.808   1.033  -6.114  0.00  0.00    -0.262 N 
ATOM      2  C   UNL     1       1.680   0.908  -5.387  0.00  0.00    +0.304 C 
ATOM      3  O   UNL     1       0.796   0.164  -5.761  0.00  0.00    -0.265 OA
ATOM      4  H   UNL     1       3.514   1.627  -5.815  0.00  0.00    +0.157 HD
ENDROOT
BRANCH   1   8
ATOM      5  C   UNL     1       1.933  -2.055  -9.931  0.00  0.00    +0.067 C 
ATOM      6  C   UNL     1       2.599  -1.063  -9.013  0.00  0.00    +0.062 A 
ATOM      7  C   UNL     1       2.055  -0.553  -7.829  0.00  0.00    +0.068 A 
ATOM      8  C   UNL     1       2.958   0.311  -7.292  0.00  0.00    +0.132 A 
ATOM      9  N   UNL     1       4.038   0.343  -8.128  0.00  0.00    -0.185 N 
ATOM     10  N   UNL     1       3.781  -0.532  -9.191  0.00  0.00    -0.167 NA
ATOM     11  C   UNL     1       5.181   1.102  -7.954  0.00  0.00    +0.234 A 
ATOM     12  N   UNL     1       6.178   1.029  -8.875  0.00  0.00    -0.291 N 
ATOM     13  H   UNL     1       6.087   0.452  -9.650  0.00  0.00    +0.172 HD
ATOM     14  C   UNL     1       7.294   1.765  -8.705  0.00  0.00    +0.256 A 
ATOM     15  O   UNL     1       8.199   1.715  -9.521  0.00  0.00    -0.267 OA
ATOM     16  C   UNL     1       7.402   2.596  -7.567  0.00  0.00    +0.038 A 
ATOM     17  C   UNL     1       6.372   2.633  -6.684  0.00  0.00    +0.053 A 
ATOM     18  N   UNL     1       5.284   1.884  -6.906  0.00  0.00    -0.217 NA
ATOM     19  C   UNL     1       6.389   3.498  -5.451  0.00  0.00    +0.056 C 
ATOM     20  C   UNL     1       7.816   3.930  -5.118  0.00  0.00    +0.006 C 
ATOM     21  C   UNL     1       8.449   4.523  -6.383  0.00  0.00    +0.005 C 
ATOM     22  C   UNL     1       8.665   3.393  -7.388  0.00  0.00    +0.042 C 
ENDBRANCH   1   8
BRANCH   2  23
ATOM     23  C   UNL     1       1.518   1.683  -4.121  0.00  0.00    +0.300 C 
ATOM     24  O   UNL     1       2.401   2.426  -3.747  0.00  0.00    -0.265 OA
ATOM     25  N   UNL     1       0.390   1.558  -3.393  0.00  0.00    -0.305 N 
ATOM     26  H   UNL     1      -0.316   0.964  -3.692  0.00  0.00    +0.149 HD
BRANCH  25  27
ATOM     27  C   UNL     1       0.231   2.318  -2.152  0.00  0.00    +0.073 C 
ATOM     28  C   UNL     1      -0.753   1.593  -1.232  0.00  0.00    +0.022 C 
ATOM     29  C   UNL     1      -0.013   1.086   0.008  0.00  0.00    +0.002 C 
ATOM     30  C   UNL     1      -0.729   1.579   1.267  0.00  0.00    +0.000 C 
ATOM     31  C   UNL     1       0.272   2.295   2.176  0.00  0.00    +0.000 C 
ATOM     32  C   UNL     1      -0.259   3.687   2.523  0.00  0.00    +0.000 C 
ATOM     33  C   UNL     1       0.801   4.737   2.184  0.00  0.00    -0.000 C 
ATOM     34  C   UNL     1       0.187   5.809   1.281  0.00  0.00    +0.000 C 
ATOM     35  C   UNL     1       1.045   5.970   0.024  0.00  0.00    +0.000 C 
ATOM     36  C   UNL     1       0.163   5.822  -1.218  0.00  0.00    +0.000 C 
ATOM     37  C   UNL     1       0.760   4.760  -2.144  0.00  0.00    +0.002 C 
ATOM     38  C   UNL     1      -0.307   3.714  -2.474  0.00  0.00    +0.022 C 
ENDBRANCH  25  27
ENDBRANCH   2  23
TORSDOF 3
