REMARK  Name = ZINC39660473
REMARK  8 active torsions:
REMARK  status: ('A' for Active; 'I' for Inactive)
REMARK    1  A    between atoms: C_1  and  C_2
REMARK    2  A    between atoms: C_2  and  C_3
REMARK    3  A    between atoms: C_3  and  C_4
REMARK    4  A    between atoms: C_4  and  C_5
REMARK    5  A    between atoms: C_5  and  C_6
REMARK    6  A    between atoms: C_6  and  N_7
REMARK    7  A    between atoms: C_8  and  C_10
REMARK    8  A    between atoms: C_21  and  C_23
REMARK                            x       y       z     vdW  Elec       q    Type
REMARK                         _______ _______ _______ _____ _____    ______ ____
ROOT
ATOM      1  C   UNL     1      -5.844  -6.480   0.023  0.00  0.00    +0.100 C 
ATOM      2  C   UNL     1      -6.524  -6.163   1.374  0.00  0.00    +0.121 C 
ATOM      3  N   UNL     1      -7.360  -7.353   1.660  0.00  0.00    -0.296 N 
ATOM      4  C   UNL     1      -6.529  -8.501   1.224  0.00  0.00    +0.115 C 
ATOM      5  C   UNL     1      -5.849  -8.015  -0.072  0.00  0.00    -0.004 C 
ATOM      6  C   UNL     1      -6.649  -8.466  -1.290  0.00  0.00    -0.010 C 
ATOM      7  C   UNL     1      -6.592  -9.993  -1.394  0.00  0.00    -0.082 C 
ATOM      8  N   UNL     1      -5.194 -10.425  -1.514  0.00  0.00    +0.379 N 
ATOM      9  C   UNL     1      -4.454 -10.068  -0.298  0.00  0.00    -0.082 C 
ATOM     10  C   UNL     1      -4.420  -8.545  -0.147  0.00  0.00    -0.010 C 
ATOM     11  C   UNL     1      -8.596  -7.384   2.196  0.00  0.00    +0.252 C 
ATOM     12  O   UNL     1      -9.156  -8.449   2.371  0.00  0.00    -0.270 OA
ATOM     13  H   UNL     1      -5.163 -11.425  -1.644  0.00  0.00    -0.086 HD
ATOM     14  H   UNL     1      -4.771  -9.972  -2.310  0.00  0.00    -0.086 HD
ENDROOT
BRANCH  11  15
ATOM     15  C   UNL     1      -9.270  -6.126   2.571  0.00  0.00    +0.108 A 
ATOM     16  C   UNL     1     -10.077  -5.458   1.645  0.00  0.00    +0.138 A 
ATOM     17  C   UNL     1     -10.705  -4.280   2.004  0.00  0.00    +0.041 A 
ATOM     18  C   UNL     1     -10.537  -3.761   3.275  0.00  0.00    +0.026 A 
ATOM     19  C   UNL     1      -9.740  -4.416   4.198  0.00  0.00    +0.077 A 
ATOM     20  C   UNL     1      -9.109  -5.599   3.856  0.00  0.00    +0.156 A 
ATOM     21  F   UNL     1      -8.336  -6.239   4.760  0.00  0.00    -0.203 F 
ATOM     22 CL   UNL     1      -9.537  -3.754   5.790  0.00  0.00    -0.081 Cl
ATOM     23  F   UNL     1     -10.242  -5.962   0.402  0.00  0.00    -0.205 F 
ENDBRANCH  11  15
BRANCH   1  25
ATOM     24  N   UNL     1      -3.854  -5.595  -1.151  0.00  0.00    -0.315 N 
ATOM     25  C   UNL     1      -4.430  -5.958   0.012  0.00  0.00    +0.218 C 
ATOM     26  O   UNL     1      -3.810  -5.865   1.051  0.00  0.00    -0.275 OA
ATOM     27  H   UNL     1      -4.350  -5.670  -1.981  0.00  0.00    +0.149 HD
BRANCH  24  28
ATOM     28  C   UNL     1      -2.480  -5.088  -1.161  0.00  0.00    +0.104 C 
BRANCH  28  29
ATOM     29  C   UNL     1      -2.071  -4.752  -2.597  0.00  0.00    +0.019 C 
BRANCH  29  30
ATOM     30  C   UNL     1      -0.636  -4.222  -2.608  0.00  0.00    +0.002 C 
BRANCH  30  31
ATOM     31  C   UNL     1      -0.227  -3.885  -4.043  0.00  0.00    -0.000 C 
BRANCH  31  33
ATOM     32  C   UNL     1       1.617  -3.019  -5.490  0.00  0.00    +0.004 C 
ATOM     33  C   UNL     1       1.208  -3.356  -4.054  0.00  0.00    -0.003 C 
ENDBRANCH  31  33
ENDBRANCH  30  31
ENDBRANCH  29  30
ENDBRANCH  28  29
ENDBRANCH  24  28
ENDBRANCH   1  25
TORSDOF 7
