REMARK  Name = ZINC09915711
REMARK  24 active torsions:
REMARK  status: ('A' for Active; 'I' for Inactive)
REMARK    1  A    between atoms: C_1  and  C_2
REMARK    2  A    between atoms: C_2  and  O_3
REMARK    3  A    between atoms: O_3  and  C_4
REMARK    4  A    between atoms: C_4  and  C_35
REMARK    5  A    between atoms: C_5  and  C_33
REMARK    6  A    between atoms: C_5  and  O_34
REMARK    7  A    between atoms: C_6  and  C_31
REMARK    8  A    between atoms: C_6  and  O_32
REMARK    9  A    between atoms: C_7  and  C_13
REMARK   10  A    between atoms: C_7  and  O_14
REMARK   11  A    between atoms: C_8  and  C_10
REMARK   12  A    between atoms: C_8  and  C_11
REMARK   13  A    between atoms: C_11  and  O_12
REMARK   14  A    between atoms: O_14  and  C_15
REMARK   15  A    between atoms: C_15  and  C_30
REMARK   16  A    between atoms: C_16  and  C_28
REMARK   17  A    between atoms: C_16  and  O_29
REMARK   18  A    between atoms: C_17  and  C_26
REMARK   19  A    between atoms: C_17  and  O_27
REMARK   20  A    between atoms: C_18  and  C_24
REMARK   21  A    between atoms: C_18  and  O_25
REMARK   22  A    between atoms: C_19  and  C_21
REMARK   23  A    between atoms: C_19  and  C_22
REMARK   24  A    between atoms: C_22  and  O_23
REMARK                            x       y       z     vdW  Elec       q    Type
REMARK                         _______ _______ _______ _____ _____    ______ ____
ROOT
ATOM      1  C   UNL     1      -6.799  -1.511   1.818  0.00  0.00    +0.199 C 
ATOM      2  C   UNL     1      -6.810  -1.756   0.311  0.00  0.00    +0.147 C 
ATOM      3  C   UNL     1      -6.592  -0.473  -0.479  0.00  0.00    +0.128 C 
ATOM      4  C   UNL     1      -5.429   0.354   0.047  0.00  0.00    +0.132 C 
ATOM      5  C   UNL     1      -5.359   0.442   1.567  0.00  0.00    +0.124 C 
ATOM      6  O   UNL     1      -5.636  -0.795   2.196  0.00  0.00    -0.335 OA
ATOM      7  C   UNL     1      -6.277   1.549   2.090  0.00  0.00    +0.047 C 
ATOM      8  C   UNL     1      -5.535   1.779  -0.524  0.00  0.00    +0.048 C 
ATOM      9  C   UNL     1      -7.878   0.355  -0.529  0.00  0.00    +0.047 C 
ATOM     10  C   UNL     1      -8.163  -2.366  -0.083  0.00  0.00    +0.050 C 
ATOM     11  C   UNL     1      -6.774  -2.880   2.526  0.00  0.00    +0.077 C 
ENDROOT
BRANCH   3  12
ATOM     12  O   UNL     1      -6.279  -0.849  -1.840  0.00  0.00    -0.383 OA
ATOM     13  H   UNL     1      -6.963  -1.383  -2.268  0.00  0.00    +0.210 HD
ENDBRANCH   3  12
BRANCH   2  14
ATOM     14  O   UNL     1      -5.778  -2.697  -0.017  0.00  0.00    -0.381 OA
ATOM     15  H   UNL     1      -5.654  -3.391   0.644  0.00  0.00    +0.211 HD
ENDBRANCH   2  14
BRANCH   1  16
ATOM     16  O   UNL     1      -7.986  -0.831   2.224  0.00  0.00    -0.346 OA
BRANCH  16  18
ATOM     17  C   UNL     1      -9.343   0.194   3.941  0.00  0.00    +0.034 C 
ATOM     18  C   UNL     1      -8.034  -0.531   3.621  0.00  0.00    +0.160 C 
ENDBRANCH  16  18
ENDBRANCH   1  16
BRANCH   5  19
ATOM     19  C   UNL     1      -3.911   0.840   1.941  0.00  0.00    +0.193 C 
BRANCH  19  20
ATOM     20  O   UNL     1      -3.771   0.844   3.363  0.00  0.00    -0.392 OA
ATOM     21  H   UNL     1      -2.910   1.158   3.672  0.00  0.00    +0.210 HD
ENDBRANCH  19  20
ENDBRANCH   5  19
BRANCH   4  22
ATOM     22  O   UNL     1      -4.199  -0.218  -0.434  0.00  0.00    -0.334 OA
BRANCH  22  23
ATOM     23  C   UNL     1      -4.265  -1.649  -0.667  0.00  0.00    +0.200 C 
ATOM     24  C   UNL     1      -3.030  -2.016  -1.483  0.00  0.00    +0.147 C 
ATOM     25  C   UNL     1      -3.143  -3.368  -2.172  0.00  0.00    +0.128 C 
ATOM     26  C   UNL     1      -4.479  -3.569  -2.870  0.00  0.00    +0.125 C 
ATOM     27  C   UNL     1      -5.683  -3.103  -2.065  0.00  0.00    +0.124 C 
ATOM     28  O   UNL     1      -5.461  -1.895  -1.373  0.00  0.00    -0.335 OA
ATOM     29  C   UNL     1      -6.162  -4.213  -1.124  0.00  0.00    +0.047 C 
ATOM     30  C   UNL     1      -4.650  -5.064  -3.192  0.00  0.00    +0.047 C 
ATOM     31  C   UNL     1      -2.844  -4.516  -1.208  0.00  0.00    +0.047 C 
ATOM     32  C   UNL     1      -1.809  -2.033  -0.548  0.00  0.00    +0.050 C 
ATOM     33  C   UNL     1      -4.248  -2.314   0.707  0.00  0.00    +0.077 C 
BRANCH  26  34
ATOM     34  O   UNL     1      -4.460  -2.855  -4.120  0.00  0.00    -0.383 OA
ATOM     35  H   UNL     1      -5.248  -2.993  -4.663  0.00  0.00    +0.210 HD
ENDBRANCH  26  34
BRANCH  25  36
ATOM     36  O   UNL     1      -2.116  -3.409  -3.196  0.00  0.00    -0.383 OA
ATOM     37  H   UNL     1      -1.217  -3.313  -2.855  0.00  0.00    +0.210 HD
ENDBRANCH  25  36
BRANCH  24  38
ATOM     38  O   UNL     1      -2.813  -1.000  -2.475  0.00  0.00    -0.381 OA
ATOM     39  H   UNL     1      -2.669  -0.117  -2.109  0.00  0.00    +0.211 HD
ENDBRANCH  24  38
BRANCH  27  40
ATOM     40  C   UNL     1      -6.834  -2.851  -3.072  0.00  0.00    +0.193 C 
BRANCH  40  41
ATOM     41  O   UNL     1      -8.090  -3.030  -2.415  0.00  0.00    -0.392 OA
ATOM     42  H   UNL     1      -8.855  -2.964  -3.003  0.00  0.00    +0.210 HD
ENDBRANCH  40  41
ENDBRANCH  27  40
ENDBRANCH  22  23
ENDBRANCH   4  22
TORSDOF 13
