REMARK  Name = ZINC33033263
REMARK  15 active torsions:
REMARK  status: ('A' for Active; 'I' for Inactive)
REMARK    1  A    between atoms: C_1  and  C_2
REMARK    2  A    between atoms: C_2  and  C_3
REMARK    3  A    between atoms: C_3  and  C_4
REMARK    4  A    between atoms: C_4  and  N_5
REMARK    5  A    between atoms: N_5  and  C_6
REMARK    6  A    between atoms: C_6  and  C_7
REMARK    7  A    between atoms: C_8  and  C_10
REMARK    8  A    between atoms: C_13  and  N_30
REMARK    9  A    between atoms: C_14  and  N_16
REMARK   10  A    between atoms: N_16  and  S_17
REMARK   11  A    between atoms: S_17  and  C_20
REMARK   12  A    between atoms: C_23  and  O_28
REMARK   13  A    between atoms: C_24  and  O_26
REMARK   14  A    between atoms: O_26  and  C_27
REMARK   15  A    between atoms: O_28  and  C_29
REMARK                            x       y       z     vdW  Elec       q    Type
REMARK                         _______ _______ _______ _____ _____    ______ ____
ROOT
ATOM      1  C   UNL     1      -0.186   5.051   2.841  0.00  0.00    +0.039 A 
ATOM      2  C   UNL     1      -0.155   4.480   4.116  0.00  0.00    +0.015 A 
ATOM      3  C   UNL     1      -0.975   3.413   4.413  0.00  0.00    +0.026 A 
ATOM      4  C   UNL     1      -1.834   2.903   3.448  0.00  0.00    +0.052 A 
ATOM      5  C   UNL     1      -1.870   3.469   2.171  0.00  0.00    +0.070 A 
ATOM      6  C   UNL     1      -1.045   4.535   1.866  0.00  0.00    +0.039 A 
ENDROOT
BRANCH   4   7
ATOM      7  N   UNL     1      -2.662   1.824   3.754  0.00  0.00    -0.332 N 
ATOM      8  C   UNL     1      -2.297   1.231   5.048  0.00  0.00    +0.086 C 
ATOM      9  C   UNL     1      -3.175   0.005   5.310  0.00  0.00    -0.063 C 
ATOM     10  N   UNL     1      -4.589   0.406   5.297  0.00  0.00    +0.381 N 
ATOM     11  C   UNL     1      -4.953   0.999   4.002  0.00  0.00    -0.063 C 
ATOM     12  C   UNL     1      -4.076   2.225   3.741  0.00  0.00    +0.086 C 
ATOM     13  H   UNL     1      -5.222  -0.477   5.473  0.00  0.00    -0.086 HD
ATOM     14  H   UNL     1      -4.767   1.148   6.089  0.00  0.00    -0.086 HD
ENDBRANCH   4   7
BRANCH   1  16
ATOM     15  N   UNL     1       0.735   7.260   3.344  0.00  0.00    -0.298 N 
ATOM     16  C   UNL     1       0.692   6.193   2.522  0.00  0.00    +0.247 C 
ATOM     17  O   UNL     1       1.377   6.172   1.517  0.00  0.00    -0.270 OA
BRANCH  15  18
ATOM     18  C   UNL     1       0.014   7.232   4.619  0.00  0.00    +0.104 C 
ATOM     19  C   UNL     1       0.984   6.869   5.745  0.00  0.00    +0.024 C 
ENDBRANCH  15  18
BRANCH  15  20
ATOM     20  C   UNL     1       1.502   8.448   2.963  0.00  0.00    +0.108 C 
BRANCH  20  21
ATOM     21  C   UNL     1       0.602   9.408   2.182  0.00  0.00    +0.019 C 
BRANCH  21  23
ATOM     22  C   UNL     1       0.504  11.609   1.003  0.00  0.00    +0.004 C 
ATOM     23  C   UNL     1       1.404  10.649   1.784  0.00  0.00    -0.002 C 
ENDBRANCH  21  23
ENDBRANCH  20  21
ENDBRANCH  15  20
ENDBRANCH   1  16
BRANCH   5  24
ATOM     24  N   UNL     1      -2.736   2.953   1.199  0.00  0.00    -0.214 N 
ATOM     25  H   UNL     1      -3.786   3.280   1.169  0.00  0.00    +0.174 HD
BRANCH  24  26
ATOM     26  S   UNL     1      -2.181   1.850   0.096  0.00  0.00    +0.073 S 
ATOM     27  O   UNL     1      -0.986   2.391  -0.452  0.00  0.00    -0.150 OA
ATOM     28  O   UNL     1      -3.293   1.487  -0.710  0.00  0.00    -0.150 OA
BRANCH  26  29
ATOM     29  C   UNL     1      -1.715   0.406   0.992  0.00  0.00    +0.112 A 
ATOM     30  C   UNL     1      -0.421   0.274   1.462  0.00  0.00    +0.032 A 
ATOM     31  C   UNL     1      -0.049  -0.860   2.160  0.00  0.00    +0.051 A 
ATOM     32  C   UNL     1      -0.974  -1.866   2.391  0.00  0.00    +0.162 A 
ATOM     33  C   UNL     1      -2.276  -1.732   1.918  0.00  0.00    +0.163 A 
ATOM     34  C   UNL     1      -2.642  -0.594   1.219  0.00  0.00    +0.078 A 
BRANCH  33  35
ATOM     35  O   UNL     1      -3.187  -2.717   2.143  0.00  0.00    -0.491 OA
ATOM     36  C   UNL     1      -4.504  -2.511   1.628  0.00  0.00    +0.277 C 
ENDBRANCH  33  35
BRANCH  32  37
ATOM     37  O   UNL     1      -0.609  -2.982   3.078  0.00  0.00    -0.491 OA
ATOM     38  C   UNL     1       0.743  -3.051   3.533  0.00  0.00    +0.277 C 
ENDBRANCH  32  37
ENDBRANCH  26  29
ENDBRANCH  24  26
ENDBRANCH   5  24
TORSDOF 11
