REMARK  Name = ZINC16689488
REMARK  9 active torsions:
REMARK  status: ('A' for Active; 'I' for Inactive)
REMARK    1  A    between atoms: C_1  and  C_2
REMARK    2  A    between atoms: C_2  and  C_3
REMARK    3  A    between atoms: C_8  and  N_9
REMARK    4  A    between atoms: N_9  and  S_10
REMARK    5  A    between atoms: S_10  and  C_13
REMARK    6  A    between atoms: C_16  and  N_20
REMARK    7  A    between atoms: C_18  and  C_19
REMARK    8  A    between atoms: C_23  and  C_28
REMARK    9  A    between atoms: C_23  and  C_29
REMARK                            x       y       z     vdW  Elec       q    Type
REMARK                         _______ _______ _______ _____ _____    ______ ____
ROOT
ATOM      1  C   UNL     1      -3.325   1.938  -2.385  0.00  0.00    +0.111 A 
ATOM      2  C   UNL     1      -4.071   1.196  -3.282  0.00  0.00    +0.031 A 
ATOM      3  C   UNL     1      -3.679   1.109  -4.603  0.00  0.00    +0.027 A 
ATOM      4  C   UNL     1      -2.527   1.760  -5.028  0.00  0.00    +0.060 A 
ATOM      5  C   UNL     1      -1.777   2.500  -4.124  0.00  0.00    +0.030 A 
ATOM      6  C   UNL     1      -2.178   2.587  -2.805  0.00  0.00    -0.022 A 
ATOM      7  C   UNL     1      -1.365   3.390  -1.822  0.00  0.00    +0.046 C 
ENDROOT
BRANCH   4   8
ATOM      8  N   UNL     1      -2.124   1.670  -6.365  0.00  0.00    -0.143 N 
ATOM      9  C   UNL     1      -1.372   2.563  -7.024  0.00  0.00    +0.246 C 
ATOM     10  O   UNL     1      -0.944   3.549  -6.462  0.00  0.00    -0.273 OA
ATOM     11  C   UNL     1      -1.068   2.314  -8.471  0.00  0.00    +0.064 C 
ATOM     12  C   UNL     1      -1.315   0.814  -8.780  0.00  0.00    +0.205 C 
ATOM     13  S   UNL     1      -2.502   0.431  -7.427  0.00  0.00    +0.053 S 
ATOM     14  O   UNL     1      -2.140  -0.770  -6.760  0.00  0.00    -0.155 OA
ATOM     15  O   UNL     1      -3.839   0.674  -7.841  0.00  0.00    -0.155 OA
ATOM     16  C   UNL     1       0.393   2.665  -8.761  0.00  0.00    +0.022 C 
ATOM     17  C   UNL     1      -1.987   3.177  -9.338  0.00  0.00    +0.022 C 
ENDBRANCH   4   8
BRANCH   1  18
ATOM     18  S   UNL     1      -3.832   2.050  -0.701  0.00  0.00    +0.073 S 
ATOM     19  O   UNL     1      -2.671   1.833   0.088  0.00  0.00    -0.150 OA
ATOM     20  O   UNL     1      -5.000   1.251  -0.574  0.00  0.00    -0.150 OA
BRANCH  18  21
ATOM     21  N   UNL     1      -4.299   3.616  -0.434  0.00  0.00    -0.216 N 
ATOM     22  H   UNL     1      -3.825   4.160   0.214  0.00  0.00    +0.174 HD
BRANCH  21  28
ATOM     23  C   UNL     1      -5.364   5.492  -1.517  0.00  0.00    -0.025 A 
ATOM     24  C   UNL     1      -6.429   6.019  -2.222  0.00  0.00    +0.005 A 
ATOM     25  C   UNL     1      -7.507   5.218  -2.551  0.00  0.00    +0.000 A 
ATOM     26  C   UNL     1      -7.524   3.888  -2.176  0.00  0.00    +0.002 A 
ATOM     27  C   UNL     1      -6.463   3.354  -1.470  0.00  0.00    +0.025 A 
ATOM     28  C   UNL     1      -5.376   4.154  -1.143  0.00  0.00    +0.051 A 
BRANCH  23  30
ATOM     29  C   UNL     1      -3.095   6.205  -2.217  0.00  0.00    +0.009 C 
ATOM     30  C   UNL     1      -4.189   6.365  -1.160  0.00  0.00    +0.033 C 
ENDBRANCH  23  30
ENDBRANCH  21  28
ENDBRANCH  18  21
ENDBRANCH   1  18
TORSDOF 5
