REMARK  Name = ZINC58372406
REMARK  11 active torsions:
REMARK  status: ('A' for Active; 'I' for Inactive)
REMARK    1  A    between atoms: C_1  and  C_2
REMARK    2  A    between atoms: C_2  and  N_3
REMARK    3  A    between atoms: N_3  and  C_4
REMARK    4  A    between atoms: N_3  and  C_6
REMARK    5  A    between atoms: C_4  and  C_5
REMARK    6  A    between atoms: C_6  and  C_8
REMARK    7  A    between atoms: C_6  and  C_29
REMARK    8  A    between atoms: C_8  and  N_9
REMARK    9  A    between atoms: C_10  and  C_12
REMARK   10  A    between atoms: C_12  and  N_13
REMARK   11  A    between atoms: C_17  and  C_19
REMARK                            x       y       z     vdW  Elec       q    Type
REMARK                         _______ _______ _______ _____ _____    ______ ____
ROOT
ATOM      1  N   UNL     1      -1.279  -1.527   0.315  0.00  0.00    -0.318 N 
ATOM      2  C   UNL     1      -2.532  -1.679   0.788  0.00  0.00    +0.196 C 
ATOM      3  O   UNL     1      -3.279  -2.488   0.279  0.00  0.00    -0.278 OA
ATOM      4  H   UNL     1      -0.682  -0.880   0.722  0.00  0.00    +0.149 HD
ENDROOT
BRANCH   1   5
ATOM      5  C   UNL     1      -0.819  -2.340  -0.814  0.00  0.00    +0.096 C 
BRANCH   5   6
ATOM      6  C   UNL     1       0.660  -2.053  -1.079  0.00  0.00    +0.016 C 
BRANCH   6   7
ATOM      7  C   UNL     1       1.100  -2.789  -2.318  0.00  0.00    +0.093 A 
ATOM      8  C   UNL     1       1.789  -3.944  -2.344  0.00  0.00    +0.043 A 
ATOM      9  C   UNL     1       1.987  -4.273  -3.705  0.00  0.00    +0.041 A 
ATOM     10  C   UNL     1       1.406  -3.299  -4.429  0.00  0.00    +0.195 A 
ATOM     11  O   UNL     1       0.866  -2.406  -3.584  0.00  0.00    -0.469 OA
ENDBRANCH   6   7
BRANCH   6  12
ATOM     12  N   UNL     1       0.852  -0.609  -1.273  0.00  0.00    +0.387 N 
ATOM     13  H   UNL     1       0.626  -0.122  -0.419  0.00  0.00    -0.081 HD
BRANCH  12  15
ATOM     14  C   UNL     1       3.155  -0.681  -0.444  0.00  0.00    -0.017 C 
ATOM     15  C   UNL     1       2.252  -0.345  -1.632  0.00  0.00    -0.081 C 
ENDBRANCH  12  15
BRANCH  12  16
ATOM     16  C   UNL     1      -0.028  -0.139  -2.352  0.00  0.00    -0.081 C 
ATOM     17  C   UNL     1       0.051   1.386  -2.446  0.00  0.00    -0.017 C 
ENDBRANCH  12  16
ENDBRANCH   6  12
ENDBRANCH   5   6
ENDBRANCH   1   5
BRANCH   2  18
ATOM     18  C   UNL     1      -3.006  -0.843   1.949  0.00  0.00    +0.019 C 
BRANCH  18  19
ATOM     19  N   UNL     1      -4.395  -1.195   2.272  0.00  0.00    +0.390 N 
ATOM     20  C   UNL     1      -4.453  -2.587   2.768  0.00  0.00    -0.077 C 
ATOM     21  C   UNL     1      -4.417  -2.458   4.311  0.00  0.00    -0.020 C 
ATOM     22  C   UNL     1      -5.267  -1.180   4.540  0.00  0.00    -0.013 C 
ATOM     23  C   UNL     1      -4.902  -0.299   3.327  0.00  0.00    -0.037 C 
ATOM     24  H   UNL     1      -4.968  -1.107   1.446  0.00  0.00    -0.080 HD
BRANCH  23  25
ATOM     25  C   UNL     1      -6.126   0.430   2.836  0.00  0.00    -0.057 A 
ATOM     26  C   UNL     1      -7.069  -0.238   2.077  0.00  0.00    +0.006 A 
ATOM     27  C   UNL     1      -8.192   0.427   1.624  0.00  0.00    +0.049 A 
ATOM     28  C   UNL     1      -8.376   1.768   1.929  0.00  0.00    +0.162 A 
ATOM     29  C   UNL     1      -7.430   2.439   2.694  0.00  0.00    +0.162 A 
ATOM     30  C   UNL     1      -6.306   1.764   3.149  0.00  0.00    +0.051 A 
ATOM     31  O   UNL     1      -7.595   3.752   3.011  0.00  0.00    -0.485 OA
ATOM     32  C   UNL     1      -8.544   4.488   2.232  0.00  0.00    +0.270 C 
ATOM     33  C   UNL     1      -9.822   3.647   2.112  0.00  0.00    +0.270 C 
ATOM     34  O   UNL     1      -9.486   2.411   1.472  0.00  0.00    -0.485 OA
ENDBRANCH  23  25
ENDBRANCH  18  19
ENDBRANCH   2  18
TORSDOF 9
