REMARK  Name = ZINC66584011
REMARK  7 active torsions:
REMARK  status: ('A' for Active; 'I' for Inactive)
REMARK    1  A    between atoms: C_1  and  C_2
REMARK    2  A    between atoms: C_2  and  C_3
REMARK    3  A    between atoms: C_2  and  N_4
REMARK    4  A    between atoms: N_7  and  N_8
REMARK    5  A    between atoms: N_8  and  S_9
REMARK    6  A    between atoms: S_9  and  C_12
REMARK    7  A    between atoms: C_13  and  C_14
REMARK                            x       y       z     vdW  Elec       q    Type
REMARK                         _______ _______ _______ _____ _____    ______ ____
ROOT
ATOM      1  S   UNL     1      -5.274  -1.073  -0.869  0.00  0.00    +0.067 S 
ATOM      2  O   UNL     1      -6.189  -0.393  -0.022  0.00  0.00    -0.152 OA
ATOM      3  O   UNL     1      -4.796  -0.510  -2.083  0.00  0.00    -0.152 OA
ENDROOT
BRANCH   1   4
ATOM      4  N   UNL     1      -3.940  -1.414   0.052  0.00  0.00    -0.107 NA
ATOM      5  H   UNL     1      -3.874  -1.069   0.956  0.00  0.00    +0.172 HD
BRANCH   4   9
ATOM      6  N   UNL     1      -1.372  -0.511   0.012  0.00  0.00    -0.296 N 
ATOM      7  C   UNL     1      -1.643  -1.734  -0.485  0.00  0.00    +0.315 C 
ATOM      8  O   UNL     1      -0.747  -2.417  -0.942  0.00  0.00    -0.251 OA
ATOM      9  N   UNL     1      -2.908  -2.201  -0.475  0.00  0.00    -0.216 N 
ATOM     10  H   UNL     1      -2.087   0.033   0.377  0.00  0.00    +0.151 HD
ATOM     11  H   UNL     1      -3.103  -3.081  -0.833  0.00  0.00    +0.172 HD
BRANCH   6  13
ATOM     12  C   UNL     1      -0.019   1.526   0.010  0.00  0.00    +0.027 C 
ATOM     13  C   UNL     1       0.002  -0.004   0.002  0.00  0.00    +0.068 C 
ATOM     14  C   UNL     1       0.742  -0.511   1.242  0.00  0.00    +0.027 C 
ENDBRANCH   6  13
ENDBRANCH   4   9
ENDBRANCH   1   4
BRANCH   1  15
ATOM     15  C   UNL     1      -6.024  -2.611  -1.290  0.00  0.00    +0.155 C 
ATOM     16  C   UNL     1      -7.233  -2.906  -0.833  0.00  0.00    +0.028 C 
BRANCH  16  17
ATOM     17  C   UNL     1      -7.862  -4.196  -1.186  0.00  0.00    -0.023 A 
ATOM     18  C   UNL     1      -7.184  -5.109  -1.994  0.00  0.00    +0.008 A 
ATOM     19  C   UNL     1      -7.776  -6.311  -2.320  0.00  0.00    +0.002 A 
ATOM     20  C   UNL     1      -9.040  -6.614  -1.847  0.00  0.00    +0.015 A 
ATOM     21  C   UNL     1      -9.720  -5.713  -1.045  0.00  0.00    +0.018 A 
ATOM     22  C   UNL     1      -9.135  -4.508  -0.707  0.00  0.00    +0.023 A 
ATOM     23 BR   UNL     1     -11.448  -6.136  -0.405  0.00  0.00    -0.050 Br
ENDBRANCH  16  17
ENDBRANCH   1  15
TORSDOF 5
