REMARK  Name = ZINC44264891
REMARK  8 active torsions:
REMARK  status: ('A' for Active; 'I' for Inactive)
REMARK    1  A    between atoms: C_1  and  C_2
REMARK    2  A    between atoms: C_5  and  C_9
REMARK    3  A    between atoms: C_7  and  C_8
REMARK    4  A    between atoms: C_9  and  C_11
REMARK    5  A    between atoms: C_9  and  O_28
REMARK    6  A    between atoms: C_11  and  N_12
REMARK    7  A    between atoms: C_15  and  C_19
REMARK    8  A    between atoms: C_15  and  C_20
REMARK                            x       y       z     vdW  Elec       q    Type
REMARK                         _______ _______ _______ _____ _____    ______ ____
ROOT
ATOM      1  N   UNL     1       1.521  -6.231  -0.166  0.00  0.00    -0.221 N 
ATOM      2  C   UNL     1       1.629  -6.993   0.941  0.00  0.00    +0.251 C 
ATOM      3  O   UNL     1       1.725  -6.610   2.087  0.00  0.00    -0.272 OA
ATOM      4  C   UNL     1       1.604  -8.428   0.454  0.00  0.00    +0.135 C 
ATOM      5  N   UNL     1       1.473  -8.296  -1.008  0.00  0.00    -0.281 N 
ATOM      6  C   UNL     1       1.428  -6.978  -1.272  0.00  0.00    +0.310 C 
ATOM      7  O   UNL     1       1.318  -6.517  -2.391  0.00  0.00    -0.252 OA
ATOM      8  C   UNL     1       2.909  -9.141   0.815  0.00  0.00    +0.047 C 
ATOM      9  H   UNL     1       1.426  -9.018  -1.653  0.00  0.00    +0.152 HD
ENDROOT
BRANCH   4  10
ATOM     10  C   UNL     1       0.420  -9.162   1.028  0.00  0.00    -0.013 A 
ATOM     11  C   UNL     1      -0.083  -8.801   2.264  0.00  0.00    +0.009 A 
ATOM     12  C   UNL     1      -1.169  -9.473   2.793  0.00  0.00    +0.041 A 
ATOM     13  C   UNL     1      -1.754 -10.509   2.085  0.00  0.00    +0.158 A 
ATOM     14  C   UNL     1      -1.249 -10.871   0.845  0.00  0.00    +0.159 A 
ATOM     15  C   UNL     1      -0.165 -10.193   0.316  0.00  0.00    +0.047 A 
ATOM     16  F   UNL     1      -1.818 -11.881   0.152  0.00  0.00    -0.202 F 
ATOM     17  F   UNL     1      -2.815 -11.166   2.601  0.00  0.00    -0.202 F 
ENDBRANCH   4  10
BRANCH   1  18
ATOM     18  C   UNL     1       1.502  -4.766  -0.158  0.00  0.00    +0.154 C 
BRANCH  18  19
ATOM     19  C   UNL     1       0.059  -4.275  -0.021  0.00  0.00    +0.162 C 
BRANCH  19  24
ATOM     20  C   UNL     1      -0.018   1.503   0.010  0.00  0.00    +0.044 C 
ATOM     21  C   UNL     1       0.002  -0.004   0.002  0.00  0.00    -0.048 A 
ATOM     22  C   UNL     1       0.006  -0.689  -1.199  0.00  0.00    +0.004 A 
ATOM     23  C   UNL     1       0.025  -2.071  -1.207  0.00  0.00    +0.006 A 
ATOM     24  C   UNL     1       0.040  -2.768  -0.013  0.00  0.00    -0.017 A 
ATOM     25  C   UNL     1       0.037  -2.084   1.188  0.00  0.00    +0.009 A 
ATOM     26  C   UNL     1       0.023  -0.702   1.195  0.00  0.00    -0.047 A 
ATOM     27  C   UNL     1       0.025   0.045   2.504  0.00  0.00    +0.044 C 
ENDBRANCH  19  24
BRANCH  19  28
ATOM     28  O   UNL     1      -0.713  -4.756  -1.123  0.00  0.00    -0.386 OA
ATOM     29  H   UNL     1      -0.392  -4.461  -1.987  0.00  0.00    +0.210 HD
ENDBRANCH  19  28
ENDBRANCH  18  19
ENDBRANCH   1  18
TORSDOF 5
