REMARK  Name = ZINC36660284
REMARK  13 active torsions:
REMARK  status: ('A' for Active; 'I' for Inactive)
REMARK    1  A    between atoms: C_1  and  C_2
REMARK    2  A    between atoms: C_2  and  C_3
REMARK    3  A    between atoms: N_12  and  C_13
REMARK    4  A    between atoms: C_13  and  C_14
REMARK    5  A    between atoms: C_14  and  N_15
REMARK    6  A    between atoms: N_15  and  C_16
REMARK    7  A    between atoms: N_15  and  C_18
REMARK    8  A    between atoms: C_16  and  C_17
REMARK    9  A    between atoms: C_18  and  C_19
REMARK   10  A    between atoms: C_20  and  C_22
REMARK   11  A    between atoms: N_27  and  S_28
REMARK   12  A    between atoms: S_28  and  C_31
REMARK   13  A    between atoms: C_34  and  C_37
REMARK                            x       y       z     vdW  Elec       q    Type
REMARK                         _______ _______ _______ _____ _____    ______ ____
ROOT
ATOM      1  C   UNL     1      -2.430  -2.357  -0.065  0.00  0.00    -0.021 A 
ATOM      2  C   UNL     1      -2.940  -2.671   1.168  0.00  0.00    +0.006 A 
ATOM      3  C   UNL     1      -4.298  -2.874   1.361  0.00  0.00    +0.001 A 
ATOM      4  C   UNL     1      -5.160  -2.758   0.285  0.00  0.00    +0.017 A 
ATOM      5  C   UNL     1      -4.659  -2.444  -0.954  0.00  0.00    +0.041 A 
ATOM      6  C   UNL     1      -3.281  -2.224  -1.186  0.00  0.00    +0.083 A 
ATOM      7  N   UNL     1      -2.944  -1.918  -2.458  0.00  0.00    -0.224 NA
ATOM      8  C   UNL     1      -3.832  -1.824  -3.420  0.00  0.00    +0.168 A 
ATOM      9  S   UNL     1      -5.359  -2.198  -2.568  0.00  0.00    -0.052 S 
ATOM     10  N   UNL     1      -3.636  -1.520  -4.757  0.00  0.00    -0.251 N 
ATOM     11  C   UNL     1      -2.385  -1.398  -5.243  0.00  0.00    +0.240 C 
ATOM     12  O   UNL     1      -2.212  -1.033  -6.387  0.00  0.00    -0.273 OA
ENDROOT
BRANCH  11  13
ATOM     13  C   UNL     1      -1.201  -1.714  -4.366  0.00  0.00    +0.166 C 
ATOM     14  C   UNL     1      -0.750  -0.443  -3.615  0.00  0.00    +0.031 C 
ATOM     15  C   UNL     1       0.797  -0.563  -3.627  0.00  0.00    +0.019 C 
ATOM     16  C   UNL     1       1.047  -1.211  -5.012  0.00  0.00    +0.110 C 
ATOM     17  N   UNL     1      -0.070  -2.160  -5.193  0.00  0.00    -0.165 NA
BRANCH  17  18
ATOM     18  S   UNL     1      -0.055  -3.501  -6.164  0.00  0.00    +0.062 S 
ATOM     19  O   UNL     1       1.291  -3.954  -6.210  0.00  0.00    -0.153 OA
ATOM     20  O   UNL     1      -1.124  -4.330  -5.729  0.00  0.00    -0.153 OA
BRANCH  18  21
ATOM     21  C   UNL     1      -0.463  -2.969  -7.794  0.00  0.00    +0.106 A 
ATOM     22  C   UNL     1      -1.769  -3.048  -8.240  0.00  0.00    +0.029 A 
ATOM     23  C   UNL     1      -2.089  -2.630  -9.519  0.00  0.00    +0.005 A 
ATOM     24  C   UNL     1      -1.103  -2.134 -10.351  0.00  0.00    -0.050 A 
ATOM     25  C   UNL     1       0.203  -2.054  -9.904  0.00  0.00    +0.005 A 
ATOM     26  C   UNL     1       0.522  -2.468  -8.624  0.00  0.00    +0.029 A 
ATOM     27  C   UNL     1      -1.451  -1.680 -11.745  0.00  0.00    +0.044 C 
ENDBRANCH  18  21
ENDBRANCH  17  18
ENDBRANCH  11  13
BRANCH   1  29
ATOM     28  C   UNL     1      -0.622  -0.660  -0.050  0.00  0.00    +0.009 C 
ATOM     29  C   UNL     1      -0.947  -2.144  -0.226  0.00  0.00    +0.034 C 
ENDBRANCH   1  29
BRANCH  10  30
ATOM     30  C   UNL     1      -4.787  -1.333  -5.643  0.00  0.00    +0.097 C 
BRANCH  30  31
ATOM     31  C   UNL     1      -5.274   0.115  -5.547  0.00  0.00    -0.059 C 
BRANCH  31  32
ATOM     32  N   UNL     1      -6.474   0.284  -6.377  0.00  0.00    +0.380 N 
ATOM     33  H   UNL     1      -6.283  -0.036  -7.314  0.00  0.00    -0.082 HD
BRANCH  32  34
ATOM     34  C   UNL     1      -7.578  -0.500  -5.807  0.00  0.00    -0.082 C 
ATOM     35  C   UNL     1      -8.790  -0.425  -6.737  0.00  0.00    -0.017 C 
ENDBRANCH  32  34
BRANCH  32  36
ATOM     36  C   UNL     1      -6.849   1.704  -6.412  0.00  0.00    -0.082 C 
ATOM     37  C   UNL     1      -5.769   2.499  -7.147  0.00  0.00    -0.017 C 
ENDBRANCH  32  36
ENDBRANCH  31  32
ENDBRANCH  30  31
ENDBRANCH  10  30
TORSDOF 9
