REMARK  Name = ZINC19986259
REMARK  5 active torsions:
REMARK  status: ('A' for Active; 'I' for Inactive)
REMARK    1  A    between atoms: C_1  and  C_2
REMARK    2  A    between atoms: C_5  and  S_9
REMARK    3  A    between atoms: C_7  and  N_8
REMARK    4  A    between atoms: S_9  and  N_12
REMARK    5  A    between atoms: N_12  and  C_13
REMARK                            x       y       z     vdW  Elec       q    Type
REMARK                         _______ _______ _______ _____ _____    ______ ____
ROOT
ATOM      1  S   UNL     1      -1.611   2.329  -0.003  0.00  0.00    +0.092 S 
ATOM      2  O   UNL     1      -1.432   3.651  -0.493  0.00  0.00    -0.148 OA
ATOM      3  O   UNL     1      -2.563   1.433  -0.559  0.00  0.00    -0.148 OA
ENDROOT
BRANCH   1   8
ATOM      4  C   UNL     1       3.768  -0.385  -0.411  0.00  0.00    +0.045 C 
ATOM      5  C   UNL     1       2.425   0.290  -0.307  0.00  0.00    -0.030 A 
ATOM      6  C   UNL     1       2.347   1.667  -0.230  0.00  0.00    +0.007 A 
ATOM      7  C   UNL     1       1.115   2.288  -0.135  0.00  0.00    +0.029 A 
ATOM      8  C   UNL     1      -0.043   1.533  -0.117  0.00  0.00    +0.112 A 
ATOM      9  C   UNL     1       0.027   0.156  -0.193  0.00  0.00    +0.051 A 
ATOM     10  C   UNL     1       1.263  -0.471  -0.289  0.00  0.00    +0.029 A 
BRANCH  10  11
ATOM     11  N   UNL     1       1.338  -1.864  -0.366  0.00  0.00    -0.358 N 
ATOM     12  H   UNL     1       0.417  -2.466  -0.351  0.00  0.00    +0.142 HD
ATOM     13  H   UNL     1       2.317  -2.358  -0.441  0.00  0.00    +0.142 HD
ENDBRANCH  10  11
ENDBRANCH   1   8
BRANCH   1  14
ATOM     14  N   UNL     1      -1.975   2.466   1.607  0.00  0.00    -0.096 NA
BRANCH  14  15
ATOM     15  C   UNL     1      -1.135   3.196   2.454  0.00  0.00    +0.094 A 
ATOM     16  C   UNL     1      -0.499   4.338   1.987  0.00  0.00    +0.049 A 
ATOM     17  C   UNL     1       0.331   5.058   2.826  0.00  0.00    +0.061 A 
ATOM     18  C   UNL     1       0.528   4.640   4.132  0.00  0.00    +0.061 A 
ATOM     19  C   UNL     1      -0.105   3.502   4.599  0.00  0.00    +0.043 A 
ATOM     20  C   UNL     1      -0.940   2.782   3.766  0.00  0.00    +0.067 A 
ATOM     21 CL   UNL     1      -1.739   1.358   4.356  0.00  0.00    -0.081 Cl
ATOM     22 CL   UNL     1       1.570   5.546   5.184  0.00  0.00    -0.082 Cl
ATOM     23 CL   UNL     1       1.127   6.486   2.243  0.00  0.00    -0.082 Cl
ENDBRANCH  14  15
ENDBRANCH   1  14
TORSDOF 4
