REMARK  Name = ZINC31809262
REMARK  6 active torsions:
REMARK  status: ('A' for Active; 'I' for Inactive)
REMARK    1  A    between atoms: C_1  and  C_2
REMARK    2  A    between atoms: C_2  and  C_4
REMARK    3  A    between atoms: C_2  and  N_8
REMARK    4  A    between atoms: C_4  and  O_6
REMARK    5  A    between atoms: O_6  and  C_7
REMARK    6  A    between atoms: C_20  and  C_22
REMARK                            x       y       z     vdW  Elec       q    Type
REMARK                         _______ _______ _______ _____ _____    ______ ____
ROOT
ATOM      1  N   UNL     1      -1.211  -0.348   2.398  0.00  0.00    -0.286 N 
ATOM      2  C   UNL     1       0.104  -0.639   2.356  0.00  0.00    +0.304 C 
ATOM      3  O   UNL     1       0.704  -0.591   1.299  0.00  0.00    -0.253 OA
ATOM      4  N   UNL     1       0.755  -0.982   3.484  0.00  0.00    -0.273 N 
ATOM      5  C   UNL     1       2.210  -1.196   3.479  0.00  0.00    +0.116 C 
ATOM      6  C   UNL     1       2.876  -0.139   4.369  0.00  0.00    +0.074 C 
ATOM      7  C   UNL     1       2.097  -0.024   5.653  0.00  0.00    +0.040 A 
ATOM      8  C   UNL     1       0.834  -0.466   5.830  0.00  0.00    +0.062 A 
ATOM      9  N   UNL     1       0.470  -0.192   7.085  0.00  0.00    -0.348 N 
ATOM     10  C   UNL     1       1.461   0.403   7.697  0.00  0.00    +0.171 A 
ATOM     11  N   UNL     1       2.496   0.524   6.834  0.00  0.00    -0.349 N 
ATOM     12  H   UNL     1       3.359   0.926   7.021  0.00  0.00    +0.166 HD
ATOM     13  C   UNL     1       0.027  -1.147   4.755  0.00  0.00    +0.156 C 
ATOM     14  H   UNL     1      -1.706  -0.461   3.224  0.00  0.00    +0.151 HD
ATOM     15  H   UNL     1      -0.392  -0.400   7.479  0.00  0.00    +0.167 HD
ENDROOT
BRANCH  13  16
ATOM     16  C   UNL     1      -0.116  -2.612   5.078  0.00  0.00    -0.021 A 
ATOM     17  C   UNL     1       1.008  -3.379   5.321  0.00  0.00    +0.007 A 
ATOM     18  C   UNL     1       0.877  -4.723   5.617  0.00  0.00    +0.020 A 
ATOM     19  C   UNL     1      -0.379  -5.300   5.671  0.00  0.00    +0.041 A 
ATOM     20  C   UNL     1      -1.504  -4.532   5.427  0.00  0.00    +0.020 A 
ATOM     21  C   UNL     1      -1.372  -3.187   5.137  0.00  0.00    +0.007 A 
ATOM     22 CL   UNL     1      -0.545  -6.988   6.042  0.00  0.00    -0.084 Cl
ENDBRANCH  13  16
BRANCH   1  24
ATOM     23  C   UNL     1      -2.334  -1.053   0.343  0.00  0.00    +0.040 C 
ATOM     24  C   UNL     1      -1.893   0.138   1.196  0.00  0.00    +0.180 C 
BRANCH  24  25
ATOM     25  C   UNL     1      -3.103   0.944   1.596  0.00  0.00    +0.327 C 
ATOM     26  O   UNL     1      -3.367   1.096   2.765  0.00  0.00    -0.249 OA
BRANCH  25  27
ATOM     27  O   UNL     1      -3.885   1.492   0.654  0.00  0.00    -0.467 OA
ATOM     28  C   UNL     1      -5.015   2.243   1.105  0.00  0.00    +0.280 C 
ENDBRANCH  25  27
ENDBRANCH  24  25
ENDBRANCH   1  24
TORSDOF 4
