REMARK  Name = ZINC33126253
REMARK  9 active torsions:
REMARK  status: ('A' for Active; 'I' for Inactive)
REMARK    1  A    between atoms: C_1  and  C_2
REMARK    2  A    between atoms: C_2  and  C_3
REMARK    3  A    between atoms: C_3  and  N_4
REMARK    4  A    between atoms: N_4  and  C_5
REMARK    5  A    between atoms: N_4  and  C_13
REMARK    6  A    between atoms: C_5  and  C_6
REMARK    7  A    between atoms: C_13  and  C_14
REMARK    8  A    between atoms: C_22  and  C_25
REMARK    9  A    between atoms: C_29  and  C_31
REMARK                            x       y       z     vdW  Elec       q    Type
REMARK                         _______ _______ _______ _____ _____    ______ ____
ROOT
ATOM      1  C   UNL     1       5.644   6.489  -0.535  0.00  0.00    +0.032 A 
ATOM      2  C   UNL     1       6.293   5.303  -0.741  0.00  0.00    +0.093 A 
ATOM      3  C   UNL     1       5.534   4.138  -0.947  0.00  0.00    +0.273 A 
ATOM      4  O   UNL     1       6.082   3.064  -1.133  0.00  0.00    -0.266 OA
ATOM      5  N   UNL     1       4.188   4.229  -0.933  0.00  0.00    -0.201 N 
ATOM      6  C   UNL     1       3.588   5.444  -0.722  0.00  0.00    +0.158 A 
ATOM      7  N   UNL     1       4.318   6.535  -0.529  0.00  0.00    -0.234 NA
ATOM      8  C   UNL     1       2.192   5.240  -0.765  0.00  0.00    +0.075 A 
ATOM      9  C   UNL     1       1.962   3.917  -0.991  0.00  0.00    +0.066 A 
ATOM     10  N   UNL     1       3.177   3.275  -1.102  0.00  0.00    -0.288 N 
ATOM     11  H   UNL     1       3.438   2.223  -1.286  0.00  0.00    +0.187 HD
ENDROOT
BRANCH   9  12
ATOM     12  C   UNL     1       0.636   3.278  -1.105  0.00  0.00    +0.000 A 
ATOM     13  C   UNL     1       0.536   1.906  -1.345  0.00  0.00    +0.010 A 
ATOM     14  C   UNL     1      -0.706   1.316  -1.450  0.00  0.00    +0.001 A 
ATOM     15  C   UNL     1      -1.852   2.081  -1.324  0.00  0.00    +0.003 A 
ATOM     16  C   UNL     1      -1.761   3.440  -1.081  0.00  0.00    -0.050 A 
ATOM     17  C   UNL     1      -0.525   4.043  -0.973  0.00  0.00    +0.013 A 
ATOM     18  C   UNL     1      -3.014   4.264  -0.939  0.00  0.00    +0.044 C 
ENDBRANCH   9  12
BRANCH   1  19
ATOM     19  C   UNL     1       6.439   7.749  -0.312  0.00  0.00    -0.022 C 
BRANCH  19  20
ATOM     20  N   UNL     1       6.203   8.680  -1.423  0.00  0.00    +0.386 N 
ATOM     21  H   UNL     1       6.387   8.138  -2.363  0.00  0.00    -0.081 HD
BRANCH  20  22
ATOM     22  C   UNL     1       4.809   9.143  -1.435  0.00  0.00    -0.078 C 
BRANCH  22  24
ATOM     23  C   UNL     1       3.057  10.304  -2.785  0.00  0.00    +0.002 C 
ATOM     24  C   UNL     1       4.507   9.817  -2.775  0.00  0.00    -0.022 C 
ENDBRANCH  22  24
ENDBRANCH  20  22
BRANCH  20  25
ATOM     25  C   UNL     1       7.135   9.815  -1.367  0.00  0.00    -0.042 C 
BRANCH  25  26
ATOM     26  C   UNL     1       8.497   9.370  -1.833  0.00  0.00    -0.064 A 
ATOM     27  C   UNL     1       9.450   8.981  -0.911  0.00  0.00    +0.003 A 
ATOM     28  C   UNL     1      10.698   8.567  -1.338  0.00  0.00    +0.020 A 
ATOM     29  C   UNL     1      10.997   8.553  -2.689  0.00  0.00    +0.041 A 
ATOM     30  C   UNL     1      10.044   8.948  -3.611  0.00  0.00    +0.020 A 
ATOM     31  C   UNL     1       8.795   9.356  -3.183  0.00  0.00    +0.003 A 
ATOM     32 CL   UNL     1      12.566   8.040  -3.226  0.00  0.00    -0.084 Cl
ENDBRANCH  25  26
ENDBRANCH  20  25
ENDBRANCH  19  20
ENDBRANCH   1  19
TORSDOF 7
