REMARK  Name = ZINC01460189
REMARK  9 active torsions:
REMARK  status: ('A' for Active; 'I' for Inactive)
REMARK    1  A    between atoms: C_1  and  C_2
REMARK    2  A    between atoms: C_12  and  O_26
REMARK    3  A    between atoms: C_19  and  C_24
REMARK    4  A    between atoms: C_19  and  C_25
REMARK    5  A    between atoms: C_21  and  C_23
REMARK    6  A    between atoms: O_26  and  C_27
REMARK    7  A    between atoms: C_27  and  C_29
REMARK    8  A    between atoms: C_35  and  C_39
REMARK    9  A    between atoms: C_36  and  N_38
REMARK                            x       y       z     vdW  Elec       q    Type
REMARK                         _______ _______ _______ _____ _____    ______ ____
ROOT
ATOM      1  C   UNL     1       5.407  -3.658   4.235  0.00  0.00    +0.086 C 
ATOM      2  C   UNL     1       4.989  -2.822   3.053  0.00  0.00    +0.110 A 
ATOM      3  C   UNL     1       4.874  -3.412   1.849  0.00  0.00    +0.088 A 
ATOM      4  C   UNL     1       4.482  -2.641   0.731  0.00  0.00    +0.145 A 
ATOM      5  C   UNL     1       4.232  -1.297   0.919  0.00  0.00    +0.104 A 
ATOM      6  C   UNL     1       4.373  -0.755   2.202  0.00  0.00    +0.345 A 
ATOM      7  O   UNL     1       4.154   0.431   2.380  0.00  0.00    -0.245 OA
ATOM      8  O   UNL     1       4.745  -1.521   3.237  0.00  0.00    -0.427 OA
ATOM      9  C   UNL     1       3.815  -0.431  -0.234  0.00  0.00    +0.148 C 
ATOM     10  C   UNL     1       2.372  -0.053  -0.129  0.00  0.00    +0.003 A 
ATOM     11  C   UNL     1       1.189  -0.758  -0.118  0.00  0.00    +0.053 A 
ATOM     12  C   UNL     1       0.009  -0.017  -0.005  0.00  0.00    +0.133 A 
ATOM     13  C   UNL     1       0.009   1.371   0.092  0.00  0.00    +0.052 A 
ATOM     14  C   UNL     1       1.189   2.074   0.081  0.00  0.00    -0.019 A 
ATOM     15  C   UNL     1       2.365   1.332  -0.030  0.00  0.00    +0.045 A 
ATOM     16  N   UNL     1       3.651   1.868  -0.055  0.00  0.00    -0.264 N 
ATOM     17  C   UNL     1       4.564   0.891  -0.178  0.00  0.00    +0.241 C 
ATOM     18  O   UNL     1       5.767   1.037  -0.233  0.00  0.00    -0.273 OA
ATOM     19  C   UNL     1       3.850   3.324   0.048  0.00  0.00    +0.037 C 
ATOM     20  C   UNL     1       2.669   3.920   0.821  0.00  0.00    +0.033 C 
ATOM     21  C   UNL     1       1.327   3.566   0.173  0.00  0.00    +0.020 C 
ATOM     22  C   UNL     1       0.186   4.130   1.023  0.00  0.00    +0.012 C 
ATOM     23  C   UNL     1       5.154   3.614   0.794  0.00  0.00    +0.032 C 
ATOM     24  C   UNL     1       3.911   3.936  -1.353  0.00  0.00    +0.032 C 
ATOM     25  C   UNL     1       4.099  -1.117  -1.540  0.00  0.00    +0.110 C 
ATOM     26  C   UNL     1       4.351  -2.447  -1.590  0.00  0.00    +0.199 C 
ATOM     27  O   UNL     1       4.359  -3.212  -0.483  0.00  0.00    -0.441 OA
ENDROOT
BRANCH  26  28
ATOM     28  N   UNL     1       4.605  -3.032  -2.805  0.00  0.00    -0.328 N 
ATOM     29  H   UNL     1       4.786  -3.983  -2.857  0.00  0.00    +0.145 HD
ATOM     30  H   UNL     1       4.603  -2.494  -3.612  0.00  0.00    +0.145 HD
ENDBRANCH  26  28
BRANCH  25  31
ATOM     31  C   UNL     1       4.103  -0.353  -2.751  0.00  0.00    +0.102 C 
ATOM     32  N   UNL     1       4.107   0.254  -3.711  0.00  0.00    -0.191 NA
ENDBRANCH  25  31
BRANCH  12  33
ATOM     33  O   UNL     1      -1.180  -0.676   0.010  0.00  0.00    -0.422 OA
BRANCH  33  34
ATOM     34  C   UNL     1      -1.450  -1.425   1.097  0.00  0.00    +0.344 C 
ATOM     35  O   UNL     1      -0.697  -1.406   2.050  0.00  0.00    -0.245 OA
BRANCH  34  36
ATOM     36  C   UNL     1      -2.662  -2.269   1.129  0.00  0.00    +0.059 A 
ATOM     37  C   UNL     1      -3.533  -2.288   0.038  0.00  0.00    +0.015 A 
ATOM     38  C   UNL     1      -4.660  -3.082   0.073  0.00  0.00    +0.001 A 
ATOM     39  C   UNL     1      -4.935  -3.850   1.191  0.00  0.00    +0.000 A 
ATOM     40  C   UNL     1      -4.079  -3.832   2.278  0.00  0.00    +0.001 A 
ATOM     41  C   UNL     1      -2.945  -3.046   2.254  0.00  0.00    +0.015 A 
ENDBRANCH  34  36
ENDBRANCH  33  34
ENDBRANCH  12  33
TORSDOF 5
