REMARK  Name = ZINC32565347
REMARK  9 active torsions:
REMARK  status: ('A' for Active; 'I' for Inactive)
REMARK    1  A    between atoms: C_1  and  C_2
REMARK    2  A    between atoms: C_4  and  C_8
REMARK    3  A    between atoms: C_8  and  N_9
REMARK    4  A    between atoms: N_9  and  C_10
REMARK    5  A    between atoms: C_11  and  C_13
REMARK    6  A    between atoms: C_13  and  C_14
REMARK    7  A    between atoms: N_21  and  C_22
REMARK    8  A    between atoms: C_22  and  C_23
REMARK    9  A    between atoms: C_26  and  C_29
REMARK                            x       y       z     vdW  Elec       q    Type
REMARK                         _______ _______ _______ _____ _____    ______ ____
ROOT
ATOM      1  C   UNL     1      -2.960   7.257  -5.045  0.00  0.00    +0.028 C 
ATOM      2  C   UNL     1      -2.701   8.033  -6.305  0.00  0.00    +0.200 C 
ATOM      3  O   UNL     1      -1.888   7.603  -7.096  0.00  0.00    -0.278 OA
ATOM      4  N   UNL     1      -3.330   9.179  -6.590  0.00  0.00    -0.318 N 
ATOM      5  C   UNL     1      -4.344   9.760  -5.713  0.00  0.00    +0.085 C 
ATOM      6  C   UNL     1      -4.240   9.142  -4.317  0.00  0.00    -0.058 C 
ATOM      7  N   UNL     1      -4.235   7.677  -4.449  0.00  0.00    +0.391 N 
ATOM      8  H   UNL     1      -3.104   9.642  -7.412  0.00  0.00    +0.149 HD
ATOM      9  H   UNL     1      -4.997   7.388  -5.043  0.00  0.00    -0.080 HD
ENDROOT
BRANCH   1  10
ATOM     10  C   UNL     1      -3.021   5.764  -5.372  0.00  0.00    +0.090 C 
BRANCH  10  13
ATOM     11  N   UNL     1      -4.355   4.265  -6.818  0.00  0.00    -0.297 N 
ATOM     12  C   UNL     1      -3.631   3.134  -6.233  0.00  0.00    +0.132 C 
ATOM     13  C   UNL     1      -4.077   5.522  -6.420  0.00  0.00    +0.215 C 
ATOM     14  O   UNL     1      -4.677   6.458  -6.904  0.00  0.00    -0.276 OA
BRANCH  11  15
ATOM     15  C   UNL     1      -5.382   4.029  -7.837  0.00  0.00    +0.179 C 
BRANCH  15  19
ATOM     16  C   UNL     1     -10.370   3.767  -7.010  0.00  0.00    +0.065 C 
ATOM     17  C   UNL     1      -8.877   3.731  -6.814  0.00  0.00    +0.030 A 
ATOM     18  N   UNL     1      -7.923   3.986  -7.763  0.00  0.00    -0.346 N 
ATOM     19  C   UNL     1      -6.719   3.844  -7.168  0.00  0.00    +0.102 A 
ATOM     20  H   UNL     1      -8.083   4.223  -8.690  0.00  0.00    +0.167 HD
ATOM     21  N   UNL     1      -6.906   3.519  -5.918  0.00  0.00    -0.348 N 
ATOM     22  C   UNL     1      -8.223   3.448  -5.671  0.00  0.00    +0.105 A 
ATOM     23  H   UNL     1      -6.204   3.358  -5.268  0.00  0.00    +0.166 HD
ENDBRANCH  15  19
ENDBRANCH  11  15
ENDBRANCH  10  13
ENDBRANCH   1  10
BRANCH   7  24
ATOM     24  C   UNL     1      -4.383   7.066  -3.122  0.00  0.00    -0.042 C 
BRANCH  24  25
ATOM     25  C   UNL     1      -5.753   7.375  -2.576  0.00  0.00    -0.064 A 
ATOM     26  C   UNL     1      -5.954   8.518  -1.824  0.00  0.00    +0.002 A 
ATOM     27  C   UNL     1      -7.207   8.806  -1.322  0.00  0.00    +0.009 A 
ATOM     28  C   UNL     1      -8.271   7.943  -1.574  0.00  0.00    -0.018 A 
ATOM     29  C   UNL     1      -8.063   6.793  -2.333  0.00  0.00    +0.009 A 
ATOM     30  C   UNL     1      -6.808   6.518  -2.835  0.00  0.00    +0.002 A 
BRANCH  28  31
ATOM     31  C   UNL     1      -9.620   8.248  -1.037  0.00  0.00    -0.018 A 
ATOM     32  C   UNL     1      -9.829   9.400  -0.282  0.00  0.00    +0.008 A 
ATOM     33  C   UNL     1     -11.086   9.679   0.215  0.00  0.00    +0.001 A 
ATOM     34  C   UNL     1     -12.137   8.815  -0.034  0.00  0.00    +0.000 A 
ATOM     35  C   UNL     1     -11.936   7.669  -0.782  0.00  0.00    +0.001 A 
ATOM     36  C   UNL     1     -10.684   7.384  -1.289  0.00  0.00    +0.008 A 
ENDBRANCH  28  31
ENDBRANCH  24  25
ENDBRANCH   7  24
TORSDOF 7
