REMARK  Name = ZINC37840743
REMARK  6 active torsions:
REMARK  status: ('A' for Active; 'I' for Inactive)
REMARK    1  A    between atoms: C_1  and  C_2
REMARK    2  A    between atoms: C_3  and  S_8
REMARK    3  A    between atoms: S_8  and  N_11
REMARK    4  A    between atoms: C_13  and  C_22
REMARK    5  A    between atoms: C_18  and  C_20
REMARK    6  A    between atoms: C_18  and  C_21
REMARK                            x       y       z     vdW  Elec       q    Type
REMARK                         _______ _______ _______ _____ _____    ______ ____
ROOT
ATOM      1  N   UNL     1      -1.188   0.498  -3.147  0.00  0.00    -0.173 NA
ATOM      2  C   UNL     1      -2.522  -0.011  -3.498  0.00  0.00    +0.116 C 
ATOM      3  C   UNL     1      -3.379   1.230  -3.845  0.00  0.00    -0.016 C 
ATOM      4  C   UNL     1      -2.741   2.320  -2.944  0.00  0.00    +0.028 C 
ATOM      5  C   UNL     1      -1.243   1.974  -3.136  0.00  0.00    +0.081 C 
ATOM      6  C   UNL     1      -0.840   2.492  -4.516  0.00  0.00    +0.027 C 
ATOM      7  C   UNL     1      -1.677   1.910  -5.643  0.00  0.00    -0.033 C 
ATOM      8  C   UNL     1      -3.126   1.620  -5.299  0.00  0.00    +0.014 C 
ATOM      9  C   UNL     1      -1.000   0.646  -6.191  0.00  0.00    +0.011 C 
ATOM     10  C   UNL     1      -1.675   2.944  -6.796  0.00  0.00    +0.011 C 
ATOM     11  C   UNL     1      -4.869   1.013  -3.538  0.00  0.00    +0.012 C 
ENDROOT
BRANCH   1  12
ATOM     12  S   UNL     1       0.147  -0.426  -2.819  0.00  0.00    +0.064 S 
ATOM     13  O   UNL     1       1.278   0.339  -3.213  0.00  0.00    -0.153 OA
ATOM     14  O   UNL     1      -0.117  -1.720  -3.343  0.00  0.00    -0.153 OA
BRANCH  12  17
ATOM     15  C   UNL     1      -1.890  -1.965  -0.752  0.00  0.00    +0.067 C 
ATOM     16  C   UNL     1      -0.645  -1.256  -0.284  0.00  0.00    +0.059 A 
ATOM     17  C   UNL     1       0.242  -0.600  -1.068  0.00  0.00    +0.145 A 
ATOM     18  C   UNL     1       1.248  -0.086  -0.243  0.00  0.00    +0.163 A 
ATOM     19  N   UNL     1       0.974  -0.421   0.991  0.00  0.00    -0.180 NA
ATOM     20  N   UNL     1      -0.219  -1.155   0.992  0.00  0.00    -0.280 N 
ATOM     21  H   UNL     1      -0.659  -1.528   1.772  0.00  0.00    +0.189 HD
ENDBRANCH  12  17
ENDBRANCH   1  12
TORSDOF 2
