REMARK  Name = ZINC14018293
REMARK  5 active torsions:
REMARK  status: ('A' for Active; 'I' for Inactive)
REMARK    1  A    between atoms: C_1  and  C_2
REMARK    2  A    between atoms: C_3  and  C_7
REMARK    3  A    between atoms: C_10  and  S_12
REMARK    4  A    between atoms: S_12  and  C_13
REMARK    5  A    between atoms: C_13  and  C_14
REMARK                            x       y       z     vdW  Elec       q    Type
REMARK                         _______ _______ _______ _____ _____    ______ ____
ROOT
ATOM      1  C   UNL     1       7.097   1.464   5.045  0.00  0.00    +0.227 C 
ATOM      2  O   UNL     1       6.872   1.377   6.234  0.00  0.00    -0.275 OA
ATOM      3  N   UNL     1       8.309   1.124   4.563  0.00  0.00    -0.278 N 
ATOM      4  C   UNL     1       8.466   0.574   3.206  0.00  0.00    +0.204 C 
ATOM      5  C   UNL     1       9.314  -0.670   3.293  0.00  0.00    +0.237 C 
ATOM      6  O   UNL     1       9.216  -1.516   2.430  0.00  0.00    -0.274 OA
ATOM      7  N   UNL     1      10.174  -0.859   4.303  0.00  0.00    -0.253 N 
ATOM      8  C   UNL     1      10.312   0.003   5.322  0.00  0.00    +0.243 C 
ATOM      9  O   UNL     1      11.084  -0.257   6.220  0.00  0.00    -0.273 OA
ATOM     10  C   UNL     1       9.528   1.293   5.367  0.00  0.00    +0.114 C 
ATOM     11  C   UNL     1       9.145   1.618   6.810  0.00  0.00    +0.035 C 
ATOM     12  C   UNL     1       8.334   2.916   6.843  0.00  0.00    +0.003 C 
ATOM     13  C   UNL     1       9.175   4.056   6.266  0.00  0.00    +0.000 C 
ATOM     14  C   UNL     1       9.555   3.729   4.820  0.00  0.00    +0.003 C 
ATOM     15  C   UNL     1      10.366   2.432   4.787  0.00  0.00    +0.035 C 
ATOM     16  H   UNL     1      10.724  -1.658   4.298  0.00  0.00    +0.158 HD
ENDROOT
BRANCH   1  17
ATOM     17  C   UNL     1       6.023   1.952   4.109  0.00  0.00    +0.175 C 
BRANCH  17  18
ATOM     18  S   UNL     1       4.524   2.325   5.052  0.00  0.00    -0.056 S 
BRANCH  18  22
ATOM     19  C   UNL     1       1.766   3.580   2.629  0.00  0.00    +0.253 A 
ATOM     20  N   UNL     1       2.762   3.352   1.808  0.00  0.00    -0.106 NA
ATOM     21  N   UNL     1       3.777   2.927   2.475  0.00  0.00    -0.101 NA
ATOM     22  C   UNL     1       3.466   2.857   3.747  0.00  0.00    +0.278 A 
ATOM     23  O   UNL     1       2.189   3.268   3.874  0.00  0.00    -0.411 OA
BRANCH  19  26
ATOM     24  C   UNL     1       0.784   4.304  -0.259  0.00  0.00    +0.087 C 
ATOM     25  C   UNL     1      -0.019   4.399   1.013  0.00  0.00    +0.114 A 
ATOM     26  C   UNL     1       0.425   4.080   2.259  0.00  0.00    +0.079 A 
ATOM     27  C   UNL     1      -0.706   4.335   3.161  0.00  0.00    +0.054 A 
ATOM     28  C   UNL     1      -1.708   4.776   2.384  0.00  0.00    +0.196 A 
ATOM     29  O   UNL     1      -1.289   4.816   1.110  0.00  0.00    -0.467 OA
ENDBRANCH  19  26
ENDBRANCH  18  22
ENDBRANCH  17  18
ENDBRANCH   1  17
TORSDOF 4
