REMARK  Name = ZINC49547602
REMARK  2 active torsions:
REMARK  status: ('A' for Active; 'I' for Inactive)
REMARK    1  A    between atoms: N_15  and  C_16
REMARK    2  A    between atoms: C_16  and  C_17
REMARK                            x       y       z     vdW  Elec       q    Type
REMARK                         _______ _______ _______ _____ _____    ______ ____
ROOT
ATOM      1  C   UNL     1       2.358   1.441   0.023  0.00  0.00    +0.005 A 
ATOM      2  C   UNL     1       1.115   2.061   0.038  0.00  0.00    +0.018 A 
ATOM      3  C   UNL     1      -0.026   1.286   0.038  0.00  0.00    +0.084 A 
ATOM      4  N   UNL     1       0.050  -0.031   0.024  0.00  0.00    -0.350 N 
ATOM      5  C   UNL     1       1.215  -0.659   0.010  0.00  0.00    +0.099 A 
ATOM      6  C   UNL     1       2.406   0.059   0.009  0.00  0.00    +0.042 A 
ATOM      7  N   UNL     1       1.248  -2.049  -0.004  0.00  0.00    -0.314 N 
ATOM      8  C   UNL     1       2.525  -2.765  -0.140  0.00  0.00    +0.125 C 
ATOM      9  C   UNL     1       2.670  -3.736   1.038  0.00  0.00    +0.128 C 
ATOM     10  N   UNL     1       1.430  -4.516   1.159  0.00  0.00    -0.283 N 
ATOM     11  C   UNL     1       0.153  -3.800   1.295  0.00  0.00    +0.128 C 
ATOM     12  C   UNL     1       0.009  -2.828   0.123  0.00  0.00    +0.125 C 
ATOM     13  C   UNL     1       1.462  -5.863   1.145  0.00  0.00    +0.303 C 
ATOM     14  O   UNL     1       2.530  -6.445   1.131  0.00  0.00    -0.253 OA
ATOM     15  N   UNL     1       0.312  -6.565   1.147  0.00  0.00    -0.291 N 
ATOM     16  H   UNL     1      -0.538  -6.103   1.080  0.00  0.00    +0.151 HD
ATOM     17  H   UNL     1      -0.769  -0.552   0.025  0.00  0.00    +0.166 HD
ENDROOT
BRANCH  15  18
ATOM     18  C   UNL     1       0.345  -8.026   1.249  0.00  0.00    +0.202 C 
BRANCH  18  19
ATOM     19  C   UNL     1      -1.063  -8.563   1.228  0.00  0.00    +0.236 C 
ATOM     20  O   UNL     1      -2.002  -7.801   1.138  0.00  0.00    -0.274 OA
ATOM     21  N   UNL     1      -1.278  -9.891   1.311  0.00  0.00    -0.263 N 
ATOM     22  C   UNL     1      -2.577 -10.387   1.292  0.00  0.00    +0.165 A 
ATOM     23  N   UNL     1      -3.705  -9.719   1.195  0.00  0.00    -0.229 NA
ATOM     24  C   UNL     1      -4.886 -10.330   1.189  0.00  0.00    +0.054 A 
ATOM     25  C   UNL     1      -4.829 -11.683   1.292  0.00  0.00    +0.014 A 
ATOM     26  S   UNL     1      -3.087 -11.991   1.382  0.00  0.00    -0.057 S 
ATOM     27  C   UNL     1      -5.969 -12.644   1.317  0.00  0.00    +0.044 C 
ATOM     28  C   UNL     1      -7.260 -11.851   1.575  0.00  0.00    +0.006 C 
ATOM     29  C   UNL     1      -7.287 -10.634   0.646  0.00  0.00    +0.006 C 
ATOM     30  C   UNL     1      -6.227  -9.618   1.077  0.00  0.00    +0.056 C 
ATOM     31  H   UNL     1      -0.527 -10.501   1.384  0.00  0.00    +0.157 HD
ENDBRANCH  18  19
ENDBRANCH  15  18
TORSDOF 2
