REMARK  Name = ZINC20764086
REMARK  7 active torsions:
REMARK  status: ('A' for Active; 'I' for Inactive)
REMARK    1  A    between atoms: C_1  and  C_2
REMARK    2  A    between atoms: C_2  and  O_3
REMARK    3  A    between atoms: O_3  and  C_4
REMARK    4  A    between atoms: C_8  and  C_11
REMARK    5  A    between atoms: C_9  and  O_10
REMARK    6  A    between atoms: C_14  and  C_27
REMARK    7  A    between atoms: C_16  and  C_19
REMARK                            x       y       z     vdW  Elec       q    Type
REMARK                         _______ _______ _______ _____ _____    ______ ____
ROOT
ATOM      1  C   UNL     1       2.300   3.783   2.121  0.00  0.00    -0.028 C 
ATOM      2  C   UNL     1       1.176   4.616   2.744  0.00  0.00    +0.044 C 
ATOM      3  C   UNL     1      -0.062   4.501   1.899  0.00  0.00    +0.040 C 
ATOM      4  N   UNL     1      -0.050   4.053   0.700  0.00  0.00    -0.299 NA
ATOM      5  C   UNL     1       1.149   3.593   0.010  0.00  0.00    +0.081 C 
ATOM      6  N   UNL     1       2.355   4.091   0.682  0.00  0.00    +0.401 N 
ATOM      7  H   UNL     1       2.422   5.180   0.542  0.00  0.00    -0.081 HD
ATOM      8  H   UNL     1       3.239   3.609   0.238  0.00  0.00    -0.081 HD
ENDROOT
BRANCH   3   9
ATOM      9  C   UNL     1      -1.350   4.922   2.479  0.00  0.00    -0.001 A 
ATOM     10  C   UNL     1      -1.403   5.416   3.785  0.00  0.00    +0.013 A 
ATOM     11  C   UNL     1      -2.608   5.810   4.325  0.00  0.00    +0.050 A 
ATOM     12  C   UNL     1      -3.773   5.718   3.575  0.00  0.00    +0.166 A 
ATOM     13  C   UNL     1      -3.727   5.226   2.271  0.00  0.00    +0.167 A 
ATOM     14  C   UNL     1      -2.521   4.835   1.722  0.00  0.00    +0.059 A 
ATOM     15  O   UNL     1      -4.992   5.238   1.757  0.00  0.00    -0.453 OA
ATOM     16  C   UNL     1      -5.867   5.356   2.894  0.00  0.00    +0.466 C 
ATOM     17  O   UNL     1      -5.064   6.037   3.875  0.00  0.00    -0.453 OA
ENDBRANCH   3   9
BRANCH   5  18
ATOM     18  C   UNL     1       1.171   2.086   0.002  0.00  0.00    -0.039 A 
ATOM     19  C   UNL     1       2.378   1.413  -0.013  0.00  0.00    +0.006 A 
ATOM     20  C   UNL     1       2.400   0.031  -0.021  0.00  0.00    +0.040 A 
ATOM     21  C   UNL     1       1.212  -0.679  -0.013  0.00  0.00    +0.137 A 
ATOM     22  C   UNL     1       0.002  -0.004   0.002  0.00  0.00    +0.053 A 
ATOM     23  C   UNL     1      -0.017   1.379   0.010  0.00  0.00    +0.022 A 
ATOM     24 BR   UNL     1      -1.622  -0.972   0.013  0.00  0.00    -0.047 Br
ATOM     25  F   UNL     1       1.232  -2.030  -0.021  0.00  0.00    -0.204 F 
ENDBRANCH   5  18
BRANCH   1  30
ATOM     26  C   UNL     1       5.208   3.846   4.543  0.00  0.00    +0.162 A 
ATOM     27  C   UNL     1       6.032   4.791   3.954  0.00  0.00    +0.049 A 
ATOM     28  C   UNL     1       5.647   5.406   2.777  0.00  0.00    +0.004 A 
ATOM     29  C   UNL     1       4.443   5.075   2.182  0.00  0.00    +0.006 A 
ATOM     30  C   UNL     1       3.614   4.137   2.768  0.00  0.00    -0.016 A 
ATOM     31  C   UNL     1       3.994   3.517   3.948  0.00  0.00    +0.160 A 
BRANCH  31  32
ATOM     32  O   UNL     1       3.182   2.590   4.523  0.00  0.00    -0.503 OA
ATOM     33  H   UNL     1       2.223   2.331   4.051  0.00  0.00    +0.292 HD
ENDBRANCH  31  32
BRANCH  26  34
ATOM     34  O   UNL     1       5.585   3.241   5.702  0.00  0.00    -0.489 OA
BRANCH  34  36
ATOM     35  C   UNL     1       7.095   2.846   7.547  0.00  0.00    +0.048 C 
ATOM     36  C   UNL     1       6.844   3.628   6.256  0.00  0.00    +0.226 C 
ENDBRANCH  34  36
ENDBRANCH  26  34
ENDBRANCH   1  30
TORSDOF 6
