REMARK  Name = ZINC64921981
REMARK  8 active torsions:
REMARK  status: ('A' for Active; 'I' for Inactive)
REMARK    1  A    between atoms: C_1  and  C_2
REMARK    2  A    between atoms: C_2  and  C_3
REMARK    3  A    between atoms: C_10  and  S_15
REMARK    4  A    between atoms: S_15  and  N_18
REMARK    5  A    between atoms: C_21  and  C_24
REMARK    6  A    between atoms: N_26  and  C_27
REMARK    7  A    between atoms: N_26  and  C_28
REMARK    8  A    between atoms: C_32  and  C_34
REMARK                            x       y       z     vdW  Elec       q    Type
REMARK                         _______ _______ _______ _____ _____    ______ ____
ROOT
ATOM      1  S   UNL     1      -4.873  -3.252   3.649  0.00  0.00    +0.061 S 
ATOM      2  O   UNL     1      -5.943  -2.325   3.774  0.00  0.00    -0.153 OA
ATOM      3  O   UNL     1      -4.909  -4.338   2.734  0.00  0.00    -0.153 OA
ENDROOT
BRANCH   1  10
ATOM      4  C   UNL     1       0.679  -0.475   1.210  0.00  0.00    +0.259 C 
ATOM      5  C   UNL     1       0.817  -1.975   1.139  0.00  0.00    +0.258 C 
ATOM      6  O   UNL     1       1.808  -2.473   0.650  0.00  0.00    -0.271 OA
ATOM      7  N   UNL     1      -0.168  -2.761   1.622  0.00  0.00    -0.279 N 
ATOM      8  C   UNL     1      -1.246  -2.171   2.297  0.00  0.00    +0.078 A 
ATOM      9  C   UNL     1      -2.376  -2.912   2.603  0.00  0.00    +0.055 A 
ATOM     10  C   UNL     1      -3.436  -2.311   3.257  0.00  0.00    +0.107 A 
ATOM     11  C   UNL     1      -3.371  -0.974   3.604  0.00  0.00    +0.032 A 
ATOM     12  C   UNL     1      -2.244  -0.230   3.305  0.00  0.00    +0.049 A 
ATOM     13  C   UNL     1      -1.176  -0.827   2.656  0.00  0.00    +0.143 A 
ATOM     14  O   UNL     1      -0.050  -0.115   2.385  0.00  0.00    -0.478 OA
ATOM     15  H   UNL     1      -0.131  -3.723   1.504  0.00  0.00    +0.155 HD
BRANCH   4  17
ATOM     16  C   UNL     1      -0.098   1.556  -0.020  0.00  0.00    +0.008 C 
ATOM     17  C   UNL     1      -0.069   0.026  -0.027  0.00  0.00    +0.051 C 
ENDBRANCH   4  17
ENDBRANCH   1  10
BRANCH   1  18
ATOM     18  N   UNL     1      -4.636  -3.906   5.152  0.00  0.00    -0.177 NA
ATOM     19  C   UNL     1      -3.998  -5.221   5.303  0.00  0.00    +0.110 C 
ATOM     20  C   UNL     1      -4.908  -6.115   6.151  0.00  0.00    +0.030 C 
ATOM     21  C   UNL     1      -5.219  -5.412   7.474  0.00  0.00    +0.078 C 
ATOM     22  C   UNL     1      -5.956  -4.100   7.194  0.00  0.00    +0.030 C 
ATOM     23  C   UNL     1      -5.053  -3.180   6.359  0.00  0.00    +0.110 C 
BRANCH  21  24
ATOM     24  C   UNL     1      -6.087  -6.303   8.325  0.00  0.00    +0.223 C 
ATOM     25  O   UNL     1      -6.422  -7.394   7.914  0.00  0.00    -0.275 OA
ATOM     26  N   UNL     1      -6.489  -5.888   9.542  0.00  0.00    -0.274 N 
ATOM     27  C   UNL     1      -5.988  -4.625  10.089  0.00  0.00    +0.138 C 
BRANCH  26  28
ATOM     28  C   UNL     1      -7.386  -6.665  10.285  0.00  0.00    +0.036 A 
ATOM     29  C   UNL     1      -7.006  -7.920  10.743  0.00  0.00    +0.023 A 
ATOM     30  C   UNL     1      -7.893  -8.683  11.476  0.00  0.00    +0.002 A 
ATOM     31  C   UNL     1      -9.159  -8.200  11.752  0.00  0.00    +0.003 A 
ATOM     32  C   UNL     1      -9.541  -6.952  11.297  0.00  0.00    -0.049 A 
ATOM     33  C   UNL     1      -8.655  -6.180  10.569  0.00  0.00    +0.027 A 
ATOM     34  C   UNL     1     -10.921  -6.430  11.600  0.00  0.00    +0.044 C 
ENDBRANCH  26  28
ENDBRANCH  21  24
ENDBRANCH   1  18
TORSDOF 5
