REMARK  Name = ZINC06929390
REMARK  5 active torsions:
REMARK  status: ('A' for Active; 'I' for Inactive)
REMARK    1  A    between atoms: C_1  and  C_2
REMARK    2  A    between atoms: C_2  and  C_4
REMARK    3  A    between atoms: C_2  and  N_14
REMARK    4  A    between atoms: C_15  and  C_17
REMARK    5  A    between atoms: C_17  and  N_18
REMARK                            x       y       z     vdW  Elec       q    Type
REMARK                         _______ _______ _______ _____ _____    ______ ____
ROOT
ATOM      1  N   UNL     1      -2.397  -3.965   5.511  0.00  0.00    -0.311 N 
ATOM      2  C   UNL     1      -2.592  -3.177   4.434  0.00  0.00    +0.231 C 
ATOM      3  O   UNL     1      -2.688  -3.671   3.331  0.00  0.00    -0.274 OA
ATOM      4  H   UNL     1      -2.321  -3.569   6.393  0.00  0.00    +0.149 HD
ENDROOT
BRANCH   1   6
ATOM      5  C   UNL     1      -0.862  -5.797   4.993  0.00  0.00    +0.028 C 
ATOM      6  C   UNL     1      -2.301  -5.417   5.348  0.00  0.00    +0.076 C 
BRANCH   6   7
ATOM      7  C   UNL     1      -2.703  -6.105   6.655  0.00  0.00    -0.010 C 
ATOM      8  C   UNL     1      -4.141  -5.725   7.010  0.00  0.00    +0.012 C 
ATOM      9  C   UNL     1      -4.543  -6.412   8.316  0.00  0.00    -0.010 C 
ATOM     10  C   UNL     1      -4.442  -7.930   8.146  0.00  0.00    +0.007 C 
ATOM     11  C   UNL     1      -3.003  -8.309   7.791  0.00  0.00    -0.010 C 
ATOM     12  C   UNL     1      -2.602  -7.622   6.485  0.00  0.00    +0.012 C 
ATOM     13  C   UNL     1      -2.066  -7.859   8.913  0.00  0.00    +0.007 C 
ATOM     14  C   UNL     1      -2.166  -6.341   9.083  0.00  0.00    -0.010 C 
ATOM     15  C   UNL     1      -3.605  -5.962   9.438  0.00  0.00    +0.007 C 
ATOM     16  C   UNL     1      -1.765  -5.654   7.777  0.00  0.00    +0.012 C 
ENDBRANCH   6   7
ENDBRANCH   1   6
BRANCH   2  17
ATOM     17  C   UNL     1      -2.691  -1.683   4.602  0.00  0.00    +0.213 C 
BRANCH  17  18
ATOM     18  N   UNL     1      -2.901  -1.058   3.294  0.00  0.00    -0.215 N 
ATOM     19  C   UNL     1      -1.906  -0.646   2.481  0.00  0.00    +0.247 C 
ATOM     20  O   UNL     1      -0.713  -0.719   2.685  0.00  0.00    -0.273 OA
ATOM     21  C   UNL     1      -2.593  -0.075   1.263  0.00  0.00    +0.113 C 
ATOM     22  C   UNL     1      -2.241   1.402   1.097  0.00  0.00    +0.035 C 
ATOM     23  C   UNL     1      -0.729   1.579   1.267  0.00  0.00    +0.003 C 
ATOM     24  C   UNL     1      -0.013   1.086   0.008  0.00  0.00    +0.000 C 
ATOM     25  C   UNL     1      -0.753   1.593  -1.232  0.00  0.00    +0.000 C 
ATOM     26  C   UNL     1      -1.371   0.407  -1.978  0.00  0.00    +0.000 C 
ATOM     27  C   UNL     1      -2.618  -0.070  -1.233  0.00  0.00    +0.003 C 
ATOM     28  C   UNL     1      -2.195  -0.854   0.011  0.00  0.00    +0.035 C 
ATOM     29  N   UNL     1      -4.022  -0.240   1.545  0.00  0.00    -0.285 N 
ATOM     30  C   UNL     1      -4.105  -0.824   2.756  0.00  0.00    +0.310 C 
ATOM     31  O   UNL     1      -5.154  -1.109   3.299  0.00  0.00    -0.252 OA
ATOM     32  H   UNL     1      -4.762   0.021   0.974  0.00  0.00    +0.151 HD
ENDBRANCH  17  18
ENDBRANCH   2  17
TORSDOF 4
