REMARK  Name = ZINC05324862
REMARK  4 active torsions:
REMARK  status: ('A' for Active; 'I' for Inactive)
REMARK    1  A    between atoms: C_10  and  C_11
REMARK    2  A    between atoms: N_12  and  N_13
REMARK    3  A    between atoms: C_14  and  C_16
REMARK    4  A    between atoms: C_18  and  C_22
REMARK                            x       y       z     vdW  Elec       q    Type
REMARK                         _______ _______ _______ _____ _____    ______ ____
ROOT
ATOM      1  N   UNL     1       6.195   2.090  -0.145  0.00  0.00    -0.202 N 
ATOM      2  C   UNL     1       6.194   3.435  -0.240  0.00  0.00    +0.281 C 
ATOM      3  O   UNL     1       5.140   4.038  -0.320  0.00  0.00    -0.267 OA
ATOM      4  H   UNL     1       7.035   1.609  -0.082  0.00  0.00    +0.178 HD
ENDROOT
BRANCH   2   5
ATOM      5  C   UNL     1       7.467   4.172  -0.249  0.00  0.00    +0.122 A 
ATOM      6  C   UNL     1       7.618   5.539  -0.335  0.00  0.00    +0.063 A 
ATOM      7  C   UNL     1       8.994   5.817  -0.309  0.00  0.00    +0.100 A 
ATOM      8  N   UNL     1       9.648   4.676  -0.212  0.00  0.00    -0.173 NA
ATOM      9  N   UNL     1       8.719   3.629  -0.167  0.00  0.00    -0.272 N 
ATOM     10  H   UNL     1       8.927   2.684  -0.093  0.00  0.00    +0.189 HD
BRANCH   7  11
ATOM     11  C   UNL     1       9.607   7.162  -0.380  0.00  0.00    +0.041 A 
ATOM     12  C   UNL     1      10.931   7.508  -0.365  0.00  0.00    +0.019 A 
ATOM     13  C   UNL     1      11.268   8.842  -0.444  0.00  0.00    +0.028 A 
ATOM     14  C   UNL     1      10.280   9.770  -0.532  0.00  0.00    +0.079 A 
ATOM     15  S   UNL     1       8.811   8.754  -0.513  0.00  0.00    -0.075 S 
ATOM     16 CL   UNL     1      10.411  11.497  -0.642  0.00  0.00    -0.076 Cl
ENDBRANCH   7  11
ENDBRANCH   2   5
BRANCH   1  18
ATOM     17  C   UNL     1       4.984   0.091  -0.045  0.00  0.00    +0.139 C 
ATOM     18  N   UNL     1       4.983   1.388  -0.137  0.00  0.00    -0.187 NA
BRANCH  17  28
ATOM     19  C   UNL     1      -0.016   1.357   0.033  0.00  0.00    +0.001 A 
ATOM     20  C   UNL     1       1.168   2.091   0.026  0.00  0.00    +0.001 A 
ATOM     21  C   UNL     1       2.379   1.466   0.003  0.00  0.00    +0.009 A 
ATOM     22  C   UNL     1       2.435   0.067  -0.013  0.00  0.00    -0.009 A 
ATOM     23  C   UNL     1       1.233  -0.682  -0.005  0.00  0.00    -0.017 A 
ATOM     24  C   UNL     1       0.002  -0.004   0.018  0.00  0.00    +0.008 A 
ATOM     25  C   UNL     1       1.294  -2.086  -0.021  0.00  0.00    +0.008 A 
ATOM     26  C   UNL     1       2.494  -2.729  -0.043  0.00  0.00    +0.001 A 
ATOM     27  C   UNL     1       3.696  -2.036  -0.051  0.00  0.00    +0.010 A 
ATOM     28  C   UNL     1       3.711  -0.646  -0.036  0.00  0.00    +0.002 A 
ENDBRANCH  17  28
ENDBRANCH   1  18
TORSDOF 4
