REMARK  Name = ZINC14543942
REMARK  8 active torsions:
REMARK  status: ('A' for Active; 'I' for Inactive)
REMARK    1  A    between atoms: C_1  and  C_2
REMARK    2  A    between atoms: C_5  and  N_9
REMARK    3  A    between atoms: C_7  and  C_8
REMARK    4  A    between atoms: N_9  and  S_10
REMARK    5  A    between atoms: S_10  and  C_13
REMARK    6  A    between atoms: C_26  and  C_29
REMARK    7  A    between atoms: C_38  and  O_39
REMARK    8  A    between atoms: O_39  and  C_40
REMARK                            x       y       z     vdW  Elec       q    Type
REMARK                         _______ _______ _______ _____ _____    ______ ____
ROOT
ATOM      1  C   UNL     1       2.108   0.510   4.435  0.00  0.00    +0.109 A 
ATOM      2  C   UNL     1       0.819   0.514   3.934  0.00  0.00    +0.030 A 
ATOM      3  C   UNL     1       0.442  -0.412   2.983  0.00  0.00    +0.025 A 
ATOM      4  C   UNL     1       1.353  -1.354   2.521  0.00  0.00    +0.031 A 
ATOM      5  C   UNL     1       2.652  -1.358   3.039  0.00  0.00    -0.018 A 
ATOM      6  C   UNL     1       3.021  -0.426   3.986  0.00  0.00    +0.034 A 
ATOM      7  C   UNL     1       3.586  -2.389   2.535  0.00  0.00    +0.049 C 
ATOM      8  C   UNL     1       5.057  -2.179   2.530  0.00  0.00    -0.023 C 
ATOM      9  C   UNL     1       5.575  -2.839   1.501  0.00  0.00    -0.030 C 
ATOM     10  C   UNL     1       4.463  -3.526   0.706  0.00  0.00    +0.033 C 
ATOM     11  C   UNL     1       3.256  -2.636   1.032  0.00  0.00    +0.029 C 
ATOM     12  C   UNL     1       1.887  -3.293   1.022  0.00  0.00    +0.109 C 
ATOM     13  N   UNL     1       0.953  -2.271   1.541  0.00  0.00    -0.336 N 
ATOM     14  H   UNL     1       0.046  -2.236   1.197  0.00  0.00    +0.147 HD
ENDROOT
BRANCH  12  15
ATOM     15  C   UNL     1       1.508  -3.684  -0.384  0.00  0.00    +0.022 A 
ATOM     16  C   UNL     1       1.522  -5.034  -0.769  0.00  0.00    -0.009 A 
ATOM     17  C   UNL     1       1.886  -6.047   0.135  0.00  0.00    +0.009 A 
ATOM     18  C   UNL     1       1.888  -7.345  -0.273  0.00  0.00    +0.001 A 
ATOM     19  C   UNL     1       1.533  -7.688  -1.576  0.00  0.00    +0.001 A 
ATOM     20  C   UNL     1       1.175  -6.735  -2.479  0.00  0.00    +0.008 A 
ATOM     21  C   UNL     1       1.162  -5.383  -2.095  0.00  0.00    -0.017 A 
ATOM     22  C   UNL     1       0.797  -4.372  -3.001  0.00  0.00    +0.012 A 
ATOM     23  C   UNL     1       0.793  -3.073  -2.596  0.00  0.00    +0.046 A 
ATOM     24  C   UNL     1       1.144  -2.727  -1.288  0.00  0.00    +0.126 A 
BRANCH  24  25
ATOM     25  O   UNL     1       1.125  -1.421  -0.911  0.00  0.00    -0.495 OA
ATOM     26  C   UNL     1       0.735  -0.467  -1.901  0.00  0.00    +0.277 C 
ENDBRANCH  24  25
ENDBRANCH  12  15
BRANCH   1  27
ATOM     27  S   UNL     1       2.587   1.698   5.644  0.00  0.00    +0.072 S 
ATOM     28  O   UNL     1       3.979   1.921   5.466  0.00  0.00    -0.150 OA
ATOM     29  O   UNL     1       1.634   2.750   5.580  0.00  0.00    -0.150 OA
BRANCH  27  30
ATOM     30  N   UNL     1       2.408   0.986   7.128  0.00  0.00    -0.216 N 
ATOM     31  H   UNL     1       3.181   0.852   7.699  0.00  0.00    +0.174 HD
BRANCH  30  36
ATOM     32  C   UNL     1      -2.725  -0.667   8.882  0.00  0.00    +0.044 C 
ATOM     33  C   UNL     1      -1.361  -0.228   8.415  0.00  0.00    -0.047 A 
ATOM     34  C   UNL     1      -1.030   1.115   8.420  0.00  0.00    +0.005 A 
ATOM     35  C   UNL     1       0.221   1.520   7.999  0.00  0.00    +0.025 A 
ATOM     36  C   UNL     1       1.143   0.579   7.560  0.00  0.00    +0.048 A 
ATOM     37  C   UNL     1       0.807  -0.769   7.556  0.00  0.00    +0.028 A 
ATOM     38  C   UNL     1      -0.444  -1.168   7.983  0.00  0.00    -0.046 A 
ATOM     39  C   UNL     1      -0.810  -2.630   7.979  0.00  0.00    +0.044 C 
ENDBRANCH  30  36
ENDBRANCH  27  30
ENDBRANCH   1  27
TORSDOF 5
