REMARK  Name = ZINC59264787
REMARK  10 active torsions:
REMARK  status: ('A' for Active; 'I' for Inactive)
REMARK    1  A    between atoms: C_1  and  C_2
REMARK    2  A    between atoms: C_2  and  C_3
REMARK    3  A    between atoms: C_3  and  C_5
REMARK    4  A    between atoms: C_3  and  S_6
REMARK    5  A    between atoms: S_6  and  C_7
REMARK    6  A    between atoms: C_13  and  C_15
REMARK    7  A    between atoms: C_15  and  S_16
REMARK    8  A    between atoms: S_16  and  C_17
REMARK    9  A    between atoms: C_20  and  C_23
REMARK   10  A    between atoms: N_21  and  N_22
REMARK                            x       y       z     vdW  Elec       q    Type
REMARK                         _______ _______ _______ _____ _____    ______ ____
ROOT
ATOM      1  S   UNL     1     -10.717  -3.144  -0.668  0.00  0.00    -0.075 S 
ENDROOT
BRANCH   1   2
ATOM      2  C   UNL     1     -12.375  -3.542  -0.224  0.00  0.00    +0.209 A 
ATOM      3  N   UNL     1     -12.933  -3.357   0.952  0.00  0.00    -0.121 NA
ATOM      4  N   UNL     1     -14.154  -3.759   0.929  0.00  0.00    -0.127 NA
ATOM      5  C   UNL     1     -14.450  -4.224  -0.262  0.00  0.00    +0.183 A 
ATOM      6  N   UNL     1     -13.322  -4.094  -1.039  0.00  0.00    -0.224 N 
BRANCH   5   7
ATOM      7  C   UNL     1     -15.752  -4.779  -0.690  0.00  0.00    +0.035 A 
ATOM      8  C   UNL     1     -15.805  -5.988  -1.384  0.00  0.00    +0.013 A 
ATOM      9  C   UNL     1     -17.023  -6.500  -1.780  0.00  0.00    +0.001 A 
ATOM     10  C   UNL     1     -18.192  -5.817  -1.491  0.00  0.00    +0.001 A 
ATOM     11  C   UNL     1     -18.147  -4.618  -0.803  0.00  0.00    +0.016 A 
ATOM     12  C   UNL     1     -16.935  -4.097  -0.396  0.00  0.00    +0.029 A 
ATOM     13 BR   UNL     1     -16.876  -2.461   0.550  0.00  0.00    -0.050 Br
ENDBRANCH   5   7
BRANCH   6  14
ATOM     14  N   UNL     1     -13.177  -4.447  -2.350  0.00  0.00    -0.295 N 
ATOM     15  H   UNL     1     -12.944  -5.425  -2.438  0.00  0.00    +0.163 HD
ATOM     16  H   UNL     1     -14.008  -4.224  -2.878  0.00  0.00    +0.163 HD
ENDBRANCH   6  14
ENDBRANCH   1   2
BRANCH   1  17
ATOM     17  C   UNL     1     -10.009  -2.453   0.853  0.00  0.00    +0.173 C 
BRANCH  17  24
ATOM     18  C   UNL     1      -3.974  -0.375   1.302  0.00  0.00    +0.160 A 
ATOM     19  N   UNL     1      -4.580  -0.892   0.243  0.00  0.00    -0.133 NA
ATOM     20  N   UNL     1      -5.783  -1.268   0.280  0.00  0.00    -0.125 NA
ATOM     21  C   UNL     1      -6.515  -1.170   1.378  0.00  0.00    +0.189 A 
ATOM     22  S   UNL     1      -5.311  -0.452   2.491  0.00  0.00    -0.024 S 
ATOM     23  N   UNL     1      -7.842  -1.528   1.604  0.00  0.00    -0.263 N 
ATOM     24  C   UNL     1      -8.574  -2.066   0.608  0.00  0.00    +0.229 C 
ATOM     25  O   UNL     1      -8.077  -2.239  -0.485  0.00  0.00    -0.275 OA
ATOM     26  H   UNL     1      -8.239  -1.390   2.478  0.00  0.00    +0.157 HD
BRANCH  18  27
ATOM     27  S   UNL     1      -2.324   0.213   1.489  0.00  0.00    -0.094 S 
BRANCH  27  28
ATOM     28  C   UNL     1      -1.582  -0.035  -0.148  0.00  0.00    +0.050 C 
ATOM     29  C   UNL     1      -1.514  -1.532  -0.456  0.00  0.00    +0.019 C 
BRANCH  28  31
ATOM     30  C   UNL     1      -0.248   2.071   0.022  0.00  0.00    +0.005 C 
ATOM     31  C   UNL     1      -0.170   0.554  -0.162  0.00  0.00    +0.011 C 
ENDBRANCH  28  31
ENDBRANCH  27  28
ENDBRANCH  18  27
ENDBRANCH  17  24
ENDBRANCH   1  17
TORSDOF 8
