REMARK  Name = ZINC01738902
REMARK  6 active torsions:
REMARK  status: ('A' for Active; 'I' for Inactive)
REMARK    1  A    between atoms: C_1  and  C_2
REMARK    2  A    between atoms: C_5  and  N_23
REMARK    3  A    between atoms: C_14  and  C_16
REMARK    4  A    between atoms: N_23  and  C_24
REMARK    5  A    between atoms: C_30  and  C_32
REMARK    6  A    between atoms: C_35  and  N_38
REMARK                            x       y       z     vdW  Elec       q    Type
REMARK                         _______ _______ _______ _____ _____    ______ ____
ROOT
ATOM      1  C   UNL     1      -2.742   4.320  -1.415  0.00  0.00    +0.028 C 
ATOM      2  C   UNL     1      -3.875   3.512  -0.779  0.00  0.00    +0.081 C 
ATOM      3  C   UNL     1      -4.933   3.171  -1.842  0.00  0.00    +0.050 C 
ATOM      4  C   UNL     1      -6.086   2.429  -1.166  0.00  0.00    +0.115 C 
ATOM      5  C   UNL     1      -5.566   1.272  -0.355  0.00  0.00    -0.005 A 
ATOM      6  C   UNL     1      -6.431   0.242  -0.025  0.00  0.00    +0.007 A 
ATOM      7  C   UNL     1      -5.984  -0.831   0.721  0.00  0.00    +0.000 A 
ATOM      8  C   UNL     1      -4.669  -0.884   1.144  0.00  0.00    +0.002 A 
ATOM      9  C   UNL     1      -3.800   0.138   0.819  0.00  0.00    +0.024 A 
ATOM     10  C   UNL     1      -4.247   1.219   0.067  0.00  0.00    +0.042 A 
ATOM     11  N   UNL     1      -3.348   2.244  -0.255  0.00  0.00    -0.264 N 
ATOM     12  C   UNL     1      -2.022   2.072  -0.082  0.00  0.00    +0.251 C 
ATOM     13  O   UNL     1      -1.276   3.032  -0.108  0.00  0.00    -0.270 OA
ENDROOT
BRANCH  12  14
ATOM     14  C   UNL     1      -1.476   0.718   0.139  0.00  0.00    +0.037 A 
ATOM     15  C   UNL     1      -2.022  -0.377  -0.535  0.00  0.00    +0.016 A 
ATOM     16  C   UNL     1      -1.511  -1.639  -0.321  0.00  0.00    +0.039 A 
ATOM     17  C   UNL     1      -0.450  -1.821   0.552  0.00  0.00    +0.123 A 
ATOM     18  C   UNL     1       0.100  -0.737   1.220  0.00  0.00    +0.039 A 
ATOM     19  C   UNL     1      -0.407   0.529   1.018  0.00  0.00    +0.016 A 
ATOM     20  F   UNL     1       0.051  -3.060   0.754  0.00  0.00    -0.205 F 
ENDBRANCH  12  14
BRANCH   4  21
ATOM     21  N   UNL     1      -7.005   1.927  -2.191  0.00  0.00    -0.260 N 
ATOM     22  C   UNL     1      -6.590   0.988  -3.064  0.00  0.00    +0.251 C 
ATOM     23  O   UNL     1      -5.472   0.521  -2.970  0.00  0.00    -0.270 OA
BRANCH  21  24
ATOM     24  C   UNL     1      -8.310   2.422  -2.263  0.00  0.00    +0.037 A 
ATOM     25  C   UNL     1      -8.774   2.992  -3.442  0.00  0.00    +0.023 A 
ATOM     26  C   UNL     1     -10.066   3.477  -3.511  0.00  0.00    +0.002 A 
ATOM     27  C   UNL     1     -10.894   3.403  -2.406  0.00  0.00    +0.000 A 
ATOM     28  C   UNL     1     -10.433   2.840  -1.230  0.00  0.00    +0.002 A 
ATOM     29  C   UNL     1      -9.144   2.350  -1.155  0.00  0.00    +0.023 A 
ENDBRANCH  21  24
BRANCH  22  30
ATOM     30  C   UNL     1      -7.497   0.525  -4.137  0.00  0.00    +0.037 A 
ATOM     31  C   UNL     1      -8.878   0.525  -3.936  0.00  0.00    +0.015 A 
ATOM     32  C   UNL     1      -9.718   0.098  -4.943  0.00  0.00    +0.033 A 
ATOM     33  C   UNL     1      -9.194  -0.342  -6.146  0.00  0.00    +0.126 A 
ATOM     34  C   UNL     1      -7.826  -0.349  -6.349  0.00  0.00    +0.033 A 
ATOM     35  C   UNL     1      -6.974   0.081  -5.353  0.00  0.00    +0.015 A 
BRANCH  33  36
ATOM     36  N   UNL     1     -10.101  -0.805  -7.219  0.00  0.00    +0.056 N 
ATOM     37  O   UNL     1      -9.643  -1.193  -8.279  0.00  0.00    -0.126 OA
ATOM     38  O   UNL     1     -11.307  -0.799  -7.043  0.00  0.00    -0.126 OA
ENDBRANCH  33  36
ENDBRANCH  22  30
ENDBRANCH   4  21
TORSDOF 5
