REMARK  Name = ZINC19794894
REMARK  12 active torsions:
REMARK  status: ('A' for Active; 'I' for Inactive)
REMARK    1  A    between atoms: C_1  and  C_2
REMARK    2  A    between atoms: C_5  and  O_12
REMARK    3  A    between atoms: C_8  and  C_10
REMARK    4  A    between atoms: C_8  and  C_11
REMARK    5  A    between atoms: O_12  and  C_13
REMARK    6  A    between atoms: C_13  and  C_14
REMARK    7  A    between atoms: C_14  and  C_16
REMARK    8  A    between atoms: C_14  and  O_40
REMARK    9  A    between atoms: C_16  and  N_17
REMARK   10  A    between atoms: N_20  and  C_23
REMARK   11  A    between atoms: C_23  and  C_24
REMARK   12  A    between atoms: C_24  and  N_25
REMARK                            x       y       z     vdW  Elec       q    Type
REMARK                         _______ _______ _______ _____ _____    ______ ____
ROOT
ATOM      1  N   UNL     1       1.175   1.411  -4.986  0.00  0.00    -0.303 NA
ATOM      2  C   UNL     1      -0.158   0.804  -4.866  0.00  0.00    +0.066 C 
ATOM      3  C   UNL     1      -0.870   1.381  -3.641  0.00  0.00    -0.063 C 
ATOM      4  N   UNL     1      -0.065   1.119  -2.440  0.00  0.00    +0.382 N 
ATOM      5  C   UNL     1       1.268   1.726  -2.560  0.00  0.00    -0.063 C 
ATOM      6  C   UNL     1       1.980   1.148  -3.785  0.00  0.00    +0.066 C 
ATOM      7  H   UNL     1       0.064   0.030  -2.349  0.00  0.00    -0.082 HD
ENDROOT
BRANCH   1   8
ATOM      8  C   UNL     1       1.863   0.937  -6.195  0.00  0.00    +0.117 C 
BRANCH   8   9
ATOM      9  C   UNL     1       3.325   1.387  -6.159  0.00  0.00    +0.154 C 
BRANCH   9  10
ATOM     10  O   UNL     1       3.383   2.814  -6.107  0.00  0.00    -0.388 OA
ATOM     11  H   UNL     1       2.918   3.353  -5.268  0.00  0.00    +0.210 HD
ENDBRANCH   9  10
BRANCH   9  12
ATOM     12  C   UNL     1       4.041   0.894  -7.418  0.00  0.00    +0.192 C 
BRANCH  12  13
ATOM     13  O   UNL     1       5.431   1.213  -7.331  0.00  0.00    -0.374 OA
BRANCH  13  17
ATOM     14  C   UNL     1       7.058   2.580 -11.763  0.00  0.00    +0.007 C 
ATOM     15  C   UNL     1       7.036   1.462 -10.719  0.00  0.00    -0.011 C 
ATOM     16  C   UNL     1       6.218   1.911  -9.507  0.00  0.00    +0.035 C 
ATOM     17  C   UNL     1       6.196   0.793  -8.463  0.00  0.00    +0.119 C 
ATOM     18  C   UNL     1       7.627   0.478  -8.023  0.00  0.00    +0.038 C 
ATOM     19  C   UNL     1       8.445   0.028  -9.235  0.00  0.00    -0.032 C 
ATOM     20  C   UNL     1       8.467   1.147 -10.279  0.00  0.00    +0.009 C 
ATOM     21  C   UNL     1       7.811  -1.224  -9.843  0.00  0.00    +0.011 C 
ATOM     22  C   UNL     1       9.877  -0.287  -8.796  0.00  0.00    +0.011 C 
ENDBRANCH  13  17
ENDBRANCH  12  13
ENDBRANCH   9  12
ENDBRANCH   8   9
ENDBRANCH   1   8
BRANCH   4  23
ATOM     23  C   UNL     1      -0.753   1.593  -1.232  0.00  0.00    -0.059 C 
BRANCH  23  24
ATOM     24  C   UNL     1      -0.013   1.086   0.008  0.00  0.00    +0.098 C 
BRANCH  24  25
ATOM     25  N   UNL     1      -0.698   1.558   1.213  0.00  0.00    -0.236 N 
ATOM     26  C   UNL     1      -0.330   2.738   1.749  0.00  0.00    +0.254 C 
ATOM     27  O   UNL     1       0.558   3.387   1.229  0.00  0.00    -0.270 OA
ATOM     28  C   UNL     1      -0.998   3.247   2.955  0.00  0.00    +0.046 A 
ATOM     29  C   UNL     1      -0.653   4.458   3.538  0.00  0.00    +0.014 A 
ATOM     30  C   UNL     1      -1.311   4.895   4.681  0.00  0.00    +0.001 A 
ATOM     31  C   UNL     1      -2.303   4.158   5.262  0.00  0.00    +0.008 A 
ATOM     32  C   UNL     1      -2.683   2.925   4.703  0.00  0.00    -0.016 A 
ATOM     33  C   UNL     1      -2.023   2.471   3.542  0.00  0.00    +0.006 A 
ATOM     34  C   UNL     1      -2.381   1.235   2.957  0.00  0.00    +0.046 A 
ATOM     35  C   UNL     1      -3.388   0.480   3.541  0.00  0.00    +0.014 A 
ATOM     36  C   UNL     1      -4.031   0.939   4.684  0.00  0.00    +0.001 A 
ATOM     37  C   UNL     1      -3.698   2.131   5.263  0.00  0.00    +0.008 A 
ATOM     38  C   UNL     1      -1.670   0.795   1.748  0.00  0.00    +0.254 C 
ATOM     39  O   UNL     1      -1.962  -0.265   1.227  0.00  0.00    -0.270 OA
ENDBRANCH  24  25
ENDBRANCH  23  24
ENDBRANCH   4  23
TORSDOF 9
