REMARK  Name = ZINC15725284
REMARK  5 active torsions:
REMARK  status: ('A' for Active; 'I' for Inactive)
REMARK    1  A    between atoms: C_1  and  C_2
REMARK    2  A    between atoms: C_5  and  C_8
REMARK    3  A    between atoms: N_26  and  C_27
REMARK    4  A    between atoms: C_30  and  C_34
REMARK    5  A    between atoms: C_32  and  C_33
REMARK                            x       y       z     vdW  Elec       q    Type
REMARK                         _______ _______ _______ _____ _____    ______ ____
ROOT
ATOM      1  C   UNL     1      -1.897   3.644   8.210  0.00  0.00    +0.155 C 
ATOM      2  C   UNL     1      -2.406   4.908   8.864  0.00  0.00    +0.046 A 
ATOM      3  C   UNL     1      -3.549   5.528   8.499  0.00  0.00    -0.015 A 
ATOM      4  C   UNL     1      -3.693   6.689   9.355  0.00  0.00    +0.005 A 
ATOM      5  C   UNL     1      -4.667   7.688   9.440  0.00  0.00    +0.030 A 
ATOM      6  C   UNL     1      -4.478   8.659  10.394  0.00  0.00    +0.042 A 
ATOM      7  C   UNL     1      -3.377   8.660  11.236  0.00  0.00    +0.022 A 
ATOM      8  C   UNL     1      -2.399   7.683  11.172  0.00  0.00    +0.027 A 
ATOM      9  C   UNL     1      -2.565   6.684  10.215  0.00  0.00    +0.047 A 
ATOM     10  N   UNL     1      -1.810   5.594   9.889  0.00  0.00    -0.356 N 
ATOM     11  H   UNL     1      -0.977   5.343  10.318  0.00  0.00    +0.166 HD
ATOM     12 CL   UNL     1      -5.655   9.927  10.547  0.00  0.00    -0.084 Cl
ATOM     13  C   UNL     1      -4.465   5.063   7.396  0.00  0.00    +0.056 C 
ATOM     14  C   UNL     1      -4.155   3.601   7.075  0.00  0.00    +0.115 C 
ATOM     15  N   UNL     1      -2.698   3.422   6.993  0.00  0.00    -0.273 N 
ATOM     16  C   UNL     1      -2.109   3.069   5.833  0.00  0.00    +0.307 C 
ATOM     17  O   UNL     1      -0.912   2.857   5.799  0.00  0.00    -0.252 OA
ATOM     18  N   UNL     1      -2.847   2.951   4.712  0.00  0.00    -0.269 N 
ATOM     19  H   UNL     1      -3.794   3.159   4.730  0.00  0.00    +0.156 HD
ENDROOT
BRANCH  18  20
ATOM     20  C   UNL     1      -2.246   2.530   3.520  0.00  0.00    +0.038 A 
ATOM     21  C   UNL     1      -0.880   2.695   3.333  0.00  0.00    +0.024 A 
ATOM     22  C   UNL     1      -0.291   2.279   2.155  0.00  0.00    +0.005 A 
ATOM     23  C   UNL     1      -1.059   1.698   1.163  0.00  0.00    -0.050 A 
ATOM     24  C   UNL     1      -2.420   1.536   1.345  0.00  0.00    +0.008 A 
ATOM     25  C   UNL     1      -3.015   1.946   2.522  0.00  0.00    -0.029 A 
ATOM     26  C   UNL     1      -4.498   1.764   2.721  0.00  0.00    +0.045 C 
ATOM     27  C   UNL     1      -0.412   1.245  -0.120  0.00  0.00    +0.044 C 
ENDBRANCH  18  20
BRANCH   1  32
ATOM     28  C   UNL     1      -2.530  -0.824  11.819  0.00  0.00    +0.044 C 
ATOM     29  C   UNL     1      -2.365   0.341  10.878  0.00  0.00    -0.050 A 
ATOM     30  C   UNL     1      -1.119   0.641  10.362  0.00  0.00    +0.004 A 
ATOM     31  C   UNL     1      -0.967   1.710   9.498  0.00  0.00    +0.006 A 
ATOM     32  C   UNL     1      -2.062   2.478   9.151  0.00  0.00    -0.021 A 
ATOM     33  C   UNL     1      -3.308   2.181   9.671  0.00  0.00    +0.006 A 
ATOM     34  C   UNL     1      -3.461   1.109  10.530  0.00  0.00    +0.004 A 
ENDBRANCH   1  32
TORSDOF 2
