REMARK  Name = ZINC09242911
REMARK  10 active torsions:
REMARK  status: ('A' for Active; 'I' for Inactive)
REMARK    1  A    between atoms: C_1  and  N_55
REMARK    2  A    between atoms: C_2  and  C_3
REMARK    3  A    between atoms: C_2  and  N_55
REMARK    4  A    between atoms: C_9  and  C_10
REMARK    5  A    between atoms: C_9  and  N_55
REMARK    6  A    between atoms: C_11  and  O_31
REMARK    7  A    between atoms: C_18  and  C_19
REMARK    8  A    between atoms: C_22  and  C_25
REMARK    9  A    between atoms: C_25  and  O_27
REMARK   10  A    between atoms: O_27  and  C_28
REMARK                            x       y       z     vdW  Elec       q    Type
REMARK                         _______ _______ _______ _____ _____    ______ ____
ROOT
ATOM      1  C   UNL     1       1.176   3.168   0.091  0.00  0.00    +0.020 A 
ATOM      2  C   UNL     1       1.177   1.782   0.101  0.00  0.00    +0.122 A 
ATOM      3  C   UNL     1      -0.020   1.073   0.104  0.00  0.00    +0.046 A 
ATOM      4  C   UNL     1      -1.213   1.740   0.091  0.00  0.00    +0.019 A 
ATOM      5  C   UNL     1      -1.229   3.135   0.087  0.00  0.00    +0.068 A 
ATOM      6  C   UNL     1      -0.027   3.861   0.085  0.00  0.00    +0.144 A 
ATOM      7  O   UNL     1      -0.293   5.186   0.075  0.00  0.00    -0.451 OA
ATOM      8  C   UNL     1      -1.624   5.432   0.070  0.00  0.00    +0.176 C 
ATOM      9  C   UNL     1      -2.212   6.653   0.061  0.00  0.00    +0.058 C 
ATOM     10  C   UNL     1      -2.316   4.130   0.078  0.00  0.00    +0.231 C 
ATOM     11  O   UNL     1      -3.517   3.924   0.076  0.00  0.00    -0.283 OA
ENDROOT
BRANCH   9  12
ATOM     12  C   UNL     1      -1.390   7.867   0.171  0.00  0.00    -0.021 A 
ATOM     13  C   UNL     1       0.007   7.770   0.163  0.00  0.00    +0.009 A 
ATOM     14  C   UNL     1       0.772   8.903   0.259  0.00  0.00    +0.015 A 
ATOM     15  C   UNL     1       0.159  10.153   0.379  0.00  0.00    +0.059 A 
ATOM     16  C   UNL     1      -1.235  10.251   0.393  0.00  0.00    +0.015 A 
ATOM     17  C   UNL     1      -2.003   9.120   0.290  0.00  0.00    +0.009 A 
BRANCH  15  18
ATOM     18  C   UNL     1       0.985  11.373   0.489  0.00  0.00    +0.339 C 
ATOM     19  O   UNL     1       0.453  12.460   0.593  0.00  0.00    -0.245 OA
BRANCH  18  20
ATOM     20  O   UNL     1       2.329  11.279   0.475  0.00  0.00    -0.464 OA
ATOM     21  C   UNL     1       3.078  12.518   0.588  0.00  0.00    +0.280 C 
ENDBRANCH  18  20
ENDBRANCH  15  18
ENDBRANCH   9  12
BRANCH   2  22
ATOM     22  O   UNL     1       2.357   1.110   0.108  0.00  0.00    -0.506 OA
ATOM     23  H   UNL     1       2.700   0.909  -0.773  0.00  0.00    +0.292 HD
ENDBRANCH   2  22
BRANCH   1  24
ATOM     24  C   UNL     1       2.481   3.922   0.089  0.00  0.00    -0.035 C 
BRANCH  24  26
ATOM     25  C   UNL     1       3.234   2.893  -1.969  0.00  0.00    -0.095 C 
ATOM     26  N   UNL     1       2.886   4.170  -1.311  0.00  0.00    +0.383 N 
ATOM     27  H   UNL     1       2.101   4.601  -1.814  0.00  0.00    -0.081 HD
BRANCH  26  28
ATOM     28  C   UNL     1       4.043   5.089  -1.347  0.00  0.00    -0.043 C 
BRANCH  28  29
ATOM     29  C   UNL     1       4.295   5.497  -2.776  0.00  0.00    -0.064 A 
ATOM     30  C   UNL     1       5.166   4.765  -3.560  0.00  0.00    +0.002 A 
ATOM     31  C   UNL     1       5.394   5.137  -4.872  0.00  0.00    +0.000 A 
ATOM     32  C   UNL     1       4.758   6.246  -5.396  0.00  0.00    +0.000 A 
ATOM     33  C   UNL     1       3.890   6.981  -4.610  0.00  0.00    +0.000 A 
ATOM     34  C   UNL     1       3.659   6.607  -3.300  0.00  0.00    +0.002 A 
ENDBRANCH  28  29
ENDBRANCH  26  28
ENDBRANCH  24  26
ENDBRANCH   1  24
TORSDOF 8
