REMARK  Name = ZINC20709319
REMARK  9 active torsions:
REMARK  status: ('A' for Active; 'I' for Inactive)
REMARK    1  A    between atoms: C_1  and  C_2
REMARK    2  A    between atoms: C_2  and  O_3
REMARK    3  A    between atoms: O_3  and  C_4
REMARK    4  A    between atoms: C_7  and  N_10
REMARK    5  A    between atoms: N_10  and  S_11
REMARK    6  A    between atoms: S_11  and  C_14
REMARK    7  A    between atoms: C_27  and  C_30
REMARK    8  A    between atoms: C_32  and  N_37
REMARK    9  A    between atoms: C_35  and  O_36
REMARK                            x       y       z     vdW  Elec       q    Type
REMARK                         _______ _______ _______ _____ _____    ______ ____
ROOT
ATOM      1  C   UNL     1       2.335   1.821   0.141  0.00  0.00    +0.109 A 
ATOM      2  C   UNL     1       1.260   2.688   0.221  0.00  0.00    +0.030 A 
ATOM      3  C   UNL     1      -0.024   2.192   0.324  0.00  0.00    +0.025 A 
ATOM      4  C   UNL     1      -0.246   0.820   0.347  0.00  0.00    +0.031 A 
ATOM      5  C   UNL     1       0.846  -0.051   0.254  0.00  0.00    -0.018 A 
ATOM      6  C   UNL     1       2.124   0.455   0.158  0.00  0.00    +0.034 A 
ATOM      7  C   UNL     1       0.564  -1.502   0.257  0.00  0.00    +0.049 C 
ATOM      8  C   UNL     1       1.556  -2.495   0.742  0.00  0.00    -0.023 C 
ATOM      9  C   UNL     1       0.920  -3.532   1.248  0.00  0.00    -0.030 C 
ATOM     10  C   UNL     1      -0.589  -3.285   1.205  0.00  0.00    +0.033 C 
ATOM     11  C   UNL     1      -0.652  -1.752   1.199  0.00  0.00    +0.029 C 
ATOM     12  C   UNL     1      -1.840  -1.111   0.506  0.00  0.00    +0.108 C 
ATOM     13  N   UNL     1      -1.554   0.340   0.485  0.00  0.00    -0.336 N 
ATOM     14  H   UNL     1      -2.377   1.065   0.578  0.00  0.00    +0.147 HD
ENDROOT
BRANCH  12  15
ATOM     15  C   UNL     1      -3.104  -1.384   1.280  0.00  0.00    +0.017 A 
ATOM     16  C   UNL     1      -3.625  -0.416   2.117  0.00  0.00    +0.041 A 
ATOM     17  C   UNL     1      -4.784  -0.666   2.827  0.00  0.00    +0.127 A 
ATOM     18  C   UNL     1      -5.426  -1.885   2.701  0.00  0.00    +0.036 A 
ATOM     19  C   UNL     1      -4.910  -2.855   1.865  0.00  0.00    +0.048 A 
ATOM     20  C   UNL     1      -3.749  -2.605   1.147  0.00  0.00    +0.122 A 
BRANCH  17  21
ATOM     21  N   UNL     1      -5.340   0.372   3.724  0.00  0.00    +0.056 N 
ATOM     22  O   UNL     1      -4.776   1.446   3.835  0.00  0.00    -0.126 OA
ATOM     23  O   UNL     1      -6.361   0.153   4.350  0.00  0.00    -0.126 OA
ENDBRANCH  17  21
BRANCH  20  24
ATOM     24  O   UNL     1      -3.242  -3.556   0.320  0.00  0.00    -0.506 OA
ATOM     25  H   UNL     1      -3.754  -4.524   0.216  0.00  0.00    +0.292 HD
ENDBRANCH  20  24
ENDBRANCH  12  15
BRANCH   1  26
ATOM     26  S   UNL     1       3.973   2.459   0.016  0.00  0.00    +0.072 S 
ATOM     27  O   UNL     1       3.917   3.810   0.453  0.00  0.00    -0.150 OA
ATOM     28  O   UNL     1       4.829   1.498   0.619  0.00  0.00    -0.150 OA
BRANCH  26  29
ATOM     29  N   UNL     1       4.362   2.498  -1.593  0.00  0.00    -0.216 N 
ATOM     30  H   UNL     1       5.188   1.879  -1.974  0.00  0.00    +0.174 HD
BRANCH  29  34
ATOM     31  C   UNL     1       2.216   4.942  -4.199  0.00  0.00    +0.121 A 
ATOM     32  C   UNL     1       3.127   5.502  -3.315  0.00  0.00    +0.047 A 
ATOM     33  C   UNL     1       3.839   4.693  -2.452  0.00  0.00    +0.028 A 
ATOM     34  C   UNL     1       3.642   3.319  -2.468  0.00  0.00    +0.048 A 
ATOM     35  C   UNL     1       2.733   2.758  -3.356  0.00  0.00    +0.028 A 
ATOM     36  C   UNL     1       2.018   3.570  -4.215  0.00  0.00    +0.047 A 
BRANCH  31  37
ATOM     37  O   UNL     1       1.516   5.740  -5.049  0.00  0.00    -0.492 OA
BRANCH  37  39
ATOM     38  C   UNL     1      -0.093   6.147  -6.806  0.00  0.00    +0.048 C 
ATOM     39  C   UNL     1       0.595   5.096  -5.932  0.00  0.00    +0.225 C 
ENDBRANCH  37  39
ENDBRANCH  31  37
ENDBRANCH  29  34
ENDBRANCH  26  29
ENDBRANCH   1  26
TORSDOF 8
