REMARK  Name = ZINC42787400
REMARK  2 active torsions:
REMARK  status: ('A' for Active; 'I' for Inactive)
REMARK    1  A    between atoms: N_12  and  C_16
REMARK    2  A    between atoms: C_16  and  C_17
REMARK                            x       y       z     vdW  Elec       q    Type
REMARK                         _______ _______ _______ _____ _____    ______ ____
ROOT
ATOM      1  C   UNL     1      -0.017   1.377   0.010  0.00  0.00    +0.000 A 
ATOM      2  C   UNL     1       1.172   2.082   0.002  0.00  0.00    +0.000 A 
ATOM      3  C   UNL     1       2.375   1.405  -0.015  0.00  0.00    +0.006 A 
ATOM      4  C   UNL     1       2.398   0.019  -0.025  0.00  0.00    -0.012 A 
ATOM      5  C   UNL     1       1.207  -0.686  -0.013  0.00  0.00    -0.042 A 
ATOM      6  C   UNL     1       0.002  -0.004   0.002  0.00  0.00    +0.004 A 
ATOM      7  C   UNL     1       1.492  -2.174  -0.016  0.00  0.00    +0.038 C 
ATOM      8  C   UNL     1       2.965  -2.303  -0.464  0.00  0.00    +0.045 C 
ATOM      9  C   UNL     1       3.551  -0.948  -0.050  0.00  0.00    +0.138 C 
ATOM     10  C   UNL     1       4.627  -0.503  -1.006  0.00  0.00    +0.251 C 
ATOM     11  O   UNL     1       4.518  -0.305  -2.197  0.00  0.00    -0.272 OA
ATOM     12  N   UNL     1       5.740  -0.373  -0.252  0.00  0.00    -0.219 N 
ATOM     13  C   UNL     1       5.504  -0.674   1.032  0.00  0.00    +0.310 C 
ATOM     14  O   UNL     1       6.350  -0.631   1.903  0.00  0.00    -0.252 OA
ATOM     15  N   UNL     1       4.221  -1.029   1.248  0.00  0.00    -0.281 N 
ATOM     16  H   UNL     1       3.822  -1.286   2.095  0.00  0.00    +0.152 HD
ENDROOT
BRANCH  12  17
ATOM     17  C   UNL     1       7.044   0.044  -0.773  0.00  0.00    +0.155 C 
BRANCH  17  18
ATOM     18  C   UNL     1       7.159   1.545  -0.696  0.00  0.00    -0.004 A 
ATOM     19  C   UNL     1       6.939   2.305  -1.803  0.00  0.00    +0.009 A 
ATOM     20  C   UNL     1       7.039   3.693  -1.755  0.00  0.00    +0.021 A 
ATOM     21  C   UNL     1       7.362   4.330  -0.594  0.00  0.00    +0.050 A 
ATOM     22  C   UNL     1       7.596   3.577   0.569  0.00  0.00    +0.019 A 
ATOM     23  C   UNL     1       7.487   2.165   0.522  0.00  0.00    +0.077 A 
ATOM     24  N   UNL     1       7.704   1.444   1.627  0.00  0.00    -0.255 NA
ATOM     25  C   UNL     1       8.011   2.017   2.765  0.00  0.00    +0.111 A 
ATOM     26  C   UNL     1       8.128   3.401   2.881  0.00  0.00    +0.020 A 
ATOM     27  C   UNL     1       7.931   4.196   1.788  0.00  0.00    +0.013 A 
ATOM     28 CL   UNL     1       7.484   6.062  -0.552  0.00  0.00    -0.083 Cl
ENDBRANCH  17  18
ENDBRANCH  12  17
TORSDOF 2
