REMARK  Name = ZINC16846820
REMARK  7 active torsions:
REMARK  status: ('A' for Active; 'I' for Inactive)
REMARK    1  A    between atoms: C_1  and  C_2
REMARK    2  A    between atoms: C_2  and  C_3
REMARK    3  A    between atoms: C_3  and  C_31
REMARK    4  A    between atoms: C_13  and  S_18
REMARK    5  A    between atoms: S_18  and  C_19
REMARK    6  A    between atoms: C_19  and  C_20
REMARK    7  A    between atoms: C_20  and  C_22
REMARK                            x       y       z     vdW  Elec       q    Type
REMARK                         _______ _______ _______ _____ _____    ______ ____
ROOT
ATOM      1  C   UNL     1       3.356  -1.783  -7.937  0.00  0.00    +0.071 C 
ATOM      2  C   UNL     1       2.896  -0.927  -6.754  0.00  0.00    +0.071 C 
ATOM      3  C   UNL     1       1.696  -0.099  -7.208  0.00  0.00    -0.019 A 
ATOM      4  C   UNL     1       1.459   0.061  -8.531  0.00  0.00    +0.021 A 
ATOM      5  S   UNL     1       0.002   1.063  -8.614  0.00  0.00    -0.071 S 
ATOM      6  C   UNL     1      -0.282   1.263  -6.873  0.00  0.00    +0.116 A 
ATOM      7  C   UNL     1       0.767   0.542  -6.285  0.00  0.00    +0.056 A 
ATOM      8  C   UNL     1       0.775   0.539  -4.806  0.00  0.00    +0.174 A 
ATOM      9  N   UNL     1       1.557   0.004  -3.901  0.00  0.00    -0.128 NA
ATOM     10  N   UNL     1       1.128   0.306  -2.724  0.00  0.00    -0.122 NA
ATOM     11  C   UNL     1       0.045   1.043  -2.809  0.00  0.00    +0.199 A 
ATOM     12  N   UNL     1      -0.219   1.222  -4.140  0.00  0.00    -0.241 N 
ATOM     13  C   UNL     1      -1.190   1.889  -4.837  0.00  0.00    +0.202 A 
ATOM     14  N   UNL     1      -1.203   1.896  -6.149  0.00  0.00    -0.208 NA
ATOM     15  N   UNL     1      -2.171   2.564  -4.149  0.00  0.00    -0.328 N 
ATOM     16  C   UNL     1       2.276  -0.502  -9.652  0.00  0.00    +0.203 C 
ATOM     17  O   UNL     1       3.518  -0.969  -9.101  0.00  0.00    -0.368 OA
ATOM     18  C   UNL     1       2.309  -2.863  -8.216  0.00  0.00    +0.042 C 
ATOM     19  H   UNL     1      -2.171   2.565  -3.179  0.00  0.00    +0.145 HD
ATOM     20  H   UNL     1      -2.864   3.040  -4.634  0.00  0.00    +0.145 HD
ENDROOT
BRANCH   1  22
ATOM     21  C   UNL     1       5.144  -3.318  -8.768  0.00  0.00    +0.007 C 
ATOM     22  C   UNL     1       4.691  -2.448  -7.594  0.00  0.00    +0.032 C 
ENDBRANCH   1  22
BRANCH  11  23
ATOM     23  S   UNL     1      -0.890   1.687  -1.462  0.00  0.00    -0.078 S 
BRANCH  23  24
ATOM     24  C   UNL     1      -0.013   1.086   0.008  0.00  0.00    +0.157 C 
BRANCH  24  25
ATOM     25  C   UNL     1      -0.718   1.572   1.248  0.00  0.00    +0.173 C 
ATOM     26  O   UNL     1      -1.714   2.256   1.150  0.00  0.00    -0.291 OA
BRANCH  25  27
ATOM     27  C   UNL     1      -0.198   1.216   2.577  0.00  0.00    +0.018 A 
ATOM     28  C   UNL     1       0.948   0.422   2.694  0.00  0.00    +0.013 A 
ATOM     29  C   UNL     1       1.433   0.098   3.943  0.00  0.00    +0.020 A 
ATOM     30  C   UNL     1       0.781   0.546   5.080  0.00  0.00    +0.041 A 
ATOM     31  C   UNL     1      -0.358   1.328   4.972  0.00  0.00    +0.020 A 
ATOM     32  C   UNL     1      -0.850   1.666   3.730  0.00  0.00    +0.013 A 
ATOM     33 CL   UNL     1       1.395   0.126   6.649  0.00  0.00    -0.084 Cl
ENDBRANCH  25  27
ENDBRANCH  24  25
ENDBRANCH  23  24
ENDBRANCH  11  23
TORSDOF 5
