REMARK  Name = ZINC11782283
REMARK  9 active torsions:
REMARK  status: ('A' for Active; 'I' for Inactive)
REMARK    1  A    between atoms: C_1  and  C_2
REMARK    2  A    between atoms: C_9  and  C_20
REMARK    3  A    between atoms: C_17  and  C_19
REMARK    4  A    between atoms: C_20  and  N_21
REMARK    5  A    between atoms: N_21  and  C_22
REMARK    6  A    between atoms: C_22  and  C_23
REMARK    7  A    between atoms: C_23  and  C_24
REMARK    8  A    between atoms: C_30  and  C_32
REMARK    9  A    between atoms: C_33  and  C_37
REMARK                            x       y       z     vdW  Elec       q    Type
REMARK                         _______ _______ _______ _____ _____    ______ ____
ROOT
ATOM      1  C   UNL     1      -0.708   2.045  -7.061  0.00  0.00    +0.044 C 
ATOM      2  C   UNL     1      -1.548   2.510  -5.900  0.00  0.00    -0.050 A 
ATOM      3  C   UNL     1      -2.835   2.003  -5.736  0.00  0.00    +0.005 A 
ATOM      4  C   UNL     1      -3.619   2.403  -4.698  0.00  0.00    +0.026 A 
ATOM      5  C   UNL     1      -3.129   3.340  -3.773  0.00  0.00    +0.048 A 
ATOM      6  C   UNL     1      -1.820   3.854  -3.941  0.00  0.00    -0.001 A 
ATOM      7  C   UNL     1      -1.039   3.420  -5.024  0.00  0.00    +0.013 A 
ATOM      8  C   UNL     1      -1.327   4.794  -3.014  0.00  0.00    +0.018 A 
ATOM      9  C   UNL     1      -2.138   5.175  -1.988  0.00  0.00    +0.008 A 
ATOM     10  C   UNL     1      -3.422   4.626  -1.872  0.00  0.00    +0.104 A 
ATOM     11  N   UNL     1      -4.235   5.020  -0.819  0.00  0.00    -0.313 N 
ATOM     12  C   UNL     1      -5.030   3.892  -0.317  0.00  0.00    +0.125 C 
ATOM     13  C   UNL     1      -5.774   4.320   0.953  0.00  0.00    +0.126 C 
ATOM     14  N   UNL     1      -6.542   5.540   0.660  0.00  0.00    -0.299 N 
ATOM     15  C   UNL     1      -5.841   6.666   0.023  0.00  0.00    +0.126 C 
ATOM     16  C   UNL     1      -5.095   6.145  -1.210  0.00  0.00    +0.125 C 
ATOM     17  C   UNL     1      -7.853   5.621   0.963  0.00  0.00    +0.213 C 
ATOM     18  O   UNL     1      -8.414   4.681   1.484  0.00  0.00    -0.276 OA
ATOM     19  C   UNL     1      -8.620   6.881   0.654  0.00  0.00    +0.109 C 
ATOM     20  N   UNL     1      -3.949   3.720  -2.733  0.00  0.00    -0.343 N 
ATOM     21  H   UNL     1      -4.897   3.343  -2.619  0.00  0.00    +0.167 HD
ENDROOT
BRANCH   9  22
ATOM     22  C   UNL     1      -1.653   6.182  -0.976  0.00  0.00    +0.146 C 
BRANCH  22  23
ATOM     23  N   UNL     1      -0.300   6.617  -1.330  0.00  0.00    -0.292 N 
ATOM     24  C   UNL     1       0.764   5.874  -0.966  0.00  0.00    +0.254 C 
ATOM     25  O   UNL     1       1.883   6.200  -1.317  0.00  0.00    -0.269 OA
BRANCH  24  26
ATOM     26  C   UNL     1       0.573   4.673  -0.148  0.00  0.00    +0.077 A 
ATOM     27  C   UNL     1       1.526   3.855   0.439  0.00  0.00    -0.031 A 
ATOM     28  C   UNL     1       1.069   2.784   1.166  0.00  0.00    +0.011 A 
ATOM     29  C   UNL     1      -0.270   2.572   1.264  0.00  0.00    +0.046 A 
ATOM     30  S   UNL     1      -0.946   3.877   0.344  0.00  0.00    -0.092 S 
ATOM     31  C   UNL     1       3.000   4.133   0.290  0.00  0.00    +0.045 C 
ENDBRANCH  24  26
BRANCH  23  32
ATOM     32  C   UNL     1      -0.103   7.861  -2.079  0.00  0.00    +0.113 C 
BRANCH  32  33
ATOM     33  C   UNL     1       0.167   9.007  -1.103  0.00  0.00    +0.049 C 
BRANCH  33  34
ATOM     34  C   UNL     1       0.249  10.306  -1.863  0.00  0.00    -0.072 C 
ATOM     35  C   UNL     1      -0.820  11.032  -1.941  0.00  0.00    -0.028 C 
ATOM     36  C   UNL     1      -0.895  12.341  -2.670  0.00  0.00    +0.027 C 
ATOM     37  C   UNL     1       0.512  12.885  -2.925  0.00  0.00    +0.004 C 
ATOM     38  C   UNL     1       1.361  11.765  -3.539  0.00  0.00    +0.005 C 
ATOM     39  C   UNL     1       1.566  10.679  -2.478  0.00  0.00    +0.030 C 
ENDBRANCH  33  34
ENDBRANCH  32  33
ENDBRANCH  23  32
ENDBRANCH  22  23
ENDBRANCH   9  22
TORSDOF 6
