REMARK  Name = ZINC43428869
REMARK  0 active torsions:
REMARK  status: ('A' for Active; 'I' for Inactive)
REMARK                            x       y       z     vdW  Elec       q    Type
REMARK                         _______ _______ _______ _____ _____    ______ ____
ROOT
ATOM      1  C   UNL     1       0.090   1.685  -0.347  0.00  0.00    +0.004 C 
ATOM      2  C   UNL     1       1.588   2.071  -0.245  0.00  0.00    +0.025 C 
ATOM      3  C   UNL     1       2.343   0.749  -0.234  0.00  0.00    +0.104 C 
ATOM      4  C   UNL     1       1.333  -0.223   0.439  0.00  0.00    +0.139 C 
ATOM      5  C   UNL     1       0.035   0.132  -0.285  0.00  0.00    +0.033 C 
ATOM      6  O   UNL     1       1.854  -1.526   0.286  0.00  0.00    -0.373 OA
ATOM      7  C   UNL     1       3.051  -1.701   1.067  0.00  0.00    +0.179 C 
ATOM      8  C   UNL     1       4.131  -0.689   0.690  0.00  0.00    +0.135 C 
ATOM      9  N   UNL     1       3.563   0.673   0.557  0.00  0.00    -0.305 N 
ATOM     10  C   UNL     1       4.145   1.796   1.157  0.00  0.00    +0.170 A 
ATOM     11  C   UNL     1       5.070   2.591   0.503  0.00  0.00    +0.180 A 
ATOM     12  N   UNL     1       5.541   3.613   1.175  0.00  0.00    -0.177 NA
ATOM     13  S   UNL     1       4.799   3.534   2.608  0.00  0.00    +0.119 S 
ATOM     14  N   UNL     1       3.849   2.176   2.384  0.00  0.00    -0.174 NA
ATOM     15 CL   UNL     1       5.580   2.252  -1.121  0.00  0.00    -0.058 Cl
ENDROOT
TORSDOF 0
