REMARK  Name = ZINC35777844
REMARK  14 active torsions:
REMARK  status: ('A' for Active; 'I' for Inactive)
REMARK    1  A    between atoms: C_1  and  C_2
REMARK    2  A    between atoms: C_3  and  C_22
REMARK    3  A    between atoms: C_4  and  O_13
REMARK    4  A    between atoms: N_5  and  C_7
REMARK    5  A    between atoms: O_13  and  C_14
REMARK    6  A    between atoms: C_22  and  N_23
REMARK    7  A    between atoms: N_23  and  C_24
REMARK    8  A    between atoms: N_23  and  C_28
REMARK    9  A    between atoms: C_24  and  C_25
REMARK   10  A    between atoms: C_28  and  C_29
REMARK   11  A    between atoms: C_29  and  C_31
REMARK   12  A    between atoms: C_29  and  O_39
REMARK   13  A    between atoms: C_31  and  O_32
REMARK   14  A    between atoms: O_32  and  C_33
REMARK                            x       y       z     vdW  Elec       q    Type
REMARK                         _______ _______ _______ _____ _____    ______ ____
ROOT
ATOM      1  C   UNL     1      -0.143   1.943   0.508  0.00  0.00    +0.068 C 
ATOM      2  C   UNL     1       0.178   0.471   0.460  0.00  0.00    +0.065 A 
ATOM      3  C   UNL     1       0.240  -0.314  -0.695  0.00  0.00    +0.021 A 
ATOM      4  C   UNL     1       0.558  -1.582  -0.322  0.00  0.00    +0.225 A 
ATOM      5  N   UNL     1       0.691  -1.588   1.032  0.00  0.00    -0.200 N 
ATOM      6  N   UNL     1       0.452  -0.286   1.491  0.00  0.00    -0.168 NA
ENDROOT
BRANCH   5   7
ATOM      7  C   UNL     1       1.015  -2.697   1.826  0.00  0.00    +0.069 A 
ATOM      8  C   UNL     1       0.403  -3.922   1.592  0.00  0.00    +0.028 A 
ATOM      9  C   UNL     1       0.725  -5.013   2.375  0.00  0.00    +0.002 A 
ATOM     10  C   UNL     1       1.654  -4.887   3.391  0.00  0.00    +0.000 A 
ATOM     11  C   UNL     1       2.265  -3.669   3.626  0.00  0.00    +0.002 A 
ATOM     12  C   UNL     1       1.952  -2.575   2.843  0.00  0.00    +0.028 A 
ENDBRANCH   5   7
BRANCH   4  13
ATOM     13  O   UNL     1       0.715  -2.647  -1.148  0.00  0.00    -0.435 OA
BRANCH  13  14
ATOM     14  C   UNL     1      -0.393  -3.358  -1.490  0.00  0.00    +0.166 A 
ATOM     15  C   UNL     1      -1.647  -2.925  -1.087  0.00  0.00    +0.052 A 
ATOM     16  C   UNL     1      -2.772  -3.648  -1.435  0.00  0.00    +0.042 A 
ATOM     17  C   UNL     1      -2.649  -4.804  -2.187  0.00  0.00    +0.126 A 
ATOM     18  C   UNL     1      -1.398  -5.239  -2.592  0.00  0.00    +0.080 A 
ATOM     19  C   UNL     1      -0.270  -4.515  -2.250  0.00  0.00    +0.168 A 
ATOM     20  F   UNL     1       0.950  -4.935  -2.649  0.00  0.00    -0.202 F 
ATOM     21  F   UNL     1      -3.750  -5.509  -2.527  0.00  0.00    -0.205 F 
ENDBRANCH  13  14
ENDBRANCH   4  13
BRANCH   3  22
ATOM     22  C   UNL     1      -0.002   0.161  -2.105  0.00  0.00    -0.036 C 
BRANCH  22  23
ATOM     23  N   UNL     1       1.265   0.614  -2.694  0.00  0.00    +0.384 N 
ATOM     24  H   UNL     1       1.665   1.337  -2.115  0.00  0.00    -0.081 HD
BRANCH  23  25
ATOM     25  C   UNL     1       2.198  -0.518  -2.779  0.00  0.00    -0.075 C 
BRANCH  25  26
ATOM     26  C   UNL     1       3.545  -0.029  -3.316  0.00  0.00    -0.028 C 
ATOM     27  C   UNL     1       3.993  -0.555  -4.681  0.00  0.00    +0.002 C 
ATOM     28  C   UNL     1       4.681  -1.050  -3.407  0.00  0.00    +0.002 C 
ENDBRANCH  25  26
ENDBRANCH  23  25
BRANCH  23  29
ATOM     29  C   UNL     1       1.016   1.145  -4.041  0.00  0.00    -0.043 C 
BRANCH  29  30
ATOM     30  C   UNL     1       0.196   2.433  -3.938  0.00  0.00    +0.135 C 
BRANCH  30  31
ATOM     31  O   UNL     1      -1.127   2.120  -3.495  0.00  0.00    -0.390 OA
ATOM     32  H   UNL     1      -1.607   1.522  -4.083  0.00  0.00    +0.210 HD
ENDBRANCH  30  31
BRANCH  30  33
ATOM     33  C   UNL     1       0.129   3.106  -5.310  0.00  0.00    +0.258 C 
BRANCH  33  34
ATOM     34  O   UNL     1      -0.537   4.364  -5.191  0.00  0.00    -0.489 OA
BRANCH  34  35
ATOM     35  C   UNL     1      -0.682   5.096  -6.327  0.00  0.00    +0.121 A 
ATOM     36  C   UNL     1      -0.198   4.610  -7.533  0.00  0.00    +0.045 A 
ATOM     37  C   UNL     1      -0.346   5.355  -8.686  0.00  0.00    +0.004 A 
ATOM     38  C   UNL     1      -0.976   6.585  -8.640  0.00  0.00    +0.000 A 
ATOM     39  C   UNL     1      -1.459   7.072  -7.439  0.00  0.00    +0.004 A 
ATOM     40  C   UNL     1      -1.319   6.328  -6.284  0.00  0.00    +0.045 A 
ENDBRANCH  34  35
ENDBRANCH  33  34
ENDBRANCH  30  33
ENDBRANCH  29  30
ENDBRANCH  23  29
ENDBRANCH  22  23
ENDBRANCH   3  22
TORSDOF 13
