REMARK  Name = ZINC51884782
REMARK  4 active torsions:
REMARK  status: ('A' for Active; 'I' for Inactive)
REMARK    1  A    between atoms: C_3  and  C_13
REMARK    2  A    between atoms: C_8  and  C_10
REMARK    3  A    between atoms: C_18  and  C_21
REMARK    4  A    between atoms: C_21  and  O_22
REMARK                            x       y       z     vdW  Elec       q    Type
REMARK                         _______ _______ _______ _____ _____    ______ ____
ROOT
ATOM      1  C   UNL     1      -0.023   1.531   0.001  0.00  0.00    +0.020 C 
ATOM      2  C   UNL     1       1.412   2.063  -0.010  0.00  0.00    +0.016 C 
ATOM      3  C   UNL     1       2.127   1.582  -1.275  0.00  0.00    +0.092 C 
ATOM      4  C   UNL     1       2.178   0.051  -1.277  0.00  0.00    +0.120 C 
ATOM      5  N   UNL     1       0.812  -0.469  -1.121  0.00  0.00    -0.301 N 
ATOM      6  C   UNL     1       0.004  -0.000   0.013  0.00  0.00    +0.108 C 
ATOM      7  C   UNL     1       0.311  -1.357  -2.001  0.00  0.00    +0.219 C 
ATOM      8  O   UNL     1       0.988  -1.736  -2.933  0.00  0.00    -0.275 OA
ENDROOT
BRANCH   3   9
ATOM      9  C   UNL     1       3.529   2.133  -1.301  0.00  0.00    +0.220 C 
ATOM     10  O   UNL     1       4.085   2.424  -0.264  0.00  0.00    -0.275 OA
ATOM     11  N   UNL     1       4.165   2.301  -2.478  0.00  0.00    -0.301 N 
ATOM     12  C   UNL     1       3.573   2.100  -3.808  0.00  0.00    +0.108 C 
ATOM     13  C   UNL     1       4.662   2.436  -4.849  0.00  0.00    +0.026 C 
ATOM     14  C   UNL     1       5.631   3.351  -4.056  0.00  0.00    +0.033 C 
ATOM     15  C   UNL     1       5.567   2.724  -2.643  0.00  0.00    +0.113 C 
BRANCH  14  16
ATOM     16  C   UNL     1       7.048   3.277  -4.629  0.00  0.00    +0.161 C 
BRANCH  16  17
ATOM     17  O   UNL     1       7.060   3.841  -5.942  0.00  0.00    -0.395 OA
ATOM     18  H   UNL     1       7.928   3.827  -6.368  0.00  0.00    +0.209 HD
ENDBRANCH  16  17
ENDBRANCH  14  16
ENDBRANCH   3   9
BRANCH   7  19
ATOM     19  C   UNL     1      -1.092  -1.880  -1.827  0.00  0.00    +0.075 C 
ATOM     20  C   UNL     1      -1.254  -3.353  -1.445  0.00  0.00    +0.013 C 
ATOM     21  C   UNL     1      -1.604  -2.887  -2.860  0.00  0.00    +0.013 C 
ENDBRANCH   7  19
TORSDOF 4
