REMARK  Name = ZINC40512744
REMARK  8 active torsions:
REMARK  status: ('A' for Active; 'I' for Inactive)
REMARK    1  A    between atoms: C_1  and  C_2
REMARK    2  A    between atoms: C_2  and  O_3
REMARK    3  A    between atoms: O_3  and  C_4
REMARK    4  A    between atoms: C_4  and  C_6
REMARK    5  A    between atoms: C_7  and  N_36
REMARK    6  A    between atoms: C_11  and  C_35
REMARK    7  A    between atoms: N_24  and  C_27
REMARK    8  A    between atoms: C_27  and  C_28
REMARK                            x       y       z     vdW  Elec       q    Type
REMARK                         _______ _______ _______ _____ _____    ______ ____
ROOT
ATOM      1  C   UNL     1      -3.122  -2.315  -0.673  0.00  0.00    +0.117 C 
ATOM      2  C   UNL     1      -3.411  -3.640  -0.751  0.00  0.00    +0.196 C 
ATOM      3  O   UNL     1      -4.653  -4.108  -0.547  0.00  0.00    -0.441 OA
ATOM      4  C   UNL     1      -5.714  -3.277  -0.624  0.00  0.00    +0.142 A 
ATOM      5  C   UNL     1      -7.010  -3.803  -0.797  0.00  0.00    +0.067 A 
ATOM      6  C   UNL     1      -8.069  -2.968  -0.872  0.00  0.00    +0.019 A 
ATOM      7  N   UNL     1      -7.904  -1.623  -0.783  0.00  0.00    -0.326 N 
ATOM      8  H   UNL     1      -8.679  -1.042  -0.839  0.00  0.00    +0.169 HD
ATOM      9  C   UNL     1      -6.682  -1.082  -0.620  0.00  0.00    +0.257 A 
ATOM     10  O   UNL     1      -6.557   0.130  -0.543  0.00  0.00    -0.267 OA
ATOM     11  C   UNL     1      -5.555  -1.909  -0.536  0.00  0.00    +0.083 A 
ATOM     12  C   UNL     1      -4.189  -1.310  -0.347  0.00  0.00    +0.144 C 
ATOM     13  C   UNL     1      -4.021  -0.782   1.044  0.00  0.00    -0.002 A 
ATOM     14  C   UNL     1      -4.056  -1.413   2.269  0.00  0.00    +0.007 A 
ATOM     15  C   UNL     1      -3.861  -0.618   3.393  0.00  0.00    +0.000 A 
ATOM     16  C   UNL     1      -3.641   0.740   3.283  0.00  0.00    +0.002 A 
ATOM     17  C   UNL     1      -3.603   1.381   2.054  0.00  0.00    +0.024 A 
ATOM     18  C   UNL     1      -3.799   0.594   0.918  0.00  0.00    +0.041 A 
ATOM     19  N   UNL     1      -3.813   0.964  -0.415  0.00  0.00    -0.265 N 
ATOM     20  C   UNL     1      -4.035  -0.088  -1.230  0.00  0.00    +0.240 C 
ATOM     21  O   UNL     1      -4.100  -0.061  -2.441  0.00  0.00    -0.274 OA
ATOM     22  C   UNL     1      -9.452  -3.537  -1.056  0.00  0.00    +0.063 C 
ENDROOT
BRANCH   2  23
ATOM     23  N   UNL     1      -2.408  -4.524  -1.047  0.00  0.00    -0.329 N 
ATOM     24  H   UNL     1      -1.492  -4.212  -1.118  0.00  0.00    +0.145 HD
ATOM     25  H   UNL     1      -2.612  -5.462  -1.185  0.00  0.00    +0.145 HD
ENDBRANCH   2  23
BRANCH   1  26
ATOM     26  C   UNL     1      -1.807  -1.881  -0.894  0.00  0.00    +0.342 C 
ATOM     27  O   UNL     1      -1.108  -1.550   0.048  0.00  0.00    -0.245 OA
BRANCH  26  28
ATOM     28  O   UNL     1      -1.315  -1.828  -2.151  0.00  0.00    -0.462 OA
BRANCH  28  30
ATOM     29  C   UNL     1       0.411  -1.371  -3.779  0.00  0.00    +0.048 C 
ATOM     30  C   UNL     1       0.066  -1.487  -2.293  0.00  0.00    +0.229 C 
ENDBRANCH  28  30
ENDBRANCH  26  28
ENDBRANCH   1  26
BRANCH  19  31
ATOM     31  C   UNL     1      -3.610   2.336  -0.887  0.00  0.00    +0.151 C 
BRANCH  31  32
ATOM     32  C   UNL     1      -2.134   2.617  -0.994  0.00  0.00    +0.005 A 
ATOM     33  C   UNL     1      -1.490   3.323   0.005  0.00  0.00    +0.008 A 
ATOM     34  C   UNL     1      -0.136   3.581  -0.093  0.00  0.00    +0.000 A 
ATOM     35  C   UNL     1       0.577   3.134  -1.191  0.00  0.00    +0.003 A 
ATOM     36  C   UNL     1      -0.065   2.427  -2.190  0.00  0.00    +0.038 A 
ATOM     37  C   UNL     1      -1.420   2.164  -2.091  0.00  0.00    +0.128 A 
ATOM     38  F   UNL     1      -2.047   1.469  -3.065  0.00  0.00    -0.205 F 
ENDBRANCH  31  32
ENDBRANCH  19  31
TORSDOF 6
