REMARK  Name = ZINC15955544
REMARK  15 active torsions:
REMARK  status: ('A' for Active; 'I' for Inactive)
REMARK    1  A    between atoms: C_1  and  C_2
REMARK    2  A    between atoms: C_2  and  C_3
REMARK    3  A    between atoms: C_3  and  C_4
REMARK    4  A    between atoms: C_4  and  N_74
REMARK    5  A    between atoms: C_5  and  C_6
REMARK    6  A    between atoms: C_5  and  N_74
REMARK    7  A    between atoms: C_6  and  C_7
REMARK    8  A    between atoms: C_7  and  C_8
REMARK    9  A    between atoms: C_9  and  C_10
REMARK   10  A    between atoms: C_9  and  N_74
REMARK   11  A    between atoms: C_10  and  C_11
REMARK   12  A    between atoms: C_11  and  N_76
REMARK   13  A    between atoms: C_12  and  C_13
REMARK   14  A    between atoms: C_12  and  N_76
REMARK   15  A    between atoms: C_25  and  C_32
REMARK                            x       y       z     vdW  Elec       q    Type
REMARK                         _______ _______ _______ _____ _____    ______ ____
ROOT
ATOM      1  C   UNL     1      -3.260   3.257  -3.501  0.00  0.00    -0.068 C 
ENDROOT
BRANCH   1   2
ATOM      2  C   UNL     1      -3.553   3.388  -2.005  0.00  0.00    +0.087 C 
ATOM      3  C   UNL     1      -2.471   2.676  -1.178  0.00  0.00    +0.042 C 
ATOM      4  C   UNL     1      -1.459   3.609  -0.537  0.00  0.00    +0.016 C 
ATOM      5  C   UNL     1      -1.018   2.983   0.798  0.00  0.00    +0.021 C 
ATOM      6  C   UNL     1       0.405   3.404   1.071  0.00  0.00    -0.073 C 
ATOM      7  C   UNL     1       0.978   4.329   0.342  0.00  0.00    +0.008 C 
ATOM      8  C   UNL     1       1.157   2.737   2.200  0.00  0.00    +0.030 C 
ATOM      9  C   UNL     1       1.040   1.219   2.024  0.00  0.00    +0.005 C 
ATOM     10  C   UNL     1      -0.439   0.836   1.951  0.00  0.00    +0.007 C 
ATOM     11  C   UNL     1      -1.083   1.455   0.709  0.00  0.00    -0.022 C 
ATOM     12  C   UNL     1      -2.550   0.992   0.641  0.00  0.00    +0.052 C 
ATOM     13  C   UNL     1      -3.350   2.091  -0.036  0.00  0.00    +0.181 C 
ATOM     14  O   UNL     1      -4.530   1.655  -0.758  0.00  0.00    -0.461 OA
ATOM     15  C   UNL     1      -4.831   2.642  -1.641  0.00  0.00    +0.309 C 
ATOM     16  O   UNL     1      -5.933   2.887  -2.070  0.00  0.00    -0.251 OA
ATOM     17  C   UNL     1      -0.340   0.983  -0.542  0.00  0.00    +0.012 C 
ENDBRANCH   1   2
BRANCH   1  18
ATOM     18  N   UNL     1      -4.247   4.050  -4.258  0.00  0.00    +0.380 N 
ATOM     19  H   UNL     1      -5.191   3.699  -4.055  0.00  0.00    -0.086 HD
ATOM     20  H   UNL     1      -4.180   5.034  -3.974  0.00  0.00    -0.086 HD
BRANCH  18  21
ATOM     21  C   UNL     1      -3.988   3.941  -5.706  0.00  0.00    -0.084 C 
BRANCH  21  22
ATOM     22  C   UNL     1      -5.026   4.772  -6.464  0.00  0.00    -0.038 C 
BRANCH  22  23
ATOM     23  C   UNL     1      -4.764   4.666  -7.968  0.00  0.00    -0.081 C 
BRANCH  23  24
ATOM     24  N   UNL     1      -5.786   5.455  -8.686  0.00  0.00    +0.380 N 
ATOM     25  H   UNL     1      -6.718   5.174  -8.358  0.00  0.00    -0.082 HD
BRANCH  24  26
ATOM     26  C   UNL     1      -5.596   6.896  -8.413  0.00  0.00    -0.079 C 
BRANCH  26  27
ATOM     27  C   UNL     1      -4.242   7.369  -8.946  0.00  0.00    -0.019 C 
BRANCH  27  29
ATOM     28  C   UNL     1      -2.661   9.299  -9.071  0.00  0.00    +0.004 C 
ATOM     29  C   UNL     1      -4.014   8.825  -8.538  0.00  0.00    -0.005 C 
ENDBRANCH  27  29
ENDBRANCH  26  27
ENDBRANCH  24  26
BRANCH  24  30
ATOM     30  C   UNL     1      -5.692   5.200 -10.139  0.00  0.00    -0.079 C 
BRANCH  30  31
ATOM     31  C   UNL     1      -6.955   5.738 -10.816  0.00  0.00    -0.019 C 
BRANCH  31  32
ATOM     32  C   UNL     1      -6.945   5.351 -12.296  0.00  0.00    -0.005 C 
ATOM     33  C   UNL     1      -8.208   5.889 -12.972  0.00  0.00    +0.004 C 
ENDBRANCH  31  32
ENDBRANCH  30  31
ENDBRANCH  24  30
ENDBRANCH  23  24
ENDBRANCH  22  23
ENDBRANCH  21  22
ENDBRANCH  18  21
ENDBRANCH   1  18
TORSDOF 12
