REMARK  Name = ZINC38581881
REMARK  6 active torsions:
REMARK  status: ('A' for Active; 'I' for Inactive)
REMARK    1  A    between atoms: C_1  and  C_2
REMARK    2  A    between atoms: C_4  and  C_25
REMARK    3  A    between atoms: C_28  and  O_31
REMARK    4  A    between atoms: O_31  and  C_32
REMARK    5  A    between atoms: C_32  and  C_33
REMARK    6  A    between atoms: C_32  and  C_34
REMARK                            x       y       z     vdW  Elec       q    Type
REMARK                         _______ _______ _______ _____ _____    ______ ____
ROOT
ATOM      1  C   UNL     1      -0.274   1.351   0.056  0.00  0.00    +0.062 C 
ATOM      2  C   UNL     1      -0.350  -0.154   0.068  0.00  0.00    +0.023 C 
ATOM      3  C   UNL     1      -1.481  -0.837   0.178  0.00  0.00    +0.005 C 
ATOM      4  C   UNL     1      -2.836  -0.234   0.299  0.00  0.00    +0.108 C 
ATOM      5  S   UNL     1      -3.862  -0.545  -1.149  0.00  0.00    -0.139 S 
ATOM      6  C   UNL     1      -4.193  -2.316  -1.147  0.00  0.00    +0.165 C 
ATOM      7  C   UNL     1      -2.953  -3.115  -1.341  0.00  0.00    +0.225 C 
ATOM      8  O   UNL     1      -3.108  -4.040  -2.109  0.00  0.00    -0.275 OA
ATOM      9  N   UNL     1      -1.762  -3.048  -0.882  0.00  0.00    -0.291 N 
ATOM     10  C   UNL     1      -1.116  -2.295   0.150  0.00  0.00    +0.210 C 
ATOM     11  N   UNL     1       0.348  -2.326   0.001  0.00  0.00    -0.213 N 
ATOM     12  N   UNL     1       0.748  -0.983  -0.041  0.00  0.00    -0.265 N 
ATOM     13  C   UNL     1       1.138  -3.416  -0.082  0.00  0.00    +0.150 C 
ATOM     14  N   UNL     1       0.631  -4.635  -0.039  0.00  0.00    -0.221 NA
ATOM     15  C   UNL     1       1.365  -5.742  -0.052  0.00  0.00    +0.225 C 
ATOM     16  N   UNL     1       2.667  -5.737   0.211  0.00  0.00    -0.218 NA
ATOM     17  C   UNL     1       3.214  -4.544   0.421  0.00  0.00    +0.164 C 
ATOM     18  N   UNL     1       4.194  -4.110   1.156  0.00  0.00    -0.219 NA
ATOM     19  C   UNL     1       4.135  -2.781   1.311  0.00  0.00    +0.218 C 
ATOM     20  N   UNL     1       3.225  -2.217   0.566  0.00  0.00    -0.253 NA
ATOM     21  C   UNL     1       2.630  -3.290  -0.234  0.00  0.00    +0.239 C 
ATOM     22  H   UNL     1      -1.153  -3.648  -1.340  0.00  0.00    +0.151 HD
ATOM     23  H   UNL     1       1.665  -0.679  -0.131  0.00  0.00    +0.170 HD
ENDROOT
BRANCH   4  24
ATOM     24  C   UNL     1      -2.693   1.255   0.482  0.00  0.00    -0.030 A 
ATOM     25  C   UNL     1      -2.713   2.090  -0.619  0.00  0.00    +0.008 A 
ATOM     26  C   UNL     1      -2.581   3.455  -0.455  0.00  0.00    +0.046 A 
ATOM     27  C   UNL     1      -2.430   3.988   0.818  0.00  0.00    +0.121 A 
ATOM     28  C   UNL     1      -2.411   3.147   1.921  0.00  0.00    +0.046 A 
ATOM     29  C   UNL     1      -2.548   1.783   1.751  0.00  0.00    +0.008 A 
BRANCH  27  30
ATOM     30  O   UNL     1      -2.300   5.331   0.982  0.00  0.00    -0.489 OA
BRANCH  30  31
ATOM     31  C   UNL     1      -2.005   5.797   2.300  0.00  0.00    +0.167 C 
ATOM     32  C   UNL     1      -1.175   7.079   2.214  0.00  0.00    +0.051 C 
ATOM     33  C   UNL     1      -3.312   6.084   3.044  0.00  0.00    +0.051 C 
ENDBRANCH  30  31
ENDBRANCH  27  30
ENDBRANCH   4  24
TORSDOF 3
