REMARK  Name = ZINC65329895
REMARK  6 active torsions:
REMARK  status: ('A' for Active; 'I' for Inactive)
REMARK    1  A    between atoms: C_4  and  C_7
REMARK    2  A    between atoms: C_7  and  N_9
REMARK    3  A    between atoms: N_11  and  C_12
REMARK    4  A    between atoms: N_19  and  C_20
REMARK    5  A    between atoms: C_20  and  C_21
REMARK    6  A    between atoms: C_21  and  C_22
REMARK                            x       y       z     vdW  Elec       q    Type
REMARK                         _______ _______ _______ _____ _____    ______ ____
ROOT
ATOM      1  N   UNL     1       3.637  -2.876   0.389  0.00  0.00    -0.143 NA
ATOM      2  C   UNL     1       4.893  -2.502   0.584  0.00  0.00    +0.194 C 
ATOM      3  N   UNL     1       5.416  -1.465  -0.133  0.00  0.00    -0.328 N 
ATOM      4  N   UNL     1       5.664  -3.154   1.501  0.00  0.00    -0.357 N 
ATOM      5  H   UNL     1       4.975  -0.601  -0.128  0.00  0.00    +0.169 HD
ATOM      6  H   UNL     1       5.308  -3.921   1.976  0.00  0.00    +0.162 HD
ENDROOT
BRANCH   3   7
ATOM      7  C   UNL     1       6.589  -1.648  -0.875  0.00  0.00    +0.042 A 
ATOM      8  C   UNL     1       6.826  -2.858  -1.513  0.00  0.00    +0.028 A 
ATOM      9  C   UNL     1       7.984  -3.037  -2.245  0.00  0.00    +0.040 A 
ATOM     10  C   UNL     1       8.908  -2.010  -2.342  0.00  0.00    +0.124 A 
ATOM     11  C   UNL     1       8.673  -0.803  -1.706  0.00  0.00    +0.040 A 
ATOM     12  C   UNL     1       7.514  -0.618  -0.979  0.00  0.00    +0.028 A 
ATOM     13  F   UNL     1      10.040  -2.187  -3.058  0.00  0.00    -0.205 F 
ENDBRANCH   3   7
BRANCH   1  14
ATOM     14  C   UNL     1       2.923  -2.331  -0.605  0.00  0.00    +0.270 C 
ATOM     15  O   UNL     1       3.397  -1.427  -1.270  0.00  0.00    -0.268 OA
BRANCH  14  19
ATOM     16  C   UNL     1      -0.993  -3.756  -1.436  0.00  0.00    +0.000 A 
ATOM     17  C   UNL     1      -0.459  -2.729  -2.193  0.00  0.00    +0.001 A 
ATOM     18  C   UNL     1       0.812  -2.262  -1.928  0.00  0.00    +0.013 A 
ATOM     19  C   UNL     1       1.558  -2.827  -0.894  0.00  0.00    +0.039 A 
ATOM     20  C   UNL     1       1.014  -3.862  -0.134  0.00  0.00    +0.013 A 
ATOM     21  C   UNL     1      -0.258  -4.321  -0.409  0.00  0.00    +0.001 A 
ENDBRANCH  14  19
ENDBRANCH   1  14
BRANCH   4  22
ATOM     22  C   UNL     1       7.029  -2.696   1.769  0.00  0.00    +0.120 C 
BRANCH  22  23
ATOM     23  C   UNL     1       7.668  -3.591   2.833  0.00  0.00    +0.054 C 
BRANCH  23  24
ATOM     24  C   UNL     1       9.027  -3.048   3.196  0.00  0.00    -0.040 C 
ATOM     25  C   UNL     1       9.318  -2.195   4.204  0.00  0.00    -0.001 A 
ATOM     26  C   UNL     1       8.490  -1.540   5.224  0.00  0.00    +0.010 A 
ATOM     27  C   UNL     1       9.081  -0.718   6.120  0.00  0.00    +0.001 A 
ATOM     28  C   UNL     1      10.462  -0.475   6.099  0.00  0.00    +0.002 A 
ATOM     29  C   UNL     1      11.288  -1.040   5.193  0.00  0.00    +0.026 A 
ATOM     30  C   UNL     1      10.773  -1.922   4.204  0.00  0.00    +0.043 A 
ATOM     31  N   UNL     1      11.358  -2.582   3.233  0.00  0.00    -0.380 N 
ATOM     32  C   UNL     1      10.340  -3.353   2.511  0.00  0.00    +0.144 C 
ATOM     33  H   UNL     1      12.307  -2.566   3.029  0.00  0.00    +0.160 HD
ENDBRANCH  23  24
ENDBRANCH  22  23
ENDBRANCH   4  22
TORSDOF 6
