REMARK  Name = ZINC35934838
REMARK  10 active torsions:
REMARK  status: ('A' for Active; 'I' for Inactive)
REMARK    1  A    between atoms: C_1  and  C_2
REMARK    2  A    between atoms: C_2  and  N_3
REMARK    3  A    between atoms: C_6  and  C_11
REMARK    4  A    between atoms: N_21  and  C_23
REMARK    5  A    between atoms: C_23  and  C_25
REMARK    6  A    between atoms: C_23  and  C_26
REMARK    7  A    between atoms: N_28  and  C_29
REMARK    8  A    between atoms: C_32  and  C_35
REMARK    9  A    between atoms: C_35  and  C_36
REMARK   10  A    between atoms: C_35  and  C_37
REMARK                            x       y       z     vdW  Elec       q    Type
REMARK                         _______ _______ _______ _____ _____    ______ ____
ROOT
ATOM      1  N   UNL     1       0.692  -0.482  -1.205  0.00  0.00    -0.257 N 
ATOM      2  C   UNL     1      -0.055  -0.693  -2.329  0.00  0.00    +0.042 C 
ATOM      3  C   UNL     1       0.512  -1.119  -3.475  0.00  0.00    +0.058 C 
ATOM      4  C   UNL     1       2.009  -1.356  -3.475  0.00  0.00    +0.143 C 
ATOM      5  N   UNL     1       2.724  -1.100  -2.214  0.00  0.00    -0.288 N 
ATOM      6  C   UNL     1       2.017  -0.671  -1.150  0.00  0.00    +0.307 C 
ATOM      7  O   UNL     1       2.599  -0.453  -0.105  0.00  0.00    -0.252 OA
ATOM      8  C   UNL     1      -0.464  -1.260  -4.483  0.00  0.00    +0.247 C 
ATOM      9  O   UNL     1      -0.232  -1.630  -5.619  0.00  0.00    -0.270 OA
ATOM     10  N   UNL     1      -1.686  -0.932  -4.025  0.00  0.00    -0.281 N 
ATOM     11  C   UNL     1      -1.533  -0.544  -2.615  0.00  0.00    +0.160 C 
ATOM     12  H   UNL     1       3.683  -1.233  -2.151  0.00  0.00    +0.151 HD
ENDROOT
BRANCH   4  13
ATOM     13  C   UNL     1       2.252  -2.792  -3.863  0.00  0.00    -0.004 A 
ATOM     14  C   UNL     1       2.410  -3.755  -2.884  0.00  0.00    +0.008 A 
ATOM     15  C   UNL     1       2.633  -5.072  -3.239  0.00  0.00    +0.020 A 
ATOM     16  C   UNL     1       2.698  -5.427  -4.575  0.00  0.00    +0.042 A 
ATOM     17  C   UNL     1       2.540  -4.464  -5.555  0.00  0.00    +0.040 A 
ATOM     18  C   UNL     1       2.312  -3.146  -5.199  0.00  0.00    +0.048 A 
ATOM     19 CL   UNL     1       2.106  -1.938  -6.428  0.00  0.00    -0.083 Cl
ATOM     20 CL   UNL     1       2.979  -7.081  -5.021  0.00  0.00    -0.083 Cl
ENDBRANCH   4  13
BRANCH   1  22
ATOM     21  C   UNL     1      -0.020   1.510   0.022  0.00  0.00    +0.025 C 
ATOM     22  C   UNL     1       0.007  -0.019   0.005  0.00  0.00    +0.111 C 
ENDBRANCH   1  22
BRANCH  10  23
ATOM     23  C   UNL     1      -2.936  -0.958  -4.788  0.00  0.00    +0.160 C 
ATOM     24  C   UNL     1      -2.823  -0.009  -5.983  0.00  0.00    +0.038 C 
BRANCH  23  25
ATOM     25  C   UNL     1      -3.195  -2.358  -5.281  0.00  0.00    +0.237 C 
ATOM     26  O   UNL     1      -2.412  -3.248  -5.020  0.00  0.00    -0.273 OA
ATOM     27  N   UNL     1      -4.296  -2.623  -6.012  0.00  0.00    -0.284 N 
ATOM     28  H   UNL     1      -4.956  -1.928  -6.163  0.00  0.00    +0.155 HD
BRANCH  27  29
ATOM     29  C   UNL     1      -4.488  -3.900  -6.551  0.00  0.00    +0.033 A 
ATOM     30  C   UNL     1      -5.094  -4.047  -7.792  0.00  0.00    +0.023 A 
ATOM     31  C   UNL     1      -5.282  -5.309  -8.322  0.00  0.00    +0.006 A 
ATOM     32  C   UNL     1      -4.867  -6.424  -7.618  0.00  0.00    -0.045 A 
ATOM     33  C   UNL     1      -4.264  -6.281  -6.382  0.00  0.00    +0.006 A 
ATOM     34  C   UNL     1      -4.067  -5.022  -5.849  0.00  0.00    +0.023 A 
BRANCH  32  35
ATOM     35  C   UNL     1      -5.074  -7.799  -8.199  0.00  0.00    +0.013 C 
ATOM     36  C   UNL     1      -3.719  -8.491  -8.366  0.00  0.00    +0.012 C 
ATOM     37  C   UNL     1      -5.955  -8.623  -7.258  0.00  0.00    +0.012 C 
ENDBRANCH  32  35
ENDBRANCH  27  29
ENDBRANCH  23  25
ENDBRANCH  10  23
TORSDOF 6
