REMARK  Name = ZINC09731453
REMARK  8 active torsions:
REMARK  status: ('A' for Active; 'I' for Inactive)
REMARK    1  A    between atoms: C_1  and  C_2
REMARK    2  A    between atoms: C_2  and  C_3
REMARK    3  A    between atoms: C_3  and  N_4
REMARK    4  A    between atoms: C_8  and  S_27
REMARK    5  A    between atoms: C_12  and  C_13
REMARK    6  A    between atoms: C_13  and  N_66
REMARK    7  A    between atoms: C_22  and  C_24
REMARK    8  A    between atoms: S_27  and  N_30
REMARK                            x       y       z     vdW  Elec       q    Type
REMARK                         _______ _______ _______ _____ _____    ______ ____
ROOT
ATOM      1  N   UNL     1      -1.656   0.689   3.341  0.00  0.00    -0.329 N 
ATOM      2  C   UNL     1      -1.061  -0.251   2.523  0.00  0.00    +0.069 A 
ATOM      3  C   UNL     1       0.191  -0.366   1.935  0.00  0.00    +0.030 A 
ATOM      4  C   UNL     1       0.480  -1.465   1.154  0.00  0.00    +0.030 A 
ATOM      5  C   UNL     1      -0.476  -2.448   0.942  0.00  0.00    +0.108 A 
ATOM      6  C   UNL     1      -1.713  -2.351   1.512  0.00  0.00    +0.058 A 
ATOM      7  C   UNL     1      -2.027  -1.250   2.313  0.00  0.00    +0.091 A 
ATOM      8  N   UNL     1      -3.138  -0.876   2.999  0.00  0.00    -0.234 NA
ATOM      9  C   UNL     1      -2.920   0.257   3.600  0.00  0.00    +0.094 A 
ENDROOT
BRANCH   5  10
ATOM     10  S   UNL     1      -0.087  -3.840  -0.066  0.00  0.00    +0.061 S 
ATOM     11  O   UNL     1      -0.956  -4.889   0.337  0.00  0.00    -0.153 OA
ATOM     12  O   UNL     1       1.328  -3.972  -0.047  0.00  0.00    -0.153 OA
BRANCH  10  13
ATOM     13  N   UNL     1      -0.504  -3.450  -1.621  0.00  0.00    -0.172 NA
ATOM     14  C   UNL     1      -1.850  -3.741  -2.139  0.00  0.00    +0.137 C 
ATOM     15  C   UNL     1      -2.406  -2.458  -2.778  0.00  0.00    +0.177 C 
ATOM     16  O   UNL     1      -1.457  -1.956  -3.723  0.00  0.00    -0.377 OA
ATOM     17  C   UNL     1      -0.205  -1.575  -3.148  0.00  0.00    +0.177 C 
ATOM     18  C   UNL     1       0.462  -2.807  -2.526  0.00  0.00    +0.137 C 
ENDBRANCH  10  13
ENDBRANCH   5  10
BRANCH   1  19
ATOM     19  C   UNL     1      -1.041   1.921   3.839  0.00  0.00    +0.123 C 
BRANCH  19  21
ATOM     20  C   UNL     1       0.331   2.914   5.676  0.00  0.00    +0.005 C 
ATOM     21  C   UNL     1      -0.218   1.611   5.091  0.00  0.00    +0.018 C 
ENDBRANCH  19  21
ENDBRANCH   1  19
BRANCH   9  22
ATOM     22  C   UNL     1      -3.923   0.986   4.457  0.00  0.00    -0.002 C 
BRANCH  22  32
ATOM     23  C   UNL     1      -2.837   0.291   6.504  0.00  0.00    -0.041 C 
ATOM     24  C   UNL     1      -2.986  -0.523   7.763  0.00  0.00    -0.061 A 
ATOM     25  C   UNL     1      -2.067  -0.333   8.785  0.00  0.00    +0.002 A 
ATOM     26  C   UNL     1      -2.163  -1.060   9.954  0.00  0.00    +0.000 A 
ATOM     27  C   UNL     1      -3.180  -1.984  10.109  0.00  0.00    +0.000 A 
ATOM     28  C   UNL     1      -4.096  -2.173   9.094  0.00  0.00    +0.004 A 
ATOM     29  C   UNL     1      -4.002  -1.442   7.920  0.00  0.00    -0.047 A 
ATOM     30  C   UNL     1      -5.030  -1.676   6.843  0.00  0.00    +0.029 C 
ATOM     31  C   UNL     1      -4.530  -1.110   5.513  0.00  0.00    +0.024 C 
ATOM     32  N   UNL     1      -4.101   0.284   5.748  0.00  0.00    +0.395 N 
ATOM     33  H   UNL     1      -4.822   0.768   6.296  0.00  0.00    -0.080 HD
BRANCH  31  34
ATOM     34  C   UNL     1      -5.649  -1.127   4.503  0.00  0.00    +0.197 C 
ATOM     35  O   UNL     1      -6.478  -0.242   4.502  0.00  0.00    -0.278 OA
ATOM     36  N   UNL     1      -5.728  -2.126   3.602  0.00  0.00    -0.331 N 
ATOM     37  H   UNL     1      -5.065  -2.833   3.603  0.00  0.00    +0.145 HD
ATOM     38  H   UNL     1      -6.448  -2.137   2.952  0.00  0.00    +0.145 HD
ENDBRANCH  31  34
ENDBRANCH  22  32
ENDBRANCH   9  22
TORSDOF 7
