REMARK  Name = ZINC46511569
REMARK  5 active torsions:
REMARK  status: ('A' for Active; 'I' for Inactive)
REMARK    1  A    between atoms: C_1  and  C_2
REMARK    2  A    between atoms: C_3  and  C_12
REMARK    3  A    between atoms: C_12  and  C_14
REMARK    4  A    between atoms: C_14  and  C_16
REMARK    5  A    between atoms: C_14  and  N_17
REMARK                            x       y       z     vdW  Elec       q    Type
REMARK                         _______ _______ _______ _____ _____    ______ ____
ROOT
ATOM      1  C   UNL     1      -0.005  -0.557  -2.534  0.00  0.00    +0.152 C 
ATOM      2  O   UNL     1      -0.147  -1.431  -3.366  0.00  0.00    -0.294 OA
ENDROOT
BRANCH   1   5
ATOM      3  C   UNL     1      -2.426  -0.479  -0.600  0.00  0.00    +0.064 C 
ATOM      4  C   UNL     1      -1.010  -0.869  -0.265  0.00  0.00    +0.024 A 
ATOM      5  C   UNL     1       0.041  -0.890  -1.157  0.00  0.00    +0.044 A 
ATOM      6  C   UNL     1       1.223  -1.330  -0.391  0.00  0.00    +0.010 A 
ATOM      7  C   UNL     1       2.559  -1.548  -0.715  0.00  0.00    +0.011 A 
ATOM      8  C   UNL     1       3.437  -1.970   0.260  0.00  0.00    +0.001 A 
ATOM      9  C   UNL     1       2.994  -2.178   1.558  0.00  0.00    +0.002 A 
ATOM     10  C   UNL     1       1.674  -1.966   1.892  0.00  0.00    +0.026 A 
ATOM     11  C   UNL     1       0.772  -1.539   0.922  0.00  0.00    +0.047 A 
ATOM     12  N   UNL     1      -0.576  -1.244   0.954  0.00  0.00    -0.358 N 
ATOM     13  H   UNL     1      -1.135  -1.302   1.744  0.00  0.00    +0.166 HD
ENDBRANCH   1   5
BRANCH   1  14
ATOM     14  C   UNL     1       0.121   0.881  -2.966  0.00  0.00    +0.001 C 
ATOM     15  C   UNL     1       1.600   1.264  -3.039  0.00  0.00    -0.005 C 
BRANCH  14  16
ATOM     16  N   UNL     1      -0.494   1.051  -4.289  0.00  0.00    +0.386 N 
ATOM     17  C   UNL     1      -0.361   2.450  -4.713  0.00  0.00    -0.073 C 
ATOM     18  C   UNL     1      -0.924   2.614  -6.127  0.00  0.00    +0.046 C 
ATOM     19  C   UNL     1      -2.400   2.209  -6.132  0.00  0.00    +0.167 C 
ATOM     20  C   UNL     1      -2.539   0.776  -5.612  0.00  0.00    +0.046 C 
ATOM     21  C   UNL     1      -1.914   0.683  -4.218  0.00  0.00    -0.073 C 
ATOM     22  O   UNL     1      -2.914   2.285  -7.471  0.00  0.00    -0.346 OA
ATOM     23  C   UNL     1      -4.278   2.746  -7.317  0.00  0.00    +0.191 C 
ATOM     24  C   UNL     1      -4.147   3.727  -6.125  0.00  0.00    +0.191 C 
ATOM     25  O   UNL     1      -3.147   3.100  -5.295  0.00  0.00    -0.346 OA
ATOM     26  H   UNL     1      -0.027   0.454  -4.955  0.00  0.00    -0.081 HD
ENDBRANCH  14  16
ENDBRANCH   1  14
TORSDOF 3
