REMARK  Name = ZINC39665779
REMARK  11 active torsions:
REMARK  status: ('A' for Active; 'I' for Inactive)
REMARK    1  A    between atoms: C_1  and  C_2
REMARK    2  A    between atoms: C_2  and  C_4
REMARK    3  A    between atoms: C_2  and  O_29
REMARK    4  A    between atoms: C_4  and  N_5
REMARK    5  A    between atoms: C_6  and  C_8
REMARK    6  A    between atoms: C_19  and  C_21
REMARK    7  A    between atoms: C_25  and  O_26
REMARK    8  A    between atoms: O_26  and  C_27
REMARK    9  A    between atoms: O_29  and  C_30
REMARK   10  A    between atoms: C_33  and  O_36
REMARK   11  A    between atoms: O_36  and  C_37
REMARK                            x       y       z     vdW  Elec       q    Type
REMARK                         _______ _______ _______ _____ _____    ______ ____
ROOT
ATOM      1  C   UNL     1       1.402  -4.136   2.551  0.00  0.00    +0.100 C 
ATOM      2  C   UNL     1       2.464  -4.612   1.535  0.00  0.00    +0.121 C 
ATOM      3  N   UNL     1       3.676  -4.862   2.349  0.00  0.00    -0.296 N 
ATOM      4  C   UNL     1       3.162  -5.481   3.595  0.00  0.00    +0.115 C 
ATOM      5  C   UNL     1       1.862  -4.712   3.901  0.00  0.00    -0.004 C 
ATOM      6  C   UNL     1       0.805  -5.661   4.458  0.00  0.00    -0.010 C 
ATOM      7  C   UNL     1       1.259  -6.175   5.828  0.00  0.00    -0.082 C 
ATOM      8  N   UNL     1       1.455  -5.040   6.738  0.00  0.00    +0.379 N 
ATOM      9  C   UNL     1       2.537  -4.181   6.242  0.00  0.00    -0.082 C 
ATOM     10  C   UNL     1       2.138  -3.583   4.890  0.00  0.00    -0.010 C 
ATOM     11  C   UNL     1       4.957  -4.590   2.030  0.00  0.00    +0.251 C 
ATOM     12  O   UNL     1       5.213  -3.981   1.008  0.00  0.00    -0.270 OA
ATOM     13  H   UNL     1       0.601  -4.505   6.795  0.00  0.00    -0.086 HD
ATOM     14  H   UNL     1       1.694  -5.384   7.656  0.00  0.00    -0.086 HD
ENDROOT
BRANCH  11  15
ATOM     15  C   UNL     1       6.045  -5.029   2.916  0.00  0.00    +0.087 A 
ATOM     16  C   UNL     1       5.898  -6.109   3.759  0.00  0.00    +0.063 A 
ATOM     17  S   UNL     1       7.373  -6.220   4.551  0.00  0.00    -0.081 S 
ATOM     18  C   UNL     1       8.233  -4.853   3.803  0.00  0.00    +0.120 A 
ATOM     19  C   UNL     1       7.322  -4.352   2.939  0.00  0.00    +0.158 A 
ATOM     20 CL   UNL     1       9.852  -4.302   4.105  0.00  0.00    -0.072 Cl
BRANCH  19  21
ATOM     21  O   UNL     1       7.588  -3.277   2.147  0.00  0.00    -0.492 OA
ATOM     22  C   UNL     1       7.285  -1.987   2.682  0.00  0.00    +0.277 C 
ENDBRANCH  19  21
ENDBRANCH  11  15
BRANCH   1  24
ATOM     23  N   UNL     1       0.276  -2.000   3.086  0.00  0.00    -0.312 N 
ATOM     24  C   UNL     1       1.367  -2.631   2.607  0.00  0.00    +0.218 C 
ATOM     25  O   UNL     1       2.320  -1.987   2.222  0.00  0.00    -0.275 OA
ATOM     26  H   UNL     1      -0.486  -2.514   3.394  0.00  0.00    +0.149 HD
BRANCH  23  27
ATOM     27  C   UNL     1       0.242  -0.536   3.140  0.00  0.00    +0.148 C 
BRANCH  27  29
ATOM     28  C   UNL     1      -1.135   1.450   3.776  0.00  0.00    +0.053 C 
ATOM     29  C   UNL     1      -1.099  -0.079   3.719  0.00  0.00    +0.187 C 
BRANCH  29  30
ATOM     30  O   UNL     1      -2.162  -0.549   2.888  0.00  0.00    -0.488 OA
BRANCH  30  31
ATOM     31  C   UNL     1      -3.323  -0.893   3.507  0.00  0.00    +0.121 A 
ATOM     32  C   UNL     1      -3.478  -0.665   4.867  0.00  0.00    +0.049 A 
ATOM     33  C   UNL     1      -4.657  -1.015   5.495  0.00  0.00    +0.049 A 
ATOM     34  C   UNL     1      -5.687  -1.592   4.767  0.00  0.00    +0.120 A 
ATOM     35  C   UNL     1      -5.532  -1.819   3.408  0.00  0.00    +0.049 A 
ATOM     36  C   UNL     1      -4.354  -1.466   2.778  0.00  0.00    +0.049 A 
BRANCH  34  37
ATOM     37  O   UNL     1      -6.847  -1.937   5.386  0.00  0.00    -0.495 OA
ATOM     38  C   UNL     1      -7.865  -2.528   4.575  0.00  0.00    +0.277 C 
ENDBRANCH  34  37
ENDBRANCH  30  31
ENDBRANCH  29  30
ENDBRANCH  27  29
ENDBRANCH  23  27
ENDBRANCH   1  24
TORSDOF 8
