REMARK  Name = ZINC35640744
REMARK  12 active torsions:
REMARK  status: ('A' for Active; 'I' for Inactive)
REMARK    1  A    between atoms: C_1  and  C_2
REMARK    2  A    between atoms: C_2  and  O_3
REMARK    3  A    between atoms: O_3  and  C_4
REMARK    4  A    between atoms: C_4  and  C_6
REMARK    5  A    between atoms: C_7  and  C_26
REMARK    6  A    between atoms: N_8  and  C_23
REMARK    7  A    between atoms: C_12  and  C_14
REMARK    8  A    between atoms: C_17  and  C_20
REMARK    9  A    between atoms: C_20  and  C_21
REMARK   10  A    between atoms: C_20  and  C_22
REMARK   11  A    between atoms: C_23  and  C_24
REMARK   12  A    between atoms: C_26  and  N_27
REMARK                            x       y       z     vdW  Elec       q    Type
REMARK                         _______ _______ _______ _____ _____    ______ ____
ROOT
ATOM      1  C   UNL     1       1.190  -2.540  -2.383  0.00  0.00    +0.080 C 
ATOM      2  C   UNL     1       1.592  -3.823  -2.503  0.00  0.00    +0.041 C 
ATOM      3  N   UNL     1       2.325  -4.234  -3.580  0.00  0.00    -0.254 N 
ATOM      4  C   UNL     1       2.697  -3.423  -4.578  0.00  0.00    +0.307 C 
ATOM      5  O   UNL     1       3.349  -3.881  -5.496  0.00  0.00    -0.252 OA
ATOM      6  N   UNL     1       2.371  -2.116  -4.599  0.00  0.00    -0.288 N 
ATOM      7  C   UNL     1       1.575  -1.574  -3.485  0.00  0.00    +0.144 C 
ATOM      8  H   UNL     1       2.651  -1.546  -5.333  0.00  0.00    +0.151 HD
ENDROOT
BRANCH   7   9
ATOM      9  C   UNL     1       0.308  -0.990  -4.055  0.00  0.00    -0.022 A 
ATOM     10  C   UNL     1      -0.440  -1.714  -4.964  0.00  0.00    +0.006 A 
ATOM     11  C   UNL     1      -1.602  -1.178  -5.486  0.00  0.00    +0.004 A 
ATOM     12  C   UNL     1      -2.017   0.082  -5.098  0.00  0.00    -0.045 A 
ATOM     13  C   UNL     1      -1.270   0.806  -4.188  0.00  0.00    +0.004 A 
ATOM     14  C   UNL     1      -0.110   0.269  -3.663  0.00  0.00    +0.006 A 
BRANCH  12  15
ATOM     15  C   UNL     1      -3.284   0.666  -5.668  0.00  0.00    +0.013 C 
ATOM     16  C   UNL     1      -4.267   0.958  -4.533  0.00  0.00    +0.012 C 
ATOM     17  C   UNL     1      -2.958   1.966  -6.407  0.00  0.00    +0.012 C 
ENDBRANCH  12  15
ENDBRANCH   7   9
BRANCH   1  18
ATOM     18  C   UNL     1       0.431  -2.113  -1.269  0.00  0.00    +0.339 C 
ATOM     19  O   UNL     1       0.041  -2.925  -0.451  0.00  0.00    -0.245 OA
BRANCH  18  20
ATOM     20  O   UNL     1       0.138  -0.804  -1.113  0.00  0.00    -0.462 OA
BRANCH  20  22
ATOM     21  C   UNL     1      -0.862   1.068   0.042  0.00  0.00    +0.048 C 
ATOM     22  C   UNL     1      -0.632  -0.444   0.035  0.00  0.00    +0.229 C 
ENDBRANCH  20  22
ENDBRANCH  18  20
ENDBRANCH   1  18
BRANCH   3  23
ATOM     23  C   UNL     1       2.727  -5.641  -3.646  0.00  0.00    +0.141 C 
BRANCH  23  24
ATOM     24  C   UNL     1       1.706  -6.419  -4.436  0.00  0.00    -0.015 C 
ATOM     25  C   UNL     1       2.084  -7.141  -5.462  0.00  0.00    +0.005 C 
ENDBRANCH  23  24
ENDBRANCH   3  23
BRANCH   2  26
ATOM     26  C   UNL     1       1.226  -4.818  -1.432  0.00  0.00    +0.136 C 
BRANCH  26  27
ATOM     27  N   UNL     1       2.305  -4.884  -0.437  0.00  0.00    -0.300 NA
ATOM     28  C   UNL     1       2.334  -3.669   0.390  0.00  0.00    +0.066 C 
ATOM     29  C   UNL     1       3.505  -3.751   1.371  0.00  0.00    -0.067 C 
ATOM     30  N   UNL     1       3.349  -4.939   2.222  0.00  0.00    +0.381 N 
ATOM     31  C   UNL     1       3.346  -6.146   1.384  0.00  0.00    -0.067 C 
ATOM     32  C   UNL     1       2.174  -6.083   0.403  0.00  0.00    +0.066 C 
ATOM     33  H   UNL     1       4.114  -4.986   2.877  0.00  0.00    -0.086 HD
ATOM     34  H   UNL     1       2.477  -4.878   2.727  0.00  0.00    -0.086 HD
ENDBRANCH  26  27
ENDBRANCH   2  26
TORSDOF 9
