REMARK  Name = ZINC13811688
REMARK  8 active torsions:
REMARK  status: ('A' for Active; 'I' for Inactive)
REMARK    1  A    between atoms: C_1  and  C_2
REMARK    2  A    between atoms: C_2  and  O_3
REMARK    3  A    between atoms: O_3  and  C_4
REMARK    4  A    between atoms: C_7  and  C_10
REMARK    5  A    between atoms: C_11  and  C_21
REMARK    6  A    between atoms: N_23  and  N_24
REMARK    7  A    between atoms: C_25  and  C_26
REMARK    8  A    between atoms: C_25  and  C_27
REMARK                            x       y       z     vdW  Elec       q    Type
REMARK                         _______ _______ _______ _____ _____    ______ ____
ROOT
ATOM      1  C   UNL     1      -5.078  -4.481  -0.004  0.00  0.00    +0.109 A 
ATOM      2  C   UNL     1      -4.948  -3.096   0.008  0.00  0.00    +0.177 A 
ATOM      3  N   UNL     1      -6.180  -2.561   0.017  0.00  0.00    -0.124 NA
ATOM      4  N   UNL     1      -7.066  -3.492   0.016  0.00  0.00    -0.058 NA
ATOM      5  N   UNL     1      -6.421  -4.737   0.007  0.00  0.00    -0.187 N 
ATOM      6  C   UNL     1      -7.032  -5.994   0.003  0.00  0.00    +0.241 A 
ATOM      7  C   UNL     1      -8.476  -6.247   0.008  0.00  0.00    +0.206 A 
ATOM      8  N   UNL     1      -8.667  -7.537   0.002  0.00  0.00    -0.032 NA
ATOM      9  O   UNL     1      -7.396  -8.164  -0.007  0.00  0.00    -0.239 OA
ATOM     10  N   UNL     1      -6.415  -7.142  -0.012  0.00  0.00    -0.027 NA
ATOM     11  N   UNL     1      -9.472  -5.276   0.018  0.00  0.00    -0.337 N 
ATOM     12  H   UNL     1      -9.233  -4.336   0.022  0.00  0.00    +0.144 HD
ATOM     13  H   UNL     1     -10.405  -5.540   0.021  0.00  0.00    +0.144 HD
ENDROOT
BRANCH   1  17
ATOM     14  C   UNL     1      -1.937  -7.339  -0.054  0.00  0.00    +0.121 A 
ATOM     15  C   UNL     1      -1.883  -6.235  -0.895  0.00  0.00    +0.046 A 
ATOM     16  C   UNL     1      -2.899  -5.306  -0.882  0.00  0.00    +0.013 A 
ATOM     17  C   UNL     1      -3.987  -5.475  -0.022  0.00  0.00    +0.003 A 
ATOM     18  C   UNL     1      -4.036  -6.584   0.827  0.00  0.00    +0.013 A 
ATOM     19  C   UNL     1      -3.017  -7.511   0.804  0.00  0.00    +0.046 A 
BRANCH  14  20
ATOM     20  O   UNL     1      -0.932  -8.253  -0.069  0.00  0.00    -0.492 OA
BRANCH  20  22
ATOM     21  C   UNL     1       0.165 -10.278   0.663  0.00  0.00    +0.048 C 
ATOM     22  C   UNL     1      -1.052  -9.364   0.822  0.00  0.00    +0.225 C 
ENDBRANCH  20  22
ENDBRANCH  14  20
ENDBRANCH   1  17
BRANCH   2  23
ATOM     23  C   UNL     1      -3.681  -2.348   0.006  0.00  0.00    +0.286 C 
ATOM     24  O   UNL     1      -2.621  -2.946  -0.002  0.00  0.00    -0.267 OA
ATOM     25  N   UNL     1      -3.694  -1.000   0.014  0.00  0.00    -0.201 N 
ATOM     26  H   UNL     1      -4.539  -0.524   0.021  0.00  0.00    +0.178 HD
BRANCH  25  27
ATOM     27  N   UNL     1      -2.488  -0.288   0.012  0.00  0.00    -0.184 NA
ATOM     28  C   UNL     1      -2.500   1.010   0.019  0.00  0.00    +0.063 C 
ATOM     29  C   UNL     1      -3.813   1.750   0.030  0.00  0.00    +0.068 C 
BRANCH  28  30
ATOM     30  C   UNL     1      -1.230   1.759   0.017  0.00  0.00    -0.001 A 
ATOM     31  C   UNL     1      -1.241   3.156   0.031  0.00  0.00    +0.011 A 
ATOM     32  C   UNL     1      -0.050   3.852   0.024  0.00  0.00    +0.022 A 
ATOM     33  C   UNL     1       1.155   3.170   0.009  0.00  0.00    +0.059 A 
ATOM     34  C   UNL     1       1.172   1.784   0.000  0.00  0.00    +0.060 A 
ATOM     35  C   UNL     1      -0.013   1.076   0.008  0.00  0.00    +0.031 A 
ATOM     36 CL   UNL     1       2.688   0.937  -0.019  0.00  0.00    -0.082 Cl
ATOM     37 CL   UNL     1       2.649   4.053  -0.000  0.00  0.00    -0.082 Cl
ENDBRANCH  28  30
ENDBRANCH  25  27
ENDBRANCH   2  23
TORSDOF 6
