REMARK  Name = ZINC13499164
REMARK  13 active torsions:
REMARK  status: ('A' for Active; 'I' for Inactive)
REMARK    1  A    between atoms: C_1  and  C_2
REMARK    2  A    between atoms: C_7  and  C_15
REMARK    3  A    between atoms: C_13  and  C_14
REMARK    4  A    between atoms: C_15  and  N_75
REMARK    5  A    between atoms: C_16  and  N_75
REMARK    6  A    between atoms: C_21  and  C_23
REMARK    7  A    between atoms: C_21  and  C_36
REMARK    8  A    between atoms: C_21  and  N_75
REMARK    9  A    between atoms: N_27  and  C_28
REMARK   10  A    between atoms: C_28  and  C_29
REMARK   11  A    between atoms: C_29  and  C_30
REMARK   12  A    between atoms: C_36  and  C_37
REMARK   13  A    between atoms: C_36  and  C_38
REMARK                            x       y       z     vdW  Elec       q    Type
REMARK                         _______ _______ _______ _____ _____    ______ ____
ROOT
ATOM      1  N   UNL     1       0.493   1.202  -0.928  0.00  0.00    +0.391 N 
ATOM      2  H   UNL     1       0.040   1.589  -0.092  0.00  0.00    -0.080 HD
ENDROOT
BRANCH   1   3
ATOM      3  C   UNL     1       0.712  -0.246  -0.728  0.00  0.00    -0.067 C 
ATOM      4  C   UNL     1       1.218  -0.490   0.709  0.00  0.00    -0.015 C 
ATOM      5  C   UNL     1       2.235  -1.650   0.561  0.00  0.00    -0.002 C 
ATOM      6  C   UNL     1       2.936  -1.322  -0.781  0.00  0.00    -0.002 C 
ATOM      7  C   UNL     1       1.804  -0.775  -1.675  0.00  0.00    -0.015 C 
ENDBRANCH   1   3
BRANCH   1   8
ATOM      8  C   UNL     1       1.787   1.885  -1.133  0.00  0.00    -0.036 C 
BRANCH   8  15
ATOM      9  C   UNL     1       1.145   9.426   1.387  0.00  0.00    +0.044 C 
ATOM     10  C   UNL     1       1.334   7.953   1.129  0.00  0.00    -0.046 A 
ATOM     11  C   UNL     1       1.758   7.124   2.160  0.00  0.00    +0.004 A 
ATOM     12  C   UNL     1       1.935   5.787   1.947  0.00  0.00    +0.010 A 
ATOM     13  C   UNL     1       1.687   5.247   0.681  0.00  0.00    -0.001 A 
ATOM     14  C   UNL     1       1.867   3.817   0.418  0.00  0.00    +0.017 A 
ATOM     15  C   UNL     1       1.612   3.351  -0.829  0.00  0.00    +0.001 A 
ATOM     16  C   UNL     1       1.189   4.234  -1.845  0.00  0.00    +0.251 A 
ATOM     17  O   UNL     1       0.970   3.794  -2.961  0.00  0.00    -0.268 OA
ATOM     18  N   UNL     1       1.016   5.547  -1.613  0.00  0.00    -0.322 N 
ATOM     19  H   UNL     1       0.720   6.125  -2.333  0.00  0.00    +0.169 HD
ATOM     20  C   UNL     1       1.257   6.084  -0.366  0.00  0.00    +0.052 A 
ATOM     21  C   UNL     1       1.083   7.443  -0.126  0.00  0.00    -0.024 A 
ATOM     22  C   UNL     1       0.623   8.354  -1.235  0.00  0.00    +0.046 C 
ENDBRANCH   8  15
ENDBRANCH   1   8
BRANCH   1  23
ATOM     23  C   UNL     1      -0.385   1.423  -2.096  0.00  0.00    +0.006 C 
BRANCH  23  24
ATOM     24  C   UNL     1      -0.229   0.301  -3.090  0.00  0.00    +0.138 A 
ATOM     25  N   UNL     1      -0.544  -0.958  -2.905  0.00  0.00    -0.115 NA
ATOM     26  N   UNL     1      -0.264  -1.601  -3.985  0.00  0.00    -0.023 NA
ATOM     27  N   UNL     1       0.229  -0.787  -4.852  0.00  0.00    -0.044 NA
ATOM     28  N   UNL     1       0.267   0.395  -4.337  0.00  0.00    -0.231 N 
BRANCH  28  29
ATOM     29  C   UNL     1       0.757   1.613  -4.989  0.00  0.00    +0.152 C 
BRANCH  29  30
ATOM     30  C   UNL     1       2.279   1.688  -4.849  0.00  0.00    +0.058 C 
BRANCH  30  31
ATOM     31  C   UNL     1       2.796   2.874  -5.622  0.00  0.00    -0.046 A 
ATOM     32  C   UNL     1       3.046   2.760  -6.977  0.00  0.00    +0.004 A 
ATOM     33  C   UNL     1       3.515   3.850  -7.687  0.00  0.00    +0.000 A 
ATOM     34  C   UNL     1       3.746   5.049  -7.039  0.00  0.00    +0.000 A 
ATOM     35  C   UNL     1       3.502   5.161  -5.683  0.00  0.00    +0.000 A 
ATOM     36  C   UNL     1       3.027   4.074  -4.975  0.00  0.00    +0.004 A 
ENDBRANCH  30  31
ENDBRANCH  29  30
ENDBRANCH  28  29
ENDBRANCH  23  24
BRANCH  23  37
ATOM     37  C   UNL     1      -1.835   1.476  -1.611  0.00  0.00    -0.024 C 
ATOM     38  C   UNL     1      -2.150   0.215  -0.805  0.00  0.00    +0.006 C 
ATOM     39  C   UNL     1      -2.033   2.709  -0.727  0.00  0.00    +0.006 C 
ENDBRANCH  23  37
ENDBRANCH   1  23
TORSDOF 9
