REMARK  Name = ZINC03594997
REMARK  4 active torsions:
REMARK  status: ('A' for Active; 'I' for Inactive)
REMARK    1  A    between atoms: C_1  and  C_2
REMARK    2  A    between atoms: C_7  and  C_28
REMARK    3  A    between atoms: C_10  and  C_12
REMARK    4  A    between atoms: C_12  and  N_13
REMARK                            x       y       z     vdW  Elec       q    Type
REMARK                         _______ _______ _______ _____ _____    ______ ____
ROOT
ATOM      1  N   UNL     1       2.373   1.031   4.301  0.00  0.00    -0.215 N 
ATOM      2  C   UNL     1       3.437   1.812   4.013  0.00  0.00    +0.251 C 
ATOM      3  O   UNL     1       4.168   1.733   3.050  0.00  0.00    -0.272 OA
ATOM      4  C   UNL     1       3.519   2.803   5.145  0.00  0.00    +0.138 C 
ATOM      5  C   UNL     1       3.395   4.243   4.633  0.00  0.00    +0.045 C 
ATOM      6  C   UNL     1       4.875   4.670   4.502  0.00  0.00    +0.038 C 
ATOM      7  C   UNL     1       5.628   3.802   5.488  0.00  0.00    -0.042 A 
ATOM      8  C   UNL     1       4.842   2.722   5.857  0.00  0.00    -0.012 A 
ATOM      9  C   UNL     1       5.335   1.792   6.756  0.00  0.00    +0.006 A 
ATOM     10  C   UNL     1       6.603   1.935   7.284  0.00  0.00    +0.000 A 
ATOM     11  C   UNL     1       7.386   3.012   6.915  0.00  0.00    +0.000 A 
ATOM     12  C   UNL     1       6.898   3.943   6.018  0.00  0.00    +0.004 A 
ATOM     13  N   UNL     1       2.405   2.451   6.026  0.00  0.00    -0.281 N 
ATOM     14  C   UNL     1       1.785   1.403   5.446  0.00  0.00    +0.310 C 
ATOM     15  O   UNL     1       0.805   0.855   5.912  0.00  0.00    -0.252 OA
ATOM     16  H   UNL     1       2.159   2.886   6.857  0.00  0.00    +0.152 HD
ENDROOT
BRANCH   1  17
ATOM     17  C   UNL     1       1.915  -0.080   3.463  0.00  0.00    +0.213 C 
BRANCH  17  25
ATOM     18  C   UNL     1      -0.344   1.749   0.482  0.00  0.00    +0.028 C 
ATOM     19  C   UNL     1      -0.027   0.279   0.201  0.00  0.00    +0.073 C 
ATOM     20  C   UNL     1      -1.321  -0.472  -0.124  0.00  0.00    +0.022 C 
ATOM     21  C   UNL     1      -1.018  -1.966  -0.267  0.00  0.00    +0.004 C 
ATOM     22  C   UNL     1      -0.466  -2.504   1.055  0.00  0.00    +0.022 C 
ATOM     23  C   UNL     1       0.839  -1.776   1.394  0.00  0.00    +0.073 C 
ATOM     24  N   UNL     1       0.590  -0.327   1.389  0.00  0.00    -0.295 N 
ATOM     25  C   UNL     1       0.917   0.430   2.455  0.00  0.00    +0.234 C 
ATOM     26  O   UNL     1       0.408   1.521   2.603  0.00  0.00    -0.274 OA
ATOM     27  C   UNL     1       1.325  -2.211   2.777  0.00  0.00    +0.028 C 
ENDBRANCH  17  25
ENDBRANCH   1  17
TORSDOF 2
