REMARK  Name = ZINC39666619
REMARK  11 active torsions:
REMARK  status: ('A' for Active; 'I' for Inactive)
REMARK    1  A    between atoms: C_1  and  C_2
REMARK    2  A    between atoms: C_2  and  C_4
REMARK    3  A    between atoms: C_2  and  O_31
REMARK    4  A    between atoms: C_4  and  N_5
REMARK    5  A    between atoms: C_6  and  C_8
REMARK    6  A    between atoms: C_19  and  C_21
REMARK    7  A    between atoms: C_21  and  C_22
REMARK    8  A    between atoms: C_22  and  C_23
REMARK    9  A    between atoms: C_26  and  O_29
REMARK   10  A    between atoms: O_29  and  C_30
REMARK   11  A    between atoms: O_31  and  C_32
REMARK                            x       y       z     vdW  Elec       q    Type
REMARK                         _______ _______ _______ _____ _____    ______ ____
ROOT
ATOM      1  C   UNL     1       1.538  -4.334   2.664  0.00  0.00    +0.100 C 
ATOM      2  C   UNL     1       2.519  -4.935   1.632  0.00  0.00    +0.121 C 
ATOM      3  N   UNL     1       3.802  -5.059   2.363  0.00  0.00    -0.300 N 
ATOM      4  C   UNL     1       3.411  -5.505   3.721  0.00  0.00    +0.115 C 
ATOM      5  C   UNL     1       2.125  -4.714   4.034  0.00  0.00    -0.004 C 
ATOM      6  C   UNL     1       1.142  -5.588   4.806  0.00  0.00    -0.010 C 
ATOM      7  C   UNL     1       1.723  -5.904   6.188  0.00  0.00    -0.082 C 
ATOM      8  N   UNL     1       1.972  -4.652   6.914  0.00  0.00    +0.379 N 
ATOM      9  C   UNL     1       2.988  -3.860   6.212  0.00  0.00    -0.082 C 
ATOM     10  C   UNL     1       2.461  -3.457   4.832  0.00  0.00    -0.010 C 
ATOM     11  C   UNL     1       5.044  -4.820   1.897  0.00  0.00    +0.216 C 
ATOM     12  O   UNL     1       6.003  -4.969   2.624  0.00  0.00    -0.276 OA
ATOM     13  H   UNL     1       1.115  -4.123   6.972  0.00  0.00    -0.086 HD
ATOM     14  H   UNL     1       2.297  -4.865   7.845  0.00  0.00    -0.086 HD
ENDROOT
BRANCH   1  16
ATOM     15  N   UNL     1       0.348  -2.173   2.846  0.00  0.00    -0.312 N 
ATOM     16  C   UNL     1       1.475  -2.836   2.517  0.00  0.00    +0.218 C 
ATOM     17  O   UNL     1       2.438  -2.226   2.103  0.00  0.00    -0.275 OA
ATOM     18  H   UNL     1      -0.422  -2.661   3.177  0.00  0.00    +0.149 HD
BRANCH  15  19
ATOM     19  C   UNL     1       0.287  -0.716   2.704  0.00  0.00    +0.148 C 
BRANCH  19  21
ATOM     20  C   UNL     1      -1.200   1.284   2.876  0.00  0.00    +0.053 C 
ATOM     21  C   UNL     1      -1.092  -0.219   3.142  0.00  0.00    +0.187 C 
BRANCH  21  22
ATOM     22  O   UNL     1      -1.268  -0.470   4.537  0.00  0.00    -0.486 OA
BRANCH  22  23
ATOM     23  C   UNL     1      -2.545  -0.575   4.989  0.00  0.00    +0.139 A 
ATOM     24  C   UNL     1      -3.608  -0.328   4.133  0.00  0.00    +0.047 A 
ATOM     25  C   UNL     1      -4.906  -0.436   4.594  0.00  0.00    +0.004 A 
ATOM     26  C   UNL     1      -5.146  -0.789   5.909  0.00  0.00    +0.002 A 
ATOM     27  C   UNL     1      -4.090  -1.036   6.766  0.00  0.00    +0.023 A 
ATOM     28  C   UNL     1      -2.789  -0.935   6.308  0.00  0.00    +0.083 A 
ATOM     29 CL   UNL     1      -1.463  -1.252   7.381  0.00  0.00    -0.080 Cl
ENDBRANCH  22  23
ENDBRANCH  21  22
ENDBRANCH  19  21
ENDBRANCH  15  19
ENDBRANCH   1  16
BRANCH  11  30
ATOM     30  C   UNL     1       5.241  -4.369   0.473  0.00  0.00    +0.100 C 
BRANCH  30  31
ATOM     31  C   UNL     1       6.734  -4.171   0.203  0.00  0.00    +0.044 C 
BRANCH  31  32
ATOM     32  C   UNL     1       6.931  -3.720  -1.222  0.00  0.00    -0.047 A 
ATOM     33  C   UNL     1       7.104  -4.655  -2.224  0.00  0.00    +0.007 A 
ATOM     34  C   UNL     1       7.286  -4.244  -3.531  0.00  0.00    +0.046 A 
ATOM     35  C   UNL     1       7.294  -2.891  -3.836  0.00  0.00    +0.120 A 
ATOM     36  C   UNL     1       7.120  -1.954  -2.828  0.00  0.00    +0.046 A 
ATOM     37  C   UNL     1       6.933  -2.370  -1.524  0.00  0.00    +0.007 A 
BRANCH  35  38
ATOM     38  O   UNL     1       7.472  -2.484  -5.120  0.00  0.00    -0.495 OA
ATOM     39  C   UNL     1       7.469  -1.075  -5.361  0.00  0.00    +0.277 C 
ENDBRANCH  35  38
ENDBRANCH  31  32
ENDBRANCH  30  31
ENDBRANCH  11  30
TORSDOF 9
