REMARK  Name = ZINC12347298
REMARK  5 active torsions:
REMARK  status: ('A' for Active; 'I' for Inactive)
REMARK    1  A    between atoms: C_2  and  C_3
REMARK    2  A    between atoms: C_3  and  O_4
REMARK    3  A    between atoms: O_4  and  C_5
REMARK    4  A    between atoms: C_8  and  C_11
REMARK    5  A    between atoms: C_18  and  O_19
REMARK                            x       y       z     vdW  Elec       q    Type
REMARK                         _______ _______ _______ _____ _____    ______ ____
ROOT
ATOM      1  C   UNL     1       2.490   1.045  -0.016  0.00  0.00    +0.092 C 
ATOM      2  C   UNL     1       3.282   1.408   1.208  0.00  0.00    +0.067 A 
ATOM      3  C   UNL     1       4.377   2.229   1.157  0.00  0.00    +0.126 A 
ATOM      4  N   UNL     1       4.853   2.357   2.409  0.00  0.00    -0.260 N 
ATOM      5  H   UNL     1       5.647   2.899   2.686  0.00  0.00    +0.190 HD
ATOM      6  N   UNL     1       4.036   1.594   3.259  0.00  0.00    -0.134 NA
ATOM      7  C   UNL     1       3.096   1.027   2.534  0.00  0.00    +0.237 A 
ATOM      8  N   UNL     1       4.820   2.771  -0.044  0.00  0.00    -0.303 N 
ATOM      9  C   UNL     1       4.340   2.245  -1.217  0.00  0.00    +0.017 C 
ATOM     10  C   UNL     1       3.266   1.428  -1.258  0.00  0.00    +0.024 C 
ATOM     11  C   UNL     1       2.817   0.886  -2.476  0.00  0.00    +0.162 C 
ATOM     12  O   UNL     1       1.844   0.159  -2.479  0.00  0.00    -0.292 OA
ATOM     13  C   UNL     1       3.514   1.186  -3.773  0.00  0.00    +0.080 C 
ATOM     14  C   UNL     1       4.992   1.470  -3.489  0.00  0.00    +0.014 C 
ATOM     15  C   UNL     1       5.076   2.620  -2.484  0.00  0.00    +0.051 C 
ATOM     16  H   UNL     1       5.455   3.505  -0.052  0.00  0.00    +0.153 HD
ENDROOT
BRANCH   1  20
ATOM     17  C   UNL     1      -1.237   3.137   0.031  0.00  0.00    +0.121 A 
ATOM     18  C   UNL     1      -1.218   1.750   0.017  0.00  0.00    +0.046 A 
ATOM     19  C   UNL     1      -0.013   1.076   0.008  0.00  0.00    +0.008 A 
ATOM     20  C   UNL     1       1.176   1.783   0.000  0.00  0.00    -0.035 A 
ATOM     21  C   UNL     1       1.160   3.165   0.008  0.00  0.00    +0.008 A 
ATOM     22  C   UNL     1      -0.043   3.844   0.024  0.00  0.00    +0.046 A 
BRANCH  17  23
ATOM     23  O   UNL     1      -2.422   3.802   0.046  0.00  0.00    -0.488 OA
BRANCH  23  24
ATOM     24  C   UNL     1      -3.611   3.009   0.053  0.00  0.00    +0.256 C 
BRANCH  24  26
ATOM     25  C   UNL     1      -5.829   3.668  -0.725  0.00  0.00    +0.007 C 
ATOM     26  C   UNL     1      -4.817   3.913   0.070  0.00  0.00    +0.006 C 
ENDBRANCH  24  26
ENDBRANCH  23  24
ENDBRANCH  17  23
ENDBRANCH   1  20
BRANCH   7  27
ATOM     27  O   UNL     1       2.114   0.210   2.999  0.00  0.00    -0.491 OA
ATOM     28  H   UNL     1       2.211   0.102   3.988  0.00  0.00    +0.294 HD
ENDBRANCH   7  27
TORSDOF 5
