REMARK  Name = ZINC59274525
REMARK  12 active torsions:
REMARK  status: ('A' for Active; 'I' for Inactive)
REMARK    1  A    between atoms: C_1  and  C_2
REMARK    2  A    between atoms: C_5  and  C_7
REMARK    3  A    between atoms: C_7  and  N_8
REMARK    4  A    between atoms: N_8  and  C_9
REMARK    5  A    between atoms: C_11  and  C_17
REMARK    6  A    between atoms: C_11  and  C_18
REMARK    7  A    between atoms: C_13  and  C_15
REMARK    8  A    between atoms: C_13  and  C_16
REMARK    9  A    between atoms: N_21  and  C_22
REMARK   10  A    between atoms: C_25  and  C_28
REMARK   11  A    between atoms: C_28  and  C_29
REMARK   12  A    between atoms: C_28  and  C_30
REMARK                            x       y       z     vdW  Elec       q    Type
REMARK                         _______ _______ _______ _____ _____    ______ ____
ROOT
ATOM      1  N   UNL     1       2.642  -3.987  -1.573  0.00  0.00    -0.275 N 
ATOM      2  C   UNL     1       2.017  -4.903  -2.340  0.00  0.00    +0.307 C 
ATOM      3  O   UNL     1       1.353  -5.779  -1.821  0.00  0.00    -0.252 OA
ATOM      4  N   UNL     1       2.128  -4.846  -3.682  0.00  0.00    -0.269 N 
ATOM      5  H   UNL     1       2.739  -4.214  -4.091  0.00  0.00    +0.156 HD
ENDROOT
BRANCH   1   6
ATOM      6  C   UNL     1       3.346  -2.861  -2.200  0.00  0.00    +0.075 C 
ATOM      7  C   UNL     1       4.788  -2.824  -1.689  0.00  0.00    +0.009 C 
ATOM      8  C   UNL     1       5.532  -1.649  -2.324  0.00  0.00    -0.072 C 
ATOM      9  N   UNL     1       4.836  -0.387  -2.123  0.00  0.00    +0.386 N 
ATOM     10  C   UNL     1       3.405  -0.356  -2.382  0.00  0.00    -0.072 C 
ATOM     11  C   UNL     1       2.662  -1.554  -1.801  0.00  0.00    +0.009 C 
ATOM     12  C   UNL     1       2.837   0.911  -1.699  0.00  0.00    -0.010 C 
ATOM     13  C   UNL     1       3.103  -0.230  -3.878  0.00  0.00    -0.010 C 
ATOM     14  C   UNL     1       5.800  -1.930  -3.802  0.00  0.00    -0.010 C 
ATOM     15  C   UNL     1       6.905  -1.543  -1.621  0.00  0.00    -0.010 C 
ATOM     16  H   UNL     1       4.995  -0.083  -1.160  0.00  0.00    -0.084 HD
ATOM     17  H   UNL     1       5.285   0.323  -2.707  0.00  0.00    -0.084 HD
ENDBRANCH   1   6
BRANCH   4  18
ATOM     18  C   UNL     1       1.363  -5.700  -4.484  0.00  0.00    +0.035 A 
ATOM     19  C   UNL     1       0.080  -6.058  -4.091  0.00  0.00    +0.023 A 
ATOM     20  C   UNL     1      -0.674  -6.901  -4.885  0.00  0.00    +0.006 A 
ATOM     21  C   UNL     1      -0.152  -7.387  -6.070  0.00  0.00    -0.045 A 
ATOM     22  C   UNL     1       1.125  -7.032  -6.463  0.00  0.00    +0.006 A 
ATOM     23  C   UNL     1       1.882  -6.186  -5.676  0.00  0.00    +0.023 A 
BRANCH  21  24
ATOM     24  C   UNL     1      -0.977  -8.306  -6.934  0.00  0.00    +0.013 C 
ATOM     25  C   UNL     1      -1.177  -7.668  -8.310  0.00  0.00    +0.012 C 
ATOM     26  C   UNL     1      -0.253  -9.644  -7.092  0.00  0.00    +0.012 C 
ENDBRANCH  21  24
ENDBRANCH   4  18
BRANCH   1  27
ATOM     27  C   UNL     1       2.618  -4.115  -0.113  0.00  0.00    +0.183 C 
BRANCH  27  32
ATOM     28  C   UNL     1      -0.287  -0.441   1.759  0.00  0.00    +0.086 C 
ATOM     29  C   UNL     1       0.155  -1.789   1.250  0.00  0.00    +0.102 A 
ATOM     30  C   UNL     1      -0.617  -2.887   1.157  0.00  0.00    +0.045 A 
ATOM     31  C   UNL     1       0.198  -3.917   0.632  0.00  0.00    +0.046 A 
ATOM     32  C   UNL     1       1.418  -3.386   0.435  0.00  0.00    +0.122 A 
ATOM     33  O   UNL     1       1.385  -2.096   0.805  0.00  0.00    -0.463 OA
ENDBRANCH  27  32
ENDBRANCH   1  27
TORSDOF 5
