REMARK  Name = ZINC40983151
REMARK  10 active torsions:
REMARK  status: ('A' for Active; 'I' for Inactive)
REMARK    1  A    between atoms: C_1  and  C_2
REMARK    2  A    between atoms: C_2  and  C_3
REMARK    3  A    between atoms: C_3  and  S_4
REMARK    4  A    between atoms: S_4  and  C_5
REMARK    5  A    between atoms: C_10  and  C_27
REMARK    6  A    between atoms: C_12  and  C_16
REMARK    7  A    between atoms: C_13  and  C_15
REMARK    8  A    between atoms: N_18  and  C_19
REMARK    9  A    between atoms: C_22  and  C_26
REMARK   10  A    between atoms: C_24  and  C_25
REMARK                            x       y       z     vdW  Elec       q    Type
REMARK                         _______ _______ _______ _____ _____    ______ ____
ROOT
ATOM      1  C   UNL     1       1.785  -2.775   2.602  0.00  0.00    +0.210 A 
ATOM      2  N   UNL     1       2.258  -1.913   3.515  0.00  0.00    -0.187 NA
ATOM      3  C   UNL     1       2.816  -2.575   4.492  0.00  0.00    +0.219 A 
ATOM      4  N   UNL     1       2.705  -3.899   4.221  0.00  0.00    -0.220 N 
ATOM      5  N   UNL     1       2.036  -4.003   3.002  0.00  0.00    -0.141 NA
ATOM      6  C   UNL     1       3.209  -4.949   5.102  0.00  0.00    +0.179 C 
ATOM      7  C   UNL     1       4.100  -4.339   6.150  0.00  0.00    +0.060 C 
ATOM      8  C   UNL     1       4.173  -3.018   6.371  0.00  0.00    +0.018 C 
ATOM      9  N   UNL     1       3.440  -2.113   5.642  0.00  0.00    -0.287 N 
ATOM     10  C   UNL     1       5.088  -2.510   7.455  0.00  0.00    +0.061 C 
ATOM     11  H   UNL     1       3.362  -1.187   5.920  0.00  0.00    +0.155 HD
ENDROOT
BRANCH   6  12
ATOM     12  C   UNL     1       2.051  -5.645   5.769  0.00  0.00    -0.000 A 
ATOM     13  C   UNL     1       1.852  -7.005   5.592  0.00  0.00    +0.009 A 
ATOM     14  C   UNL     1       0.773  -7.603   6.225  0.00  0.00    +0.020 A 
ATOM     15  C   UNL     1      -0.062  -6.828   7.008  0.00  0.00    +0.111 A 
ATOM     16  N   UNL     1       0.158  -5.536   7.154  0.00  0.00    -0.263 NA
ATOM     17  C   UNL     1       1.177  -4.935   6.571  0.00  0.00    +0.116 A 
ENDBRANCH   6  12
BRANCH   7  18
ATOM     18  C   UNL     1       4.899  -5.199   6.940  0.00  0.00    +0.248 C 
ATOM     19  O   UNL     1       5.900  -5.705   6.467  0.00  0.00    -0.270 OA
ATOM     20  N   UNL     1       4.552  -5.458   8.216  0.00  0.00    -0.281 N 
ATOM     21  H   UNL     1       3.722  -5.105   8.574  0.00  0.00    +0.155 HD
BRANCH  20  22
ATOM     22  C   UNL     1       5.387  -6.235   9.025  0.00  0.00    +0.037 A 
ATOM     23  C   UNL     1       6.112  -7.283   8.472  0.00  0.00    +0.024 A 
ATOM     24  C   UNL     1       6.936  -8.049   9.272  0.00  0.00    +0.005 A 
ATOM     25  C   UNL     1       7.040  -7.773  10.624  0.00  0.00    -0.050 A 
ATOM     26  C   UNL     1       6.320  -6.731  11.177  0.00  0.00    +0.008 A 
ATOM     27  C   UNL     1       5.498  -5.958  10.381  0.00  0.00    -0.029 A 
ATOM     28  C   UNL     1       4.718  -4.818  10.984  0.00  0.00    +0.045 C 
ATOM     29  C   UNL     1       7.940  -8.611  11.495  0.00  0.00    +0.044 C 
ENDBRANCH  20  22
ENDBRANCH   7  18
BRANCH   1  30
ATOM     30  S   UNL     1       0.954  -2.334   1.112  0.00  0.00    -0.084 S 
BRANCH  30  31
ATOM     31  C   UNL     1       0.926  -0.520   1.146  0.00  0.00    +0.077 C 
BRANCH  31  33
ATOM     32  C   UNL     1       0.199   1.532  -0.080  0.00  0.00    +0.004 C 
ATOM     33  C   UNL     1       0.223   0.002  -0.108  0.00  0.00    +0.008 C 
ENDBRANCH  31  33
ENDBRANCH  30  31
ENDBRANCH   1  30
TORSDOF 6
