REMARK  Name = ZINC15733779
REMARK  10 active torsions:
REMARK  status: ('A' for Active; 'I' for Inactive)
REMARK    1  A    between atoms: C_1  and  C_2
REMARK    2  A    between atoms: C_2  and  O_3
REMARK    3  A    between atoms: O_3  and  C_4
REMARK    4  A    between atoms: C_7  and  C_10
REMARK    5  A    between atoms: C_10  and  N_11
REMARK    6  A    between atoms: N_11  and  S_12
REMARK    7  A    between atoms: S_12  and  C_15
REMARK    8  A    between atoms: C_20  and  C_21
REMARK    9  A    between atoms: C_27  and  C_31
REMARK   10  A    between atoms: C_27  and  C_32
REMARK                            x       y       z     vdW  Elec       q    Type
REMARK                         _______ _______ _______ _____ _____    ______ ____
ROOT
ATOM      1  C   UNL     1       0.189   6.468   1.122  0.00  0.00    +0.110 A 
ATOM      2  C   UNL     1      -0.586   7.279   1.922  0.00  0.00    +0.055 A 
ATOM      3  C   UNL     1      -1.660   7.972   1.377  0.00  0.00    +0.049 A 
ATOM      4  C   UNL     1      -1.946   7.836   0.006  0.00  0.00    +0.011 A 
ATOM      5  C   UNL     1      -1.153   7.013  -0.789  0.00  0.00    +0.016 A 
ATOM      6  C   UNL     1      -0.089   6.338  -0.231  0.00  0.00    -0.023 A 
ATOM      7  C   UNL     1       0.772   5.452  -1.093  0.00  0.00    +0.046 C 
ATOM      8  C   UNL     1      -3.116   8.683  -0.236  0.00  0.00    +0.046 A 
ATOM      9  C   UNL     1      -3.446   9.264   0.980  0.00  0.00    +0.028 A 
ATOM     10  N   UNL     1      -2.592   8.838   1.920  0.00  0.00    -0.357 N 
ATOM     11  H   UNL     1      -2.623   9.102   2.853  0.00  0.00    +0.166 HD
ATOM     12  C   UNL     1      -4.606  10.223   1.117  0.00  0.00    +0.060 C 
ATOM     13  C   UNL     1      -4.831  10.893  -0.245  0.00  0.00    -0.023 C 
ATOM     14  C   UNL     1      -5.052   9.839  -1.330  0.00  0.00    +0.086 C 
ATOM     15  C   UNL     1      -3.845   8.931  -1.424  0.00  0.00    +0.166 C 
ATOM     16  O   UNL     1      -3.512   8.434  -2.481  0.00  0.00    -0.292 OA
ATOM     17  C   UNL     1      -3.605  11.736  -0.601  0.00  0.00    +0.011 C 
ATOM     18  C   UNL     1      -6.061  11.799  -0.163  0.00  0.00    +0.011 C 
ENDROOT
BRANCH   1  19
ATOM     19  S   UNL     1       1.550   5.593   1.821  0.00  0.00    +0.059 S 
ATOM     20  O   UNL     1       1.433   4.245   1.386  0.00  0.00    -0.153 OA
ATOM     21  O   UNL     1       1.597   5.949   3.196  0.00  0.00    -0.153 OA
BRANCH  19  22
ATOM     22  N   UNL     1       2.928   6.196   1.128  0.00  0.00    -0.186 NA
ATOM     23  H   UNL     1       3.483   5.624   0.576  0.00  0.00    +0.148 HD
BRANCH  22  24
ATOM     24  C   UNL     1       3.307   7.594   1.349  0.00  0.00    +0.141 C 
BRANCH  24  28
ATOM     25  C   UNL     1       7.392   8.155   0.225  0.00  0.00    +0.121 A 
ATOM     26  C   UNL     1       6.383   8.334  -0.710  0.00  0.00    +0.046 A 
ATOM     27  C   UNL     1       5.064   8.152  -0.345  0.00  0.00    +0.008 A 
ATOM     28  C   UNL     1       4.748   7.792   0.952  0.00  0.00    -0.032 A 
ATOM     29  C   UNL     1       5.751   7.613   1.887  0.00  0.00    +0.008 A 
ATOM     30  C   UNL     1       7.073   7.793   1.526  0.00  0.00    +0.046 A 
BRANCH  25  31
ATOM     31  O   UNL     1       8.691   8.333  -0.133  0.00  0.00    -0.492 OA
BRANCH  31  33
ATOM     32  C   UNL     1      11.069   8.375   0.297  0.00  0.00    +0.048 C 
ATOM     33  C   UNL     1       9.677   8.132   0.882  0.00  0.00    +0.225 C 
ENDBRANCH  31  33
ENDBRANCH  25  31
ENDBRANCH  24  28
ENDBRANCH  22  24
ENDBRANCH  19  22
ENDBRANCH   1  19
TORSDOF 6
