REMARK  Name = ZINC08938358
REMARK  6 active torsions:
REMARK  status: ('A' for Active; 'I' for Inactive)
REMARK    1  A    between atoms: C_1  and  C_2
REMARK    2  A    between atoms: C_5  and  S_8
REMARK    3  A    between atoms: S_8  and  N_11
REMARK    4  A    between atoms: C_17  and  C_18
REMARK    5  A    between atoms: C_17  and  N_48
REMARK    6  A    between atoms: C_18  and  C_20
REMARK                            x       y       z     vdW  Elec       q    Type
REMARK                         _______ _______ _______ _____ _____    ______ ____
ROOT
ATOM      1  N   UNL     1      -4.533   5.871  -0.528  0.00  0.00    -0.178 NA
ATOM      2  C   UNL     1      -5.096   5.287   0.670  0.00  0.00    +0.107 C 
ATOM      3  C   UNL     1      -3.978   5.094   1.726  0.00  0.00    -0.001 C 
ATOM      4  C   UNL     1      -3.056   4.029   1.287  0.00  0.00    -0.077 C 
ATOM      5  C   UNL     1      -3.136   3.883  -1.100  0.00  0.00    -0.061 C 
ATOM      6  C   UNL     1      -3.976   5.060  -1.631  0.00  0.00    +0.091 C 
ATOM      7  N   UNL     1      -2.352   4.343   0.035  0.00  0.00    +0.385 N 
ATOM      8  H   UNL     1      -2.228   5.360  -0.033  0.00  0.00    -0.081 HD
ENDROOT
BRANCH   1   9
ATOM      9  S   UNL     1      -4.512   7.520  -0.670  0.00  0.00    +0.061 S 
ATOM     10  O   UNL     1      -4.460   7.808  -2.061  0.00  0.00    -0.153 OA
ATOM     11  O   UNL     1      -5.546   8.013   0.172  0.00  0.00    -0.153 OA
BRANCH   9  16
ATOM     12  C   UNL     1       0.697   9.449   1.687  0.00  0.00    +0.044 C 
ATOM     13  C   UNL     1      -0.604   8.967   1.098  0.00  0.00    -0.050 A 
ATOM     14  C   UNL     1      -0.679   8.647  -0.244  0.00  0.00    +0.005 A 
ATOM     15  C   UNL     1      -1.872   8.205  -0.784  0.00  0.00    +0.029 A 
ATOM     16  C   UNL     1      -2.991   8.083   0.018  0.00  0.00    +0.105 A 
ATOM     17  C   UNL     1      -2.918   8.408   1.360  0.00  0.00    +0.029 A 
ATOM     18  C   UNL     1      -1.723   8.846   1.901  0.00  0.00    +0.005 A 
ENDBRANCH   9  16
ENDBRANCH   1   9
BRANCH   7  19
ATOM     19  C   UNL     1      -1.022   3.696   0.027  0.00  0.00    +0.004 C 
BRANCH  19  20
ATOM     20  C   UNL     1      -1.167   2.196   0.020  0.00  0.00    +0.163 C 
ATOM     21  O   UNL     1      -2.272   1.693   0.022  0.00  0.00    -0.293 OA
BRANCH  20  22
ATOM     22  C   UNL     1      -0.017   1.375   0.010  0.00  0.00    +0.080 A 
ATOM     23  C   UNL     1       1.299   1.806  -0.001  0.00  0.00    +0.030 A 
ATOM     24  C   UNL     1       2.101   0.664  -0.014  0.00  0.00    +0.020 A 
ATOM     25  C   UNL     1       1.285  -0.419  -0.013  0.00  0.00    +0.083 A 
ATOM     26  N   UNL     1       0.002  -0.004   0.002  0.00  0.00    -0.358 N 
ATOM     27  H   UNL     1      -0.778  -0.580   0.007  0.00  0.00    +0.165 HD
ENDBRANCH  20  22
ENDBRANCH  19  20
ENDBRANCH   7  19
TORSDOF 5
