REMARK  Name = ZINC12661257
REMARK  6 active torsions:
REMARK  status: ('A' for Active; 'I' for Inactive)
REMARK    1  A    between atoms: C_1  and  C_2
REMARK    2  A    between atoms: C_5  and  O_35
REMARK    3  A    between atoms: C_18  and  C_34
REMARK    4  A    between atoms: C_23  and  N_25
REMARK    5  A    between atoms: C_26  and  C_28
REMARK    6  A    between atoms: C_28  and  N_72
REMARK                            x       y       z     vdW  Elec       q    Type
REMARK                         _______ _______ _______ _____ _____    ______ ____
ROOT
ATOM      1  C   UNL     1       2.424  -2.499   1.243  0.00  0.00    +0.012 C 
ATOM      2  C   UNL     1       0.969  -2.034   1.192  0.00  0.00    -0.026 C 
ATOM      3  C   UNL     1       0.258  -2.537   2.452  0.00  0.00    +0.010 C 
ATOM      4  C   UNL     1       0.327  -4.064   2.516  0.00  0.00    +0.032 C 
ATOM      5  C   UNL     1      -0.267  -4.704   1.265  0.00  0.00    +0.115 C 
ATOM      6  C   UNL     1       0.411  -4.168  -0.001  0.00  0.00    +0.035 C 
ATOM      7  C   UNL     1       0.274  -2.656  -0.019  0.00  0.00    -0.002 C 
ATOM      8  C   UNL     1       0.806  -2.013  -1.290  0.00  0.00    +0.004 C 
ATOM      9  C   UNL     1       0.198  -0.608  -1.372  0.00  0.00    +0.004 C 
ATOM     10  C   UNL     1       0.002  -0.004   0.002  0.00  0.00    -0.004 C 
ATOM     11  C   UNL     1       0.922  -0.520   1.099  0.00  0.00    -0.001 C 
ATOM     12  C   UNL     1       2.287   0.141   1.128  0.00  0.00    +0.005 C 
ATOM     13  C   UNL     1       2.148   1.676   1.216  0.00  0.00    +0.009 C 
ATOM     14  C   UNL     1       1.382   2.138   0.000  0.00  0.00    -0.011 C 
ATOM     15  C   UNL     1      -0.018   1.499   0.010  0.00  0.00    +0.000 C 
ATOM     16  C   UNL     1      -0.701   2.219  -1.159  0.00  0.00    +0.006 C 
ATOM     17  C   UNL     1      -0.216   3.687  -0.981  0.00  0.00    +0.023 C 
ATOM     18  C   UNL     1       1.025   3.633  -0.053  0.00  0.00    +0.079 C 
ATOM     19  C   UNL     1       2.187   1.832  -1.263  0.00  0.00    +0.013 C 
ENDROOT
BRANCH  18  20
ATOM     20  N   UNL     1       0.696   4.136   1.278  0.00  0.00    -0.313 N 
ATOM     21  C   UNL     1       0.846   5.446   1.559  0.00  0.00    +0.197 C 
ATOM     22  O   UNL     1       1.254   6.206   0.707  0.00  0.00    -0.278 OA
ATOM     23  H   UNL     1       0.370   3.528   1.959  0.00  0.00    +0.149 HD
BRANCH  21  24
ATOM     24  C   UNL     1       0.507   5.965   2.932  0.00  0.00    +0.019 C 
BRANCH  24  30
ATOM     25  C   UNL     1       2.189   7.707   2.850  0.00  0.00    -0.050 C 
ATOM     26  C   UNL     1       2.395   9.224   2.848  0.00  0.00    +0.141 C 
ATOM     27  O   UNL     1       1.838   9.777   4.043  0.00  0.00    -0.383 OA
ATOM     28  C   UNL     1       0.443   9.510   4.206  0.00  0.00    +0.141 C 
ATOM     29  C   UNL     1       0.216   7.995   4.221  0.00  0.00    -0.050 C 
ATOM     30  N   UNL     1       0.742   7.425   2.963  0.00  0.00    +0.388 N 
ATOM     31  H   UNL     1       0.254   7.858   2.170  0.00  0.00    -0.081 HD
ENDBRANCH  24  30
ENDBRANCH  21  24
ENDBRANCH  18  20
BRANCH   5  32
ATOM     32  O   UNL     1      -0.085  -6.121   1.329  0.00  0.00    -0.392 OA
ATOM     33  H   UNL     1      -0.487  -6.535   2.105  0.00  0.00    +0.210 HD
ENDBRANCH   5  32
TORSDOF 4
