REMARK  Name = ZINC21120521
REMARK  8 active torsions:
REMARK  status: ('A' for Active; 'I' for Inactive)
REMARK    1  A    between atoms: C_1  and  C_2
REMARK    2  A    between atoms: C_5  and  N_8
REMARK    3  A    between atoms: C_9  and  C_28
REMARK    4  A    between atoms: C_12  and  S_13
REMARK    5  A    between atoms: S_13  and  C_14
REMARK    6  A    between atoms: C_14  and  C_15
REMARK    7  A    between atoms: N_17  and  N_18
REMARK    8  A    between atoms: C_19  and  C_21
REMARK                            x       y       z     vdW  Elec       q    Type
REMARK                         _______ _______ _______ _____ _____    ______ ____
ROOT
ATOM      1  N   UNL     1       8.896   1.617  -0.080  0.00  0.00    -0.270 N 
ATOM      2  C   UNL     1       9.595   0.429  -0.088  0.00  0.00    +0.169 A 
ATOM      3  N   UNL     1       8.709  -0.539  -0.085  0.00  0.00    -0.128 NA
ATOM      4  N   UNL     1       7.521  -0.049  -0.070  0.00  0.00    -0.122 NA
ATOM      5  C   UNL     1       7.574   1.265  -0.064  0.00  0.00    +0.197 A 
ENDROOT
BRANCH   1  10
ATOM      6  C   UNL     1      11.049   6.868  -0.097  0.00  0.00    +0.044 C 
ATOM      7  C   UNL     1      10.477   5.474  -0.092  0.00  0.00    -0.050 A 
ATOM      8  C   UNL     1       9.761   5.025   1.003  0.00  0.00    +0.005 A 
ATOM      9  C   UNL     1       9.236   3.748   1.010  0.00  0.00    +0.026 A 
ATOM     10  C   UNL     1       9.428   2.914  -0.084  0.00  0.00    +0.051 A 
ATOM     11  C   UNL     1      10.152   3.365  -1.179  0.00  0.00    +0.026 A 
ATOM     12  C   UNL     1      10.669   4.646  -1.183  0.00  0.00    +0.005 A 
ENDBRANCH   1  10
BRANCH   2  13
ATOM     13  C   UNL     1      11.065   0.276  -0.103  0.00  0.00    +0.020 A 
ATOM     14  C   UNL     1      11.887   1.362   0.202  0.00  0.00    +0.013 A 
ATOM     15  C   UNL     1      13.258   1.211   0.192  0.00  0.00    +0.021 A 
ATOM     16  C   UNL     1      13.819  -0.013  -0.132  0.00  0.00    +0.041 A 
ATOM     17  C   UNL     1      13.010  -1.093  -0.440  0.00  0.00    +0.021 A 
ATOM     18  C   UNL     1      11.637  -0.956  -0.428  0.00  0.00    +0.013 A 
ATOM     19 CL   UNL     1      15.546  -0.194  -0.150  0.00  0.00    -0.084 Cl
ENDBRANCH   2  13
BRANCH   5  20
ATOM     20  S   UNL     1       6.199   2.366  -0.044  0.00  0.00    -0.076 S 
BRANCH  20  21
ATOM     21  C   UNL     1       4.839   1.171  -0.038  0.00  0.00    +0.174 C 
BRANCH  21  22
ATOM     22  C   UNL     1       3.524   1.907  -0.021  0.00  0.00    +0.239 C 
ATOM     23  O   UNL     1       3.508   3.120  -0.015  0.00  0.00    -0.273 OA
ATOM     24  N   UNL     1       2.366   1.217  -0.014  0.00  0.00    -0.233 N 
ATOM     25  H   UNL     1       2.381   0.117  -0.020  0.00  0.00    +0.173 HD
BRANCH  24  26
ATOM     26  N   UNL     1       1.143   1.901   0.001  0.00  0.00    -0.230 N 
ATOM     27  C   UNL     1      -0.014   1.212   0.009  0.00  0.00    +0.260 C 
ATOM     28  O   UNL     1       0.002  -0.004   0.002  0.00  0.00    -0.269 OA
ATOM     29  H   UNL     1       1.129   3.001   0.007  0.00  0.00    +0.173 HD
BRANCH  27  30
ATOM     30  C   UNL     1      -1.304   1.933   0.019  0.00  0.00    +0.038 A 
ATOM     31  C   UNL     1      -1.325   3.329   0.032  0.00  0.00    +0.016 A 
ATOM     32  C   UNL     1      -2.531   3.997   0.036  0.00  0.00    +0.039 A 
ATOM     33  C   UNL     1      -3.721   3.285   0.038  0.00  0.00    +0.123 A 
ATOM     34  C   UNL     1      -3.705   1.898   0.030  0.00  0.00    +0.039 A 
ATOM     35  C   UNL     1      -2.505   1.220   0.021  0.00  0.00    +0.016 A 
ATOM     36  F   UNL     1      -4.900   3.944   0.048  0.00  0.00    -0.205 F 
ENDBRANCH  27  30
ENDBRANCH  24  26
ENDBRANCH  21  22
ENDBRANCH  20  21
ENDBRANCH   5  20
TORSDOF 7
