REMARK  Name = ZINC22418226
REMARK  10 active torsions:
REMARK  status: ('A' for Active; 'I' for Inactive)
REMARK    1  A    between atoms: C_1  and  N_2
REMARK    2  A    between atoms: N_2  and  C_3
REMARK    3  A    between atoms: N_2  and  C_4
REMARK    4  A    between atoms: C_7  and  C_10
REMARK    5  A    between atoms: C_10  and  C_12
REMARK    6  A    between atoms: C_10  and  N_26
REMARK    7  A    between atoms: C_12  and  N_13
REMARK    8  A    between atoms: C_14  and  C_16
REMARK    9  A    between atoms: C_16  and  O_17
REMARK   10  A    between atoms: O_17  and  C_18
REMARK                            x       y       z     vdW  Elec       q    Type
REMARK                         _______ _______ _______ _____ _____    ______ ____
ROOT
ATOM      1  C   UNL     1       2.349   0.656  -0.078  0.00  0.00    -0.020 C 
ENDROOT
BRANCH   1   2
ATOM      2  N   UNL     1       2.149  -0.337   0.986  0.00  0.00    +0.388 N 
ATOM      3  C   UNL     1       3.192  -1.373   0.942  0.00  0.00    -0.073 C 
ATOM      4  C   UNL     1       3.159  -2.151   2.258  0.00  0.00    +0.017 C 
ATOM      5  C   UNL     1       1.751  -2.597   2.557  0.00  0.00    -0.048 A 
ATOM      6  C   UNL     1       1.559  -3.600   3.495  0.00  0.00    +0.004 A 
ATOM      7  C   UNL     1       0.286  -4.035   3.801  0.00  0.00    +0.000 A 
ATOM      8  C   UNL     1      -0.805  -3.469   3.168  0.00  0.00    +0.000 A 
ATOM      9  C   UNL     1      -0.616  -2.471   2.233  0.00  0.00    +0.002 A 
ATOM     10  C   UNL     1       0.664  -2.034   1.923  0.00  0.00    -0.061 A 
ATOM     11  C   UNL     1       0.820  -0.950   0.890  0.00  0.00    -0.042 C 
ATOM     12  H   UNL     1       2.217   0.189   1.950  0.00  0.00    -0.080 HD
ENDBRANCH   1   2
BRANCH   1  16
ATOM     13  C   UNL     1       6.050   2.697   0.555  0.00  0.00    +0.029 A 
ATOM     14  C   UNL     1       5.664   2.339  -0.730  0.00  0.00    +0.023 A 
ATOM     15  C   UNL     1       4.467   1.680  -0.931  0.00  0.00    +0.004 A 
ATOM     16  C   UNL     1       3.654   1.376   0.145  0.00  0.00    -0.059 A 
ATOM     17  C   UNL     1       4.033   1.736   1.426  0.00  0.00    +0.004 A 
ATOM     18  C   UNL     1       5.231   2.391   1.635  0.00  0.00    +0.023 A 
BRANCH  13  20
ATOM     19  C   UNL     1       8.122   3.688  -0.377  0.00  0.00    +0.129 C 
ATOM     20  N   UNL     1       7.260   3.365   0.763  0.00  0.00    -0.336 N 
ATOM     21  C   UNL     1       7.665   3.742   2.119  0.00  0.00    +0.129 C 
ENDBRANCH  13  20
ENDBRANCH   1  16
BRANCH   1  22
ATOM     22  C   UNL     1       1.200   1.666  -0.056  0.00  0.00    +0.093 C 
BRANCH  22  23
ATOM     23  N   UNL     1       1.351   2.603  -1.172  0.00  0.00    -0.314 N 
ATOM     24  C   UNL     1       0.402   3.531  -1.406  0.00  0.00    +0.251 C 
ATOM     25  O   UNL     1      -0.580   3.587  -0.696  0.00  0.00    -0.272 OA
ATOM     26  H   UNL     1       2.239   2.549  -1.819  0.00  0.00    +0.149 HD
BRANCH  24  27
ATOM     27  C   UNL     1       0.561   4.499  -2.550  0.00  0.00    +0.324 C 
BRANCH  27  28
ATOM     28  O   UNL     1      -0.566   5.376  -2.592  0.00  0.00    -0.481 OA
BRANCH  28  29
ATOM     29  C   UNL     1      -0.580   6.317  -3.573  0.00  0.00    +0.140 A 
ATOM     30  C   UNL     1       0.469   6.394  -4.476  0.00  0.00    +0.048 A 
ATOM     31  C   UNL     1       0.454   7.351  -5.472  0.00  0.00    +0.023 A 
ATOM     32  C   UNL     1      -0.608   8.233  -5.570  0.00  0.00    +0.043 A 
ATOM     33  C   UNL     1      -1.656   8.159  -4.670  0.00  0.00    +0.043 A 
ATOM     34  C   UNL     1      -1.647   7.199  -3.675  0.00  0.00    +0.084 A 
ATOM     35 CL   UNL     1      -2.966   7.101  -2.550  0.00  0.00    -0.080 Cl
ATOM     36 CL   UNL     1      -0.625   9.435  -6.822  0.00  0.00    -0.083 Cl
ENDBRANCH  28  29
ENDBRANCH  27  28
ENDBRANCH  24  27
ENDBRANCH  22  23
ENDBRANCH   1  22
TORSDOF 8
