REMARK  Name = ZINC17251079
REMARK  8 active torsions:
REMARK  status: ('A' for Active; 'I' for Inactive)
REMARK    1  A    between atoms: C_1  and  C_2
REMARK    2  A    between atoms: C_5  and  S_8
REMARK    3  A    between atoms: S_8  and  N_11
REMARK    4  A    between atoms: N_11  and  N_12
REMARK    5  A    between atoms: C_24  and  C_26
REMARK    6  A    between atoms: C_26  and  N_65
REMARK    7  A    between atoms: C_27  and  N_65
REMARK    8  A    between atoms: C_28  and  N_65
REMARK                            x       y       z     vdW  Elec       q    Type
REMARK                         _______ _______ _______ _____ _____    ______ ____
ROOT
ATOM      1  N   UNL     1       0.297  -0.309  -0.089  0.00  0.00    -0.175 NA
ATOM      2  C   UNL     1       0.184   0.956   0.073  0.00  0.00    +0.039 C 
ATOM      3  C   UNL     1      -1.175   1.567   0.298  0.00  0.00    +0.053 C 
ATOM      4  C   UNL     1      -1.860   0.860   1.475  0.00  0.00    +0.006 C 
ATOM      5  C   UNL     1      -2.135   1.870   2.590  0.00  0.00    +0.000 C 
ATOM      6  C   UNL     1      -1.624   1.313   3.921  0.00  0.00    +0.000 C 
ATOM      7  C   UNL     1      -0.724   2.349   4.596  0.00  0.00    +0.000 C 
ATOM      8  C   UNL     1       0.636   1.719   4.905  0.00  0.00    +0.000 C 
ATOM      9  C   UNL     1       1.747   2.592   4.317  0.00  0.00    +0.000 C 
ATOM     10  C   UNL     1       2.669   1.729   3.452  0.00  0.00    +0.000 C 
ATOM     11  C   UNL     1       2.783   2.346   2.056  0.00  0.00    +0.001 C 
ATOM     12  C   UNL     1       2.459   1.286   1.002  0.00  0.00    +0.007 C 
ATOM     13  C   UNL     1       1.408   1.833   0.034  0.00  0.00    +0.018 C 
ENDROOT
BRANCH   1  14
ATOM     14  N   UNL     1       1.560  -0.877  -0.304  0.00  0.00    -0.137 N 
ATOM     15  H   UNL     1       2.348  -0.312  -0.329  0.00  0.00    +0.197 HD
BRANCH  14  16
ATOM     16  S   UNL     1       1.707  -2.513  -0.514  0.00  0.00    +0.086 S 
ATOM     17  O   UNL     1       3.066  -2.759  -0.850  0.00  0.00    -0.149 OA
ATOM     18  O   UNL     1       1.075  -3.124   0.602  0.00  0.00    -0.149 OA
BRANCH  16  23
ATOM     19  C   UNL     1      -1.561  -3.988  -5.367  0.00  0.00    +0.044 C 
ATOM     20  C   UNL     1      -0.744  -3.620  -4.155  0.00  0.00    -0.050 A 
ATOM     21  C   UNL     1       0.587  -3.275  -4.297  0.00  0.00    +0.005 A 
ATOM     22  C   UNL     1       1.335  -2.937  -3.185  0.00  0.00    +0.029 A 
ATOM     23  C   UNL     1       0.753  -2.944  -1.931  0.00  0.00    +0.110 A 
ATOM     24  C   UNL     1      -0.577  -3.294  -1.789  0.00  0.00    +0.029 A 
ATOM     25  C   UNL     1      -1.327  -3.628  -2.901  0.00  0.00    +0.005 A 
ENDBRANCH  16  23
ENDBRANCH  14  16
ENDBRANCH   1  14
BRANCH  13  26
ATOM     26  C   UNL     1       1.980   1.848  -1.385  0.00  0.00    -0.070 C 
BRANCH  26  29
ATOM     27  C   UNL     1       3.922   2.546  -2.651  0.00  0.00    -0.097 C 
ATOM     28  C   UNL     1       2.657   4.173  -1.380  0.00  0.00    -0.097 C 
ATOM     29  N   UNL     1       3.131   2.774  -1.423  0.00  0.00    +0.376 N 
ATOM     30  H   UNL     1       3.727   2.599  -0.606  0.00  0.00    -0.083 HD
ENDBRANCH  26  29
ENDBRANCH  13  26
TORSDOF 5
