REMARK  Name = ZINC11069840
REMARK  6 active torsions:
REMARK  status: ('A' for Active; 'I' for Inactive)
REMARK    1  A    between atoms: C_1  and  C_2
REMARK    2  A    between atoms: C_2  and  C_4
REMARK    3  A    between atoms: C_2  and  S_11
REMARK    4  A    between atoms: N_9  and  C_10
REMARK    5  A    between atoms: S_11  and  C_12
REMARK    6  A    between atoms: N_25  and  C_26
REMARK                            x       y       z     vdW  Elec       q    Type
REMARK                         _______ _______ _______ _____ _____    ______ ____
ROOT
ATOM      1  C   UNL     1      -6.937   0.436   0.630  0.00  0.00    +0.174 A 
ATOM      2  N   UNL     1      -6.135   0.756   1.637  0.00  0.00    -0.216 NA
ATOM      3  C   UNL     1      -4.848   0.920   1.361  0.00  0.00    +0.117 A 
ATOM      4  C   UNL     1      -4.292   0.773   0.070  0.00  0.00    +0.076 A 
ATOM      5  C   UNL     1      -2.859   0.992  -0.039  0.00  0.00    -0.023 A 
ATOM      6  C   UNL     1      -2.206   1.312   1.102  0.00  0.00    -0.004 A 
ATOM      7  S   UNL     1      -3.456   1.338   2.362  0.00  0.00    -0.073 S 
ATOM      8  C   UNL     1      -0.738   1.584   1.266  0.00  0.00    +0.043 C 
ATOM      9  C   UNL     1      -0.013   1.086   0.008  0.00  0.00    +0.005 C 
ATOM     10  C   UNL     1      -0.760   1.597  -1.227  0.00  0.00    +0.005 C 
ATOM     11  C   UNL     1      -2.101   0.874  -1.359  0.00  0.00    +0.037 C 
ATOM     12  C   UNL     1      -5.188   0.425  -0.993  0.00  0.00    +0.263 A 
ATOM     13  O   UNL     1      -4.804   0.277  -2.141  0.00  0.00    -0.267 OA
ATOM     14  N   UNL     1      -6.487   0.273  -0.645  0.00  0.00    -0.284 N 
ENDROOT
BRANCH  14  15
ATOM     15  C   UNL     1      -7.453  -0.083  -1.687  0.00  0.00    +0.093 C 
ATOM     16  C   UNL     1      -7.037  -1.405  -2.364  0.00  0.00    +0.025 C 
ATOM     17  C   UNL     1      -7.408  -1.201  -3.855  0.00  0.00    +0.002 C 
ATOM     18  C   UNL     1      -7.049   0.286  -4.096  0.00  0.00    +0.002 C 
ATOM     19  C   UNL     1      -7.461   0.992  -2.788  0.00  0.00    +0.025 C 
ENDBRANCH  14  15
BRANCH   1  20
ATOM     20  S   UNL     1      -8.654   0.210   0.956  0.00  0.00    -0.075 S 
BRANCH  20  22
ATOM     21  C   UNL     1      -8.300   1.996   2.992  0.00  0.00    +0.029 C 
ATOM     22  C   UNL     1      -8.682   0.537   2.736  0.00  0.00    +0.137 C 
BRANCH  22  23
ATOM     23  C   UNL     1     -10.066   0.279   3.272  0.00  0.00    +0.233 C 
ATOM     24  O   UNL     1     -11.016   0.268   2.519  0.00  0.00    -0.274 OA
ATOM     25  N   UNL     1     -10.248   0.060   4.590  0.00  0.00    -0.239 N 
ATOM     26  C   UNL     1     -11.486  -0.171   5.069  0.00  0.00    +0.306 C 
ATOM     27  O   UNL     1     -12.438  -0.182   4.314  0.00  0.00    -0.252 OA
ATOM     28  N   UNL     1     -11.668  -0.390   6.387  0.00  0.00    -0.302 N 
ATOM     29  C   UNL     1     -13.014  -0.641   6.909  0.00  0.00    +0.129 C 
ATOM     30  H   UNL     1      -9.488   0.069   5.192  0.00  0.00    +0.159 HD
ATOM     31  H   UNL     1     -10.908  -0.381   6.990  0.00  0.00    +0.150 HD
ENDBRANCH  22  23
ENDBRANCH  20  22
ENDBRANCH   1  20
TORSDOF 4
