REMARK  Name = ZINC16386001
REMARK  1 active torsions:
REMARK  status: ('A' for Active; 'I' for Inactive)
REMARK    1  A    between atoms: C_6  and  C_7
REMARK                            x       y       z     vdW  Elec       q    Type
REMARK                         _______ _______ _______ _____ _____    ______ ____
ROOT
ATOM      1  C   UNL     1      -1.309   2.116   0.020  0.00  0.00    +0.072 A 
ATOM      2  C   UNL     1      -1.323   3.513   0.033  0.00  0.00    +0.029 A 
ATOM      3  C   UNL     1      -2.507   4.190   0.038  0.00  0.00    +0.015 A 
ATOM      4  C   UNL     1      -3.720   3.461   0.039  0.00  0.00    +0.034 A 
ATOM      5  C   UNL     1      -5.091   3.999   0.049  0.00  0.00    +0.096 A 
ATOM      6  C   UNL     1      -6.119   3.058   0.048  0.00  0.00    +0.105 A 
ATOM      7  C   UNL     1      -7.462   3.446   0.056  0.00  0.00    +0.267 A 
ATOM      8  O   UNL     1      -8.354   2.615   0.055  0.00  0.00    -0.267 OA
ATOM      9  N   UNL     1      -7.745   4.770   0.065  0.00  0.00    -0.294 N 
ATOM     10  H   UNL     1      -8.666   5.074   0.070  0.00  0.00    +0.172 HD
ATOM     11  C   UNL     1      -6.721   5.670   0.065  0.00  0.00    +0.194 A 
ATOM     12  N   UNL     1      -5.465   5.310   0.058  0.00  0.00    -0.215 NA
ATOM     13  N   UNL     1      -7.022   7.010   0.074  0.00  0.00    -0.329 N 
ATOM     14  S   UNL     1      -5.293   1.489   0.035  0.00  0.00    -0.062 S 
ATOM     15  C   UNL     1      -3.610   2.057   0.031  0.00  0.00    +0.112 A 
ATOM     16  N   UNL     1      -2.450   1.437   0.021  0.00  0.00    -0.239 NA
ATOM     17  H   UNL     1      -7.948   7.299   0.080  0.00  0.00    +0.145 HD
ATOM     18  H   UNL     1      -6.309   7.667   0.075  0.00  0.00    +0.145 HD
ENDROOT
BRANCH   1  24
ATOM     19  C   UNL     1       0.002  -0.004   0.002  0.00  0.00    +0.011 A 
ATOM     20  C   UNL     1       1.207  -0.676  -0.013  0.00  0.00    +0.022 A 
ATOM     21  C   UNL     1       2.397   0.032  -0.021  0.00  0.00    +0.059 A 
ATOM     22  C   UNL     1       2.384   1.418  -0.013  0.00  0.00    +0.060 A 
ATOM     23  C   UNL     1       1.184   2.099   0.002  0.00  0.00    +0.031 A 
ATOM     24  C   UNL     1      -0.017   1.390   0.010  0.00  0.00    +0.002 A 
ATOM     25 CL   UNL     1       3.881   2.298  -0.022  0.00  0.00    -0.082 Cl
ATOM     26 CL   UNL     1       3.910  -0.820  -0.040  0.00  0.00    -0.082 Cl
ENDBRANCH   1  24
TORSDOF 1
