REMARK  Name = ZINC45875460
REMARK  3 active torsions:
REMARK  status: ('A' for Active; 'I' for Inactive)
REMARK    1  A    between atoms: C_5  and  N_9
REMARK    2  A    between atoms: C_10  and  C_12
REMARK    3  A    between atoms: C_12  and  N_13
REMARK                            x       y       z     vdW  Elec       q    Type
REMARK                         _______ _______ _______ _____ _____    ______ ____
ROOT
ATOM      1  N   UNL     1       4.350  -0.724  -0.827  0.00  0.00    -0.314 N 
ATOM      2  C   UNL     1       5.356  -0.832   0.064  0.00  0.00    +0.197 C 
ATOM      3  O   UNL     1       5.206  -0.430   1.198  0.00  0.00    -0.278 OA
ATOM      4  H   UNL     1       4.470  -1.046  -1.734  0.00  0.00    +0.149 HD
ENDROOT
BRANCH   1   9
ATOM      5  C   UNL     1      -0.019   1.526   0.010  0.00  0.00    +0.000 C 
ATOM      6  C   UNL     1       1.417   2.055  -0.000  0.00  0.00    +0.000 C 
ATOM      7  C   UNL     1       2.003   1.911  -1.406  0.00  0.00    +0.002 C 
ATOM      8  C   UNL     1       2.370   0.447  -1.657  0.00  0.00    +0.022 C 
ATOM      9  C   UNL     1       3.077  -0.122  -0.425  0.00  0.00    +0.073 C 
ATOM     10  C   UNL     1       2.191  -1.187   0.225  0.00  0.00    +0.022 C 
ATOM     11  C   UNL     1       1.056  -0.506   0.991  0.00  0.00    +0.002 C 
ATOM     12  C   UNL     1       0.002  -0.004   0.002  0.00  0.00    +0.000 C 
ENDBRANCH   1   9
BRANCH   2  13
ATOM     13  C   UNL     1       6.666  -1.451  -0.349  0.00  0.00    +0.019 C 
BRANCH  13  14
ATOM     14  N   UNL     1       7.590  -1.451   0.793  0.00  0.00    +0.388 N 
ATOM     15  C   UNL     1       7.877  -0.068   1.178  0.00  0.00    -0.055 C 
ATOM     16  C   UNL     1       8.540  -0.038   2.560  0.00  0.00    +0.147 C 
ATOM     17  S   UNL     1      10.130  -0.916   2.455  0.00  0.00    -0.034 S 
ATOM     18  O   UNL     1      10.979  -0.211   1.560  0.00  0.00    -0.174 OA
ATOM     19  O   UNL     1      10.585  -1.187   3.774  0.00  0.00    -0.174 OA
ATOM     20  C   UNL     1       9.634  -2.482   1.674  0.00  0.00    +0.147 C 
ATOM     21  C   UNL     1       8.815  -2.161   0.420  0.00  0.00    -0.055 C 
ATOM     22  H   UNL     1       7.155  -1.927   1.570  0.00  0.00    -0.081 HD
ENDBRANCH  13  14
ENDBRANCH   2  13
TORSDOF 3
