REMARK  Name = ZINC11898774
REMARK  8 active torsions:
REMARK  status: ('A' for Active; 'I' for Inactive)
REMARK    1  A    between atoms: C_1  and  N_2
REMARK    2  A    between atoms: C_6  and  C_7
REMARK    3  A    between atoms: C_7  and  C_9
REMARK    4  A    between atoms: C_7  and  N_56
REMARK    5  A    between atoms: C_9  and  N_10
REMARK    6  A    between atoms: C_11  and  C_13
REMARK    7  A    between atoms: N_15  and  C_16
REMARK    8  A    between atoms: C_21  and  C_22
REMARK                            x       y       z     vdW  Elec       q    Type
REMARK                         _______ _______ _______ _____ _____    ______ ____
ROOT
ATOM      1  N   UNL     1       4.252   7.202  -0.242  0.00  0.00    -0.309 N 
ATOM      2  C   UNL     1       4.495   5.918  -0.571  0.00  0.00    +0.299 C 
ATOM      3  O   UNL     1       5.389   5.649  -1.346  0.00  0.00    -0.265 OA
ATOM      4  H   UNL     1       3.538   7.418   0.377  0.00  0.00    +0.149 HD
ENDROOT
BRANCH   2   5
ATOM      5  C   UNL     1       3.664   4.826   0.019  0.00  0.00    +0.303 C 
ATOM      6  O   UNL     1       2.770   5.096   0.794  0.00  0.00    -0.265 OA
ATOM      7  N   UNL     1       3.907   3.542  -0.310  0.00  0.00    -0.277 N 
ATOM      8  H   UNL     1       4.668   3.320  -0.868  0.00  0.00    +0.155 HD
BRANCH   7   9
ATOM      9  C   UNL     1       3.065   2.534   0.153  0.00  0.00    +0.053 A 
ATOM     10  C   UNL     1       1.785   2.841   0.592  0.00  0.00    +0.044 A 
ATOM     11  C   UNL     1       0.952   1.839   1.051  0.00  0.00    +0.043 A 
ATOM     12  C   UNL     1       1.384   0.521   1.071  0.00  0.00    +0.021 A 
ATOM     13  C   UNL     1       2.654   0.199   0.644  0.00  0.00    +0.022 A 
ATOM     14  C   UNL     1       3.507   1.202   0.177  0.00  0.00    +0.073 A 
ATOM     15 CL   UNL     1      -0.649   2.231   1.598  0.00  0.00    -0.083 Cl
BRANCH  14  16
ATOM     16  C   UNL     1       4.826   0.872  -0.274  0.00  0.00    +0.101 C 
ATOM     17  N   UNL     1       5.872   0.611  -0.631  0.00  0.00    -0.191 NA
ENDBRANCH  14  16
ENDBRANCH   7   9
ENDBRANCH   2   5
BRANCH   1  18
ATOM     18  C   UNL     1       5.068   8.273  -0.821  0.00  0.00    +0.095 C 
BRANCH  18  19
ATOM     19  C   UNL     1       4.508   9.630  -0.390  0.00  0.00    -0.003 C 
BRANCH  19  26
ATOM     20  C   UNL     1       2.686  11.200  -0.740  0.00  0.00    -0.078 C 
ATOM     21  C   UNL     1       1.347  11.437  -1.383  0.00  0.00    -0.019 C 
ATOM     22  C   UNL     1       0.254  10.830  -0.478  0.00  0.00    -0.002 C 
ATOM     23  C   UNL     1       0.159   9.382  -0.625  0.00  0.00    -0.002 C 
ATOM     24  C   UNL     1       1.471   8.669  -0.234  0.00  0.00    -0.019 C 
ATOM     25  C   UNL     1       2.445   8.803  -1.373  0.00  0.00    -0.078 C 
ATOM     26  N   UNL     1       3.378   9.976  -1.268  0.00  0.00    +0.386 N 
ATOM     27  H   UNL     1       3.740  10.187  -2.205  0.00  0.00    -0.081 HD
ENDBRANCH  19  26
BRANCH  19  33
ATOM     28  C   UNL     1       7.231   9.753   1.086  0.00  0.00    +0.148 C 
ATOM     29  N   UNL     1       6.763  10.730   0.100  0.00  0.00    -0.355 N 
ATOM     30  C   UNL     1       7.452  11.830  -0.317  0.00  0.00    +0.085 A 
ATOM     31  C   UNL     1       6.696  12.484  -1.222  0.00  0.00    +0.019 A 
ATOM     32  C   UNL     1       5.498  11.757  -1.373  0.00  0.00    +0.021 A 
ATOM     33  C   UNL     1       5.569  10.687  -0.556  0.00  0.00    +0.006 A 
ENDBRANCH  19  33
ENDBRANCH  18  19
ENDBRANCH   1  18
TORSDOF 7
