REMARK  Name = ZINC05771046
REMARK  4 active torsions:
REMARK  status: ('A' for Active; 'I' for Inactive)
REMARK    1  A    between atoms: C_6  and  C_7
REMARK    2  A    between atoms: C_10  and  C_12
REMARK    3  A    between atoms: N_13  and  N_14
REMARK    4  A    between atoms: N_14  and  C_15
REMARK                            x       y       z     vdW  Elec       q    Type
REMARK                         _______ _______ _______ _____ _____    ______ ____
ROOT
ATOM      1  C   UNL     1       0.002  -0.004   0.002  0.00  0.00    +0.136 A 
ATOM      2  C   UNL     1      -0.016   1.361   0.009  0.00  0.00    +0.050 A 
ATOM      3  C   UNL     1       1.316   1.790  -0.001  0.00  0.00    +0.051 A 
ATOM      4  C   UNL     1       2.100   0.656  -0.015  0.00  0.00    +0.148 A 
ATOM      5  O   UNL     1       1.285  -0.417  -0.013  0.00  0.00    -0.454 OA
ENDROOT
BRANCH   1  11
ATOM      6  C   UNL     1      -2.466  -0.322   0.029  0.00  0.00    +0.012 A 
ATOM      7  C   UNL     1      -3.566  -1.131   0.030  0.00  0.00    +0.016 A 
ATOM      8  C   UNL     1      -3.411  -2.522   0.021  0.00  0.00    +0.065 A 
ATOM      9  C   UNL     1      -2.124  -3.076   0.005  0.00  0.00    +0.004 A 
ATOM     10  C   UNL     1      -1.026  -2.272  -0.001  0.00  0.00    +0.019 A 
ATOM     11  C   UNL     1      -1.182  -0.879   0.008  0.00  0.00    +0.018 A 
ATOM     12  C   UNL     1      -2.308  -4.573  -0.001  0.00  0.00    +0.268 C 
ATOM     13  O   UNL     1      -3.743  -4.809   0.012  0.00  0.00    -0.456 OA
ATOM     14  C   UNL     1      -4.382  -3.627   0.024  0.00  0.00    +0.340 C 
ATOM     15  O   UNL     1      -5.589  -3.490   0.036  0.00  0.00    -0.245 OA
ENDBRANCH   1  11
BRANCH   4  16
ATOM     16  C   UNL     1       3.563   0.623  -0.029  0.00  0.00    +0.176 C 
ATOM     17  N   UNL     1       4.189  -0.519  -0.040  0.00  0.00    -0.187 NA
BRANCH  17  18
ATOM     18  N   UNL     1       5.590  -0.550  -0.054  0.00  0.00    -0.232 N 
ATOM     19  H   UNL     1       6.094   0.279  -0.054  0.00  0.00    +0.175 HD
BRANCH  18  20
ATOM     20  C   UNL     1       6.262  -1.776  -0.066  0.00  0.00    +0.124 A 
ATOM     21  C   UNL     1       5.581  -2.947   0.252  0.00  0.00    +0.187 A 
ATOM     22  C   UNL     1       6.248  -4.160   0.233  0.00  0.00    +0.198 A 
ATOM     23  C   UNL     1       7.595  -4.208  -0.090  0.00  0.00    +0.199 A 
ATOM     24  C   UNL     1       8.277  -3.042  -0.402  0.00  0.00    +0.198 A 
ATOM     25  C   UNL     1       7.613  -1.827  -0.391  0.00  0.00    +0.187 A 
ATOM     26  F   UNL     1       8.278  -0.691  -0.695  0.00  0.00    -0.200 F 
ATOM     27  F   UNL     1       9.589  -3.091  -0.718  0.00  0.00    -0.199 F 
ATOM     28  F   UNL     1       8.244  -5.393  -0.103  0.00  0.00    -0.199 F 
ATOM     29  F   UNL     1       5.586  -5.298   0.536  0.00  0.00    -0.199 F 
ATOM     30  F   UNL     1       4.270  -2.900   0.573  0.00  0.00    -0.200 F 
ENDBRANCH  18  20
ENDBRANCH  17  18
ENDBRANCH   4  16
TORSDOF 4
