REMARK  Name = ZINC59310292
REMARK  8 active torsions:
REMARK  status: ('A' for Active; 'I' for Inactive)
REMARK    1  A    between atoms: C_1  and  C_2
REMARK    2  A    between atoms: C_2  and  C_4
REMARK    3  A    between atoms: C_2  and  N_10
REMARK    4  A    between atoms: C_11  and  C_13
REMARK    5  A    between atoms: C_13  and  S_14
REMARK    6  A    between atoms: S_14  and  C_15
REMARK    7  A    between atoms: N_20  and  N_21
REMARK    8  A    between atoms: C_22  and  C_23
REMARK                            x       y       z     vdW  Elec       q    Type
REMARK                         _______ _______ _______ _____ _____    ______ ____
ROOT
ATOM      1  C   UNL     1       5.194  -1.747  -3.660  0.00  0.00    +0.211 A 
ATOM      2  N   UNL     1       6.494  -1.931  -3.914  0.00  0.00    -0.186 NA
ATOM      3  C   UNL     1       6.647  -2.355  -5.151  0.00  0.00    +0.232 A 
ATOM      4  N   UNL     1       5.424  -2.449  -5.714  0.00  0.00    -0.245 N 
ATOM      5  N   UNL     1       4.502  -2.056  -4.731  0.00  0.00    -0.144 NA
ATOM      6  N   UNL     1       7.851  -2.651  -5.766  0.00  0.00    -0.205 N 
ATOM      7  H   UNL     1       7.863  -2.958  -6.686  0.00  0.00    +0.177 HD
ATOM      8  H   UNL     1       5.222  -2.734  -6.619  0.00  0.00    +0.192 HD
ENDROOT
BRANCH   6   9
ATOM      9  N   UNL     1       9.052  -2.507  -5.060  0.00  0.00    -0.188 NA
ATOM     10  C   UNL     1      10.166  -2.781  -5.629  0.00  0.00    +0.139 C 
BRANCH  10  11
ATOM     11  C   UNL     1      11.429  -2.631  -4.886  0.00  0.00    +0.002 A 
ATOM     12  C   UNL     1      12.700  -3.064  -5.495  0.00  0.00    +0.010 A 
ATOM     13  C   UNL     1      13.835  -2.934  -4.840  0.00  0.00    +0.009 A 
ATOM     14  C   UNL     1      13.835  -2.349  -3.488  0.00  0.00    -0.017 A 
ATOM     15  C   UNL     1      15.087  -2.189  -2.730  0.00  0.00    +0.009 A 
ATOM     16  C   UNL     1      15.066  -1.662  -1.521  0.00  0.00    +0.009 A 
ATOM     17  C   UNL     1      13.790  -1.233  -0.925  0.00  0.00    -0.017 A 
ATOM     18  C   UNL     1      13.743  -0.642   0.423  0.00  0.00    +0.008 A 
ATOM     19  C   UNL     1      12.587  -0.266   0.932  0.00  0.00    +0.001 A 
ATOM     20  C   UNL     1      11.341  -0.432   0.163  0.00  0.00    +0.008 A 
ATOM     21  C   UNL     1      11.379  -0.959  -1.042  0.00  0.00    -0.017 A 
ATOM     22  C   UNL     1      12.677  -1.377  -1.603  0.00  0.00    -0.002 A 
ATOM     23  C   UNL     1      12.700  -1.965  -2.953  0.00  0.00    -0.002 A 
ATOM     24  C   UNL     1      11.426  -2.103  -3.682  0.00  0.00    -0.008 A 
ATOM     25  C   UNL     1      10.179  -1.655  -3.045  0.00  0.00    +0.010 A 
ATOM     26  C   UNL     1      10.157  -1.140  -1.838  0.00  0.00    +0.009 A 
ENDBRANCH  10  11
ENDBRANCH   6   9
BRANCH   1  27
ATOM     27  S   UNL     1       4.519  -1.188  -2.131  0.00  0.00    -0.075 S 
BRANCH  27  28
ATOM     28  C   UNL     1       2.730  -1.158  -2.426  0.00  0.00    +0.173 C 
BRANCH  28  30
ATOM     29  N   UNL     1       0.679  -0.589  -1.165  0.00  0.00    -0.308 N 
ATOM     30  C   UNL     1       2.023  -0.690  -1.180  0.00  0.00    +0.224 C 
ATOM     31  O   UNL     1       2.663  -0.405  -0.190  0.00  0.00    -0.275 OA
ATOM     32  H   UNL     1       0.167  -0.817  -1.957  0.00  0.00    +0.149 HD
BRANCH  29  34
ATOM     33  C   UNL     1      -0.039   1.395   0.072  0.00  0.00    +0.033 C 
ATOM     34  C   UNL     1      -0.008  -0.134   0.046  0.00  0.00    +0.100 C 
BRANCH  34  35
ATOM     35  C   UNL     1      -1.419  -0.665   0.053  0.00  0.00    -0.027 A 
ATOM     36  C   UNL     1      -2.150  -0.700  -1.120  0.00  0.00    +0.005 A 
ATOM     37  C   UNL     1      -3.443  -1.187  -1.114  0.00  0.00    +0.000 A 
ATOM     38  C   UNL     1      -4.006  -1.640   0.065  0.00  0.00    +0.000 A 
ATOM     39  C   UNL     1      -3.274  -1.606   1.237  0.00  0.00    +0.000 A 
ATOM     40  C   UNL     1      -1.979  -1.123   1.230  0.00  0.00    +0.005 A 
ENDBRANCH  34  35
ENDBRANCH  29  34
ENDBRANCH  28  30
ENDBRANCH  27  28
ENDBRANCH   1  27
TORSDOF 7
