REMARK  Name = ZINC28197618
REMARK  5 active torsions:
REMARK  status: ('A' for Active; 'I' for Inactive)
REMARK    1  A    between atoms: C_1  and  C_2
REMARK    2  A    between atoms: C_5  and  S_9
REMARK    3  A    between atoms: S_9  and  N_12
REMARK    4  A    between atoms: N_12  and  N_13
REMARK    5  A    between atoms: C_14  and  C_16
REMARK                            x       y       z     vdW  Elec       q    Type
REMARK                         _______ _______ _______ _____ _____    ______ ____
ROOT
ATOM      1  N   UNL     1      -1.363   3.389   1.638  0.00  0.00    -0.231 N 
ATOM      2  C   UNL     1      -1.561   2.068   1.451  0.00  0.00    +0.234 C 
ATOM      3  O   UNL     1      -2.065   1.400   2.329  0.00  0.00    -0.274 OA
ATOM      4  H   UNL     1      -0.965   4.006   0.820  0.00  0.00    +0.171 HD
ENDROOT
BRANCH   2   5
ATOM      5  C   UNL     1      -1.155   1.423   0.151  0.00  0.00    +0.049 C 
ATOM      6  C   UNL     1       0.312   1.742  -0.141  0.00  0.00    +0.019 C 
ATOM      7  C   UNL     1       0.724   1.086  -1.460  0.00  0.00    -0.009 C 
ATOM      8  C   UNL     1       0.543  -0.429  -1.355  0.00  0.00    +0.007 C 
ATOM      9  C   UNL     1      -0.924  -0.749  -1.063  0.00  0.00    -0.009 C 
ATOM     10  C   UNL     1      -1.336  -0.093   0.257  0.00  0.00    +0.019 C 
ATOM     11  C   UNL     1      -1.799  -0.208  -2.196  0.00  0.00    +0.007 C 
ATOM     12  C   UNL     1      -1.618   1.307  -2.301  0.00  0.00    -0.009 C 
ATOM     13  C   UNL     1      -0.151   1.627  -2.593  0.00  0.00    +0.007 C 
ATOM     14  C   UNL     1      -2.030   1.963  -0.982  0.00  0.00    +0.019 C 
ENDBRANCH   2   5
BRANCH   1  15
ATOM     15  N   UNL     1      -1.665   3.974   2.875  0.00  0.00    -0.108 NA
ATOM     16  H   UNL     1      -2.549   3.866   3.260  0.00  0.00    +0.172 HD
BRANCH  15  17
ATOM     17  S   UNL     1      -0.513   4.849   3.680  0.00  0.00    +0.075 S 
ATOM     18  O   UNL     1      -1.134   5.354   4.854  0.00  0.00    -0.152 OA
ATOM     19  O   UNL     1       0.655   4.041   3.723  0.00  0.00    -0.152 OA
BRANCH  17  24
ATOM     20  C   UNL     1       0.825   9.627   0.245  0.00  0.00    +0.044 C 
ATOM     21  C   UNL     1       0.490   8.433   1.102  0.00  0.00    -0.049 A 
ATOM     22  C   UNL     1      -0.288   8.591   2.234  0.00  0.00    +0.005 A 
ATOM     23  C   UNL     1      -0.594   7.497   3.021  0.00  0.00    +0.030 A 
ATOM     24  C   UNL     1      -0.123   6.244   2.676  0.00  0.00    +0.121 A 
ATOM     25  C   UNL     1       0.659   6.086   1.547  0.00  0.00    +0.044 A 
ATOM     26  C   UNL     1       0.961   7.181   0.757  0.00  0.00    +0.020 A 
ATOM     27 BR   UNL     1       1.310   4.373   1.078  0.00  0.00    -0.048 Br
ENDBRANCH  17  24
ENDBRANCH  15  17
ENDBRANCH   1  15
TORSDOF 4
