REMARK  Name = ZINC06971653
REMARK  7 active torsions:
REMARK  status: ('A' for Active; 'I' for Inactive)
REMARK    1  A    between atoms: C_4  and  N_25
REMARK    2  A    between atoms: C_5  and  C_7
REMARK    3  A    between atoms: C_7  and  O_9
REMARK    4  A    between atoms: O_9  and  C_10
REMARK    5  A    between atoms: C_10  and  C_11
REMARK    6  A    between atoms: N_13  and  C_14
REMARK    7  A    between atoms: C_15  and  C_23
REMARK                            x       y       z     vdW  Elec       q    Type
REMARK                         _______ _______ _______ _____ _____    ______ ____
ROOT
ATOM      1  C   UNL     1      -0.314   1.313  -1.741  0.00  0.00    +0.255 C 
ATOM      2  O   UNL     1      -0.326   0.110  -1.895  0.00  0.00    -0.272 OA
ATOM      3  N   UNL     1       0.792   2.020  -2.045  0.00  0.00    -0.276 N 
ATOM      4  H   UNL     1       0.801   2.982  -1.921  0.00  0.00    +0.155 HD
ENDROOT
BRANCH   3   5
ATOM      5  C   UNL     1       1.918   1.372  -2.534  0.00  0.00    +0.090 A 
ATOM      6  C   UNL     1       3.136   1.923  -2.904  0.00  0.00    +0.084 A 
ATOM      7  C   UNL     1       4.164   1.017  -3.385  0.00  0.00    -0.018 A 
ATOM      8  C   UNL     1       3.808  -0.286  -3.429  0.00  0.00    -0.004 A 
ATOM      9  S   UNL     1       2.140  -0.319  -2.836  0.00  0.00    -0.077 S 
ATOM     10  C   UNL     1       4.650  -1.438  -3.885  0.00  0.00    +0.043 C 
ATOM     11  C   UNL     1       5.859  -0.880  -4.650  0.00  0.00    +0.005 C 
ATOM     12  C   UNL     1       6.483   0.252  -3.828  0.00  0.00    +0.005 C 
ATOM     13  C   UNL     1       5.553   1.466  -3.823  0.00  0.00    +0.037 C 
BRANCH   6  14
ATOM     14  C   UNL     1       3.372   3.332  -2.811  0.00  0.00    +0.102 C 
ATOM     15  N   UNL     1       3.560   4.450  -2.737  0.00  0.00    -0.191 NA
ENDBRANCH   6  14
ENDBRANCH   3   5
BRANCH   1  16
ATOM     16  C   UNL     1      -1.539   2.017  -1.216  0.00  0.00    +0.328 C 
BRANCH  16  17
ATOM     17  O   UNL     1      -2.590   1.044  -0.973  0.00  0.00    -0.452 OA
BRANCH  17  18
ATOM     18  C   UNL     1      -3.760   1.514  -0.498  0.00  0.00    +0.341 C 
ATOM     19  O   UNL     1      -3.899   2.704  -0.292  0.00  0.00    -0.245 OA
BRANCH  18  24
ATOM     20  C   UNL     1      -5.720  -1.657  -0.084  0.00  0.00    +0.001 A 
ATOM     21  C   UNL     1      -6.963  -1.165   0.281  0.00  0.00    +0.002 A 
ATOM     22  C   UNL     1      -7.171   0.194   0.395  0.00  0.00    +0.023 A 
ATOM     23  C   UNL     1      -6.131   1.081   0.143  0.00  0.00    +0.039 A 
ATOM     24  C   UNL     1      -4.871   0.586  -0.228  0.00  0.00    +0.080 A 
ATOM     25  C   UNL     1      -4.679  -0.794  -0.344  0.00  0.00    +0.017 A 
BRANCH  23  26
ATOM     26  N   UNL     1      -6.338   2.449   0.256  0.00  0.00    -0.357 N 
ATOM     27  H   UNL     1      -5.759   3.068  -0.217  0.00  0.00    +0.142 HD
ATOM     28  H   UNL     1      -7.061   2.786   0.807  0.00  0.00    +0.142 HD
ENDBRANCH  23  26
ENDBRANCH  18  24
ENDBRANCH  17  18
ENDBRANCH  16  17
ENDBRANCH   1  16
TORSDOF 7
