REMARK  Name = ZINC33302146
REMARK  4 active torsions:
REMARK  status: ('A' for Active; 'I' for Inactive)
REMARK    1  A    between atoms: C_1  and  C_2
REMARK    2  A    between atoms: C_3  and  C_15
REMARK    3  A    between atoms: N_6  and  C_7
REMARK    4  A    between atoms: N_20  and  C_21
REMARK                            x       y       z     vdW  Elec       q    Type
REMARK                         _______ _______ _______ _____ _____    ______ ____
ROOT
ATOM      1  C   UNL     1      -1.852   8.698   0.490  0.00  0.00    +0.068 C 
ATOM      2  C   UNL     1      -3.112   7.873   0.539  0.00  0.00    +0.073 A 
ATOM      3  C   UNL     1      -3.200   6.518   0.440  0.00  0.00    +0.153 A 
ATOM      4  N   UNL     1      -4.490   6.165   0.535  0.00  0.00    -0.126 NA
ATOM      5  N   UNL     1      -5.221   7.214   0.683  0.00  0.00    -0.060 NA
ATOM      6  N   UNL     1      -4.382   8.338   0.688  0.00  0.00    -0.214 N 
ENDROOT
BRANCH   6   7
ATOM      7  C   UNL     1      -4.775   9.678   0.826  0.00  0.00    +0.103 A 
ATOM      8  C   UNL     1      -4.274  10.642  -0.038  0.00  0.00    +0.033 A 
ATOM      9  C   UNL     1      -4.666  11.959   0.095  0.00  0.00    +0.040 A 
ATOM     10  C   UNL     1      -5.549  12.323   1.098  0.00  0.00    +0.126 A 
ATOM     11  C   UNL     1      -6.047  11.366   1.965  0.00  0.00    +0.078 A 
ATOM     12  C   UNL     1      -5.662  10.044   1.832  0.00  0.00    +0.151 A 
ATOM     13  F   UNL     1      -6.147   9.109   2.678  0.00  0.00    -0.203 F 
ATOM     14  F   UNL     1      -5.926  13.614   1.229  0.00  0.00    -0.205 F 
ENDBRANCH   6   7
BRANCH   3  15
ATOM     15  C   UNL     1      -2.059   5.587   0.264  0.00  0.00    +0.192 A 
ATOM     16  N   UNL     1      -2.267   4.287   0.181  0.00  0.00    -0.202 NA
ATOM     17  C   UNL     1      -1.224   3.485   0.028  0.00  0.00    +0.183 A 
ATOM     18  S   UNL     1       0.088   4.619  -0.011  0.00  0.00    +0.050 S 
ATOM     19  N   UNL     1      -0.827   6.052   0.182  0.00  0.00    -0.186 NA
ATOM     20  N   UNL     1      -1.190   2.106  -0.078  0.00  0.00    -0.293 N 
ATOM     21  H   UNL     1      -2.129   1.535  -0.134  0.00  0.00    +0.154 HD
BRANCH  20  22
ATOM     22  C   UNL     1       0.037   1.437  -0.114  0.00  0.00    +0.033 A 
ATOM     23  C   UNL     1       0.171   0.269  -0.853  0.00  0.00    +0.025 A 
ATOM     24  C   UNL     1       1.383  -0.393  -0.883  0.00  0.00    +0.022 A 
ATOM     25  C   UNL     1       2.463   0.107  -0.176  0.00  0.00    +0.041 A 
ATOM     26  C   UNL     1       2.332   1.270   0.561  0.00  0.00    +0.022 A 
ATOM     27  C   UNL     1       1.123   1.936   0.594  0.00  0.00    +0.025 A 
ATOM     28 CL   UNL     1       3.985  -0.727  -0.215  0.00  0.00    -0.084 Cl
ENDBRANCH  20  22
ENDBRANCH   3  15
TORSDOF 3
