REMARK  Name = ZINC02485482
REMARK  4 active torsions:
REMARK  status: ('A' for Active; 'I' for Inactive)
REMARK    1  A    between atoms: C_1  and  C_2
REMARK    2  A    between atoms: C_7  and  C_15
REMARK    3  A    between atoms: C_9  and  C_13
REMARK    4  A    between atoms: C_10  and  N_12
REMARK                            x       y       z     vdW  Elec       q    Type
REMARK                         _______ _______ _______ _____ _____    ______ ____
ROOT
ATOM      1  C   UNL     1       2.191   5.700   0.312  0.00  0.00    +0.008 C 
ATOM      2  C   UNL     1       2.181   4.269  -0.230  0.00  0.00    +0.001 C 
ATOM      3  C   UNL     1       1.128   3.445   0.513  0.00  0.00    +0.078 C 
ATOM      4  C   UNL     1       1.143   2.023   0.002  0.00  0.00    +0.115 C 
ATOM      5  C   UNL     1       2.284   1.465  -0.441  0.00  0.00    +0.046 C 
ATOM      6  C   UNL     1       2.301   0.037  -0.932  0.00  0.00    +0.101 C 
ATOM      7  C   UNL     1       1.083  -0.693  -0.439  0.00  0.00    +0.098 C 
ATOM      8  C   UNL     1       0.002  -0.004   0.002  0.00  0.00    +0.198 C 
ATOM      9  O   UNL     1      -0.016   1.338   0.009  0.00  0.00    -0.445 OA
ATOM     10  C   UNL     1       3.492   2.188  -0.464  0.00  0.00    +0.164 C 
ATOM     11  O   UNL     1       4.504   1.645  -0.858  0.00  0.00    -0.292 OA
ATOM     12  C   UNL     1       3.552   3.620  -0.008  0.00  0.00    +0.083 C 
ENDROOT
BRANCH   6  13
ATOM     13  C   UNL     1       2.314   0.027  -2.439  0.00  0.00    -0.034 A 
ATOM     14  C   UNL     1       1.268   0.595  -3.143  0.00  0.00    +0.005 A 
ATOM     15  C   UNL     1       1.282   0.590  -4.525  0.00  0.00    +0.015 A 
ATOM     16  C   UNL     1       2.337   0.008  -5.204  0.00  0.00    +0.018 A 
ATOM     17  C   UNL     1       3.380  -0.565  -4.499  0.00  0.00    +0.015 A 
ATOM     18  C   UNL     1       3.368  -0.555  -3.117  0.00  0.00    +0.005 A 
ATOM     19 BR   UNL     1       2.353  -0.006  -7.095  0.00  0.00    -0.050 Br
ENDBRANCH   6  13
BRANCH   8  20
ATOM     20  N   UNL     1      -1.097  -0.694   0.451  0.00  0.00    -0.328 N 
ATOM     21  H   UNL     1      -1.876  -0.211   0.769  0.00  0.00    +0.145 HD
ATOM     22  H   UNL     1      -1.095  -1.663   0.450  0.00  0.00    +0.145 HD
ENDBRANCH   8  20
BRANCH   7  23
ATOM     23  C   UNL     1       1.064  -2.125  -0.436  0.00  0.00    +0.101 C 
ATOM     24  N   UNL     1       1.049  -3.260  -0.433  0.00  0.00    -0.191 NA
ENDBRANCH   7  23
TORSDOF 3
