REMARK  Name = ZINC08816525
REMARK  7 active torsions:
REMARK  status: ('A' for Active; 'I' for Inactive)
REMARK    1  A    between atoms: C_1  and  C_2
REMARK    2  A    between atoms: C_2  and  C_3
REMARK    3  A    between atoms: C_6  and  C_9
REMARK    4  A    between atoms: C_11  and  C_19
REMARK    5  A    between atoms: C_12  and  C_17
REMARK    6  A    between atoms: C_22  and  O_25
REMARK    7  A    between atoms: O_25  and  C_26
REMARK                            x       y       z     vdW  Elec       q    Type
REMARK                         _______ _______ _______ _____ _____    ______ ____
ROOT
ATOM      1  C   UNL     1       1.169   1.783   0.001  0.00  0.00    +0.050 A 
ATOM      2  C   UNL     1      -0.013   1.076   0.008  0.00  0.00    +0.036 A 
ATOM      3  C   UNL     1      -1.236   1.764   0.018  0.00  0.00    +0.007 A 
ATOM      4  C   UNL     1      -1.224   3.172   0.031  0.00  0.00    +0.124 A 
ATOM      5  C   UNL     1       0.019   3.849   0.023  0.00  0.00    +0.267 A 
ATOM      6  O   UNL     1       0.048   5.067   0.030  0.00  0.00    -0.266 OA
ATOM      7  N   UNL     1       1.170   3.150   0.008  0.00  0.00    -0.321 N 
ATOM      8  H   UNL     1       2.015   3.626   0.003  0.00  0.00    +0.169 HD
ENDROOT
BRANCH   1  12
ATOM      9  C   UNL     1       4.862  -0.312  -0.046  0.00  0.00    -0.048 A 
ATOM     10  C   UNL     1       4.855   1.071  -0.039  0.00  0.00    +0.004 A 
ATOM     11  C   UNL     1       3.659   1.758  -0.024  0.00  0.00    +0.010 A 
ATOM     12  C   UNL     1       2.453   1.054  -0.016  0.00  0.00    -0.002 A 
ATOM     13  C   UNL     1       2.467  -0.342  -0.018  0.00  0.00    +0.010 A 
ATOM     14  C   UNL     1       3.671  -1.017  -0.038  0.00  0.00    +0.004 A 
BRANCH   9  16
ATOM     15  C   UNL     1       6.630  -1.315   1.375  0.00  0.00    +0.009 C 
ATOM     16  C   UNL     1       6.172  -1.056  -0.062  0.00  0.00    +0.032 C 
ENDBRANCH   9  16
ENDBRANCH   1  12
BRANCH   3  17
ATOM     17  C   UNL     1      -2.515   1.023   0.019  0.00  0.00    -0.016 A 
ATOM     18  C   UNL     1      -2.857   0.220   1.110  0.00  0.00    +0.012 A 
ATOM     19  C   UNL     1      -4.053  -0.465   1.110  0.00  0.00    +0.046 A 
ATOM     20  C   UNL     1      -4.913  -0.365   0.023  0.00  0.00    +0.120 A 
ATOM     21  C   UNL     1      -4.574   0.428  -1.066  0.00  0.00    +0.046 A 
ATOM     22  C   UNL     1      -3.382   1.120  -1.071  0.00  0.00    +0.012 A 
BRANCH  20  23
ATOM     23  O   UNL     1      -6.088  -1.046   0.025  0.00  0.00    -0.495 OA
ATOM     24  C   UNL     1      -6.374  -1.843   1.176  0.00  0.00    +0.277 C 
ENDBRANCH  20  23
ENDBRANCH   3  17
BRANCH   4  25
ATOM     25  C   UNL     1      -2.452   3.909   0.047  0.00  0.00    +0.105 C 
ATOM     26  N   UNL     1      -3.426   4.493   0.060  0.00  0.00    -0.191 NA
ENDBRANCH   4  25
TORSDOF 5
