REMARK  Name = ZINC39359224
REMARK  4 active torsions:
REMARK  status: ('A' for Active; 'I' for Inactive)
REMARK    1  A    between atoms: C_4  and  O_30
REMARK    2  A    between atoms: C_5  and  C_7
REMARK    3  A    between atoms: C_10  and  O_29
REMARK    4  A    between atoms: C_21  and  C_24
REMARK                            x       y       z     vdW  Elec       q    Type
REMARK                         _______ _______ _______ _____ _____    ______ ____
ROOT
ATOM      1  C   UNL     1       1.227  -2.187  -0.022  0.00  0.00    +0.092 C 
ATOM      2  C   UNL     1       0.516  -2.715   1.188  0.00  0.00    +0.049 C 
ATOM      3  C   UNL     1       0.904  -3.204   2.345  0.00  0.00    +0.235 C 
ATOM      4  N   UNL     1      -0.169  -3.666   3.043  0.00  0.00    -0.114 NA
ATOM      5  N   UNL     1      -1.259  -3.492   2.482  0.00  0.00    -0.157 NA
ATOM      6  C   UNL     1      -1.014  -2.773   1.231  0.00  0.00    +0.245 C 
ATOM      7  N   UNL     1      -1.371  -3.555   0.045  0.00  0.00    -0.321 N 
ATOM      8  C   UNL     1      -0.723  -3.315  -1.141  0.00  0.00    +0.014 C 
ATOM      9  C   UNL     1       0.481  -2.708  -1.241  0.00  0.00    +0.024 C 
ATOM     10  C   UNL     1       1.111  -2.528  -2.483  0.00  0.00    +0.162 C 
ATOM     11  O   UNL     1       2.192  -1.973  -2.525  0.00  0.00    -0.292 OA
ATOM     12  C   UNL     1       0.482  -3.004  -3.763  0.00  0.00    +0.088 C 
ATOM     13  C   UNL     1      -0.423  -4.202  -3.451  0.00  0.00    +0.039 C 
ATOM     14  C   UNL     1      -1.446  -3.772  -2.392  0.00  0.00    +0.060 C 
ATOM     15  H   UNL     1      -2.059  -4.237   0.097  0.00  0.00    +0.148 HD
ENDROOT
BRANCH   1  20
ATOM     16  C   UNL     1      -0.017   1.378   0.010  0.00  0.00    +0.001 A 
ATOM     17  C   UNL     1       1.170   2.088   0.002  0.00  0.00    +0.004 A 
ATOM     18  C   UNL     1       2.377   1.417  -0.013  0.00  0.00    +0.046 A 
ATOM     19  C   UNL     1       2.399   0.030  -0.021  0.00  0.00    +0.121 A 
ATOM     20  C   UNL     1       1.207  -0.680  -0.013  0.00  0.00    +0.006 A 
ATOM     21  C   UNL     1       0.002  -0.004   0.002  0.00  0.00    +0.008 A 
BRANCH  19  22
ATOM     22  O   UNL     1       3.586  -0.632  -0.037  0.00  0.00    -0.506 OA
ATOM     23  H   UNL     1       3.938  -0.829   0.842  0.00  0.00    +0.292 HD
ENDBRANCH  19  22
ENDBRANCH   1  20
BRANCH  13  24
ATOM     24  C   UNL     1      -1.139  -4.637  -4.704  0.00  0.00    -0.006 A 
ATOM     25  C   UNL     1      -1.104  -5.836  -5.334  0.00  0.00    +0.011 A 
ATOM     26  C   UNL     1      -1.852  -6.011  -6.483  0.00  0.00    +0.008 A 
ATOM     27  C   UNL     1      -2.599  -4.979  -6.945  0.00  0.00    +0.045 A 
ATOM     28  S   UNL     1      -2.260  -3.709  -5.737  0.00  0.00    -0.101 S 
ENDBRANCH  13  24
BRANCH   3  29
ATOM     29  O   UNL     1       2.191  -3.244   2.780  0.00  0.00    -0.491 OA
ATOM     30  H   UNL     1       2.298  -3.639   3.657  0.00  0.00    +0.294 HD
ENDBRANCH   3  29
TORSDOF 4
