REMARK  Name = ZINC13395701
REMARK  5 active torsions:
REMARK  status: ('A' for Active; 'I' for Inactive)
REMARK    1  A    between atoms: C_1  and  C_2
REMARK    2  A    between atoms: N_4  and  C_18
REMARK    3  A    between atoms: C_7  and  C_9
REMARK    4  A    between atoms: N_10  and  C_11
REMARK    5  A    between atoms: C_16  and  O_17
REMARK                            x       y       z     vdW  Elec       q    Type
REMARK                         _______ _______ _______ _____ _____    ______ ____
ROOT
ATOM      1  C   UNL     1      -0.350   1.885   0.405  0.00  0.00    +0.063 C 
ATOM      2  C   UNL     1      -0.132   0.422   0.119  0.00  0.00    +0.052 C 
ATOM      3  N   UNL     1      -0.062  -0.123  -1.032  0.00  0.00    -0.181 NA
ATOM      4  N   UNL     1       0.147  -1.498  -0.976  0.00  0.00    -0.160 N 
ATOM      5  C   UNL     1       0.225  -1.926   0.301  0.00  0.00    +0.253 C 
ATOM      6  O   UNL     1       0.401  -3.061   0.690  0.00  0.00    -0.272 OA
ATOM      7  C   UNL     1       0.051  -0.677   1.145  0.00  0.00    +0.164 C 
ENDROOT
BRANCH   4   8
ATOM      8  C   UNL     1       0.260  -2.328  -2.098  0.00  0.00    +0.060 A 
ATOM      9  C   UNL     1       0.462  -3.692  -1.936  0.00  0.00    +0.025 A 
ATOM     10  C   UNL     1       0.573  -4.508  -3.044  0.00  0.00    +0.002 A 
ATOM     11  C   UNL     1       0.485  -3.968  -4.314  0.00  0.00    +0.000 A 
ATOM     12  C   UNL     1       0.284  -2.610  -4.479  0.00  0.00    +0.002 A 
ATOM     13  C   UNL     1       0.165  -1.789  -3.374  0.00  0.00    +0.025 A 
ENDBRANCH   4   8
BRANCH   7  14
ATOM     14  C   UNL     1       1.279  -0.424   1.981  0.00  0.00    +0.103 C 
ATOM     15  N   UNL     1       1.171  -0.282   3.260  0.00  0.00    -0.255 NA
BRANCH  15  16
ATOM     16  C   UNL     1       2.298  -0.162   4.034  0.00  0.00    +0.105 A 
ATOM     17  C   UNL     1       3.359  -1.051   3.869  0.00  0.00    +0.031 A 
ATOM     18  C   UNL     1       4.490  -0.926   4.650  0.00  0.00    +0.002 A 
ATOM     19  C   UNL     1       4.574   0.079   5.598  0.00  0.00    +0.004 A 
ATOM     20  C   UNL     1       3.529   0.966   5.771  0.00  0.00    +0.047 A 
ATOM     21  C   UNL     1       2.390   0.857   4.989  0.00  0.00    +0.142 A 
BRANCH  21  22
ATOM     22  O   UNL     1       1.363   1.731   5.154  0.00  0.00    -0.505 OA
ATOM     23  H   UNL     1       0.707   1.450   5.807  0.00  0.00    +0.292 HD
ENDBRANCH  21  22
ENDBRANCH  15  16
ENDBRANCH   7  14
TORSDOF 4
