REMARK  Name = ZINC02623100
REMARK  9 active torsions:
REMARK  status: ('A' for Active; 'I' for Inactive)
REMARK    1  A    between atoms: C_1  and  C_2
REMARK    2  A    between atoms: C_5  and  N_9
REMARK    3  A    between atoms: C_10  and  C_12
REMARK    4  A    between atoms: C_12  and  N_13
REMARK    5  A    between atoms: C_16  and  C_20
REMARK    6  A    between atoms: C_16  and  C_21
REMARK    7  A    between atoms: C_21  and  C_22
REMARK    8  A    between atoms: C_22  and  C_23
REMARK    9  A    between atoms: C_22  and  C_24
REMARK                            x       y       z     vdW  Elec       q    Type
REMARK                         _______ _______ _______ _____ _____    ______ ____
ROOT
ATOM      1  C   UNL     1      -3.172  -3.238   0.159  0.00  0.00    +0.214 C 
ENDROOT
BRANCH   1   2
ATOM      2  N   UNL     1      -2.699  -4.616   0.001  0.00  0.00    -0.215 N 
ATOM      3  C   UNL     1      -2.278  -5.394   1.017  0.00  0.00    +0.247 C 
ATOM      4  O   UNL     1      -2.221  -5.097   2.191  0.00  0.00    -0.273 OA
ATOM      5  C   UNL     1      -1.890  -6.717   0.388  0.00  0.00    +0.110 C 
ATOM      6  N   UNL     1      -2.163  -6.512  -1.045  0.00  0.00    -0.285 N 
ATOM      7  C   UNL     1      -2.636  -5.259  -1.171  0.00  0.00    +0.310 C 
ATOM      8  O   UNL     1      -2.966  -4.764  -2.231  0.00  0.00    -0.252 OA
ATOM      9  C   UNL     1      -2.752  -7.851   0.946  0.00  0.00    +0.041 C 
ATOM     10  H   UNL     1      -2.031  -7.156  -1.758  0.00  0.00    +0.151 HD
BRANCH   5  11
ATOM     11  C   UNL     1      -0.406  -7.008   0.617  0.00  0.00    +0.038 C 
BRANCH  11  12
ATOM     12  C   UNL     1      -0.011  -8.274  -0.146  0.00  0.00    -0.015 C 
ATOM     13  C   UNL     1       0.294  -7.918  -1.602  0.00  0.00    +0.007 C 
ATOM     14  C   UNL     1       1.232  -8.891   0.499  0.00  0.00    +0.007 C 
ENDBRANCH  11  12
ENDBRANCH   5  11
ENDBRANCH   1   2
BRANCH   1  16
ATOM     15  N   UNL     1      -2.207  -0.961   0.142  0.00  0.00    -0.283 N 
ATOM     16  C   UNL     1      -2.008  -2.289   0.030  0.00  0.00    +0.235 C 
ATOM     17  O   UNL     1      -0.893  -2.721  -0.174  0.00  0.00    -0.274 OA
ATOM     18  H   UNL     1      -3.083  -0.620   0.379  0.00  0.00    +0.155 HD
BRANCH  15  23
ATOM     19  C   UNL     1       2.084   2.635  -0.779  0.00  0.00    +0.044 C 
ATOM     20  C   UNL     1       0.945   1.680  -0.534  0.00  0.00    -0.049 A 
ATOM     21  C   UNL     1       0.967   0.419  -1.101  0.00  0.00    +0.005 A 
ATOM     22  C   UNL     1      -0.076  -0.459  -0.879  0.00  0.00    +0.024 A 
ATOM     23  C   UNL     1      -1.148  -0.074  -0.085  0.00  0.00    +0.048 A 
ATOM     24  C   UNL     1      -1.167   1.193   0.484  0.00  0.00    +0.039 A 
ATOM     25  C   UNL     1      -0.121   2.067   0.258  0.00  0.00    +0.020 A 
ATOM     26 BR   UNL     1      -2.629   1.725   1.560  0.00  0.00    -0.048 Br
ENDBRANCH  15  23
ENDBRANCH   1  16
TORSDOF 5
