REMARK  Name = ZINC33253348
REMARK  7 active torsions:
REMARK  status: ('A' for Active; 'I' for Inactive)
REMARK    1  A    between atoms: C_4  and  C_7
REMARK    2  A    between atoms: C_7  and  C_8
REMARK    3  A    between atoms: N_11  and  C_14
REMARK    4  A    between atoms: C_17  and  N_23
REMARK    5  A    between atoms: C_19  and  C_20
REMARK    6  A    between atoms: N_23  and  S_24
REMARK    7  A    between atoms: S_24  and  C_27
REMARK                            x       y       z     vdW  Elec       q    Type
REMARK                         _______ _______ _______ _____ _____    ______ ____
ROOT
ATOM      1  C   UNL     1       6.777  -0.912   4.684  0.00  0.00    +0.028 A 
ATOM      2  C   UNL     1       5.995  -1.460   5.680  0.00  0.00    +0.024 A 
ATOM      3  C   UNL     1       6.495  -1.599   6.961  0.00  0.00    +0.028 A 
ATOM      4  C   UNL     1       7.790  -1.188   7.256  0.00  0.00    +0.075 A 
ATOM      5  C   UNL     1       8.585  -0.637   6.263  0.00  0.00    +0.043 A 
ATOM      6  C   UNL     1       8.082  -0.501   4.968  0.00  0.00    +0.084 A 
ENDROOT
BRANCH   1  10
ATOM      7  C   UNL     1       4.218  -1.096   1.367  0.00  0.00    -0.004 C 
ATOM      8  C   UNL     1       4.524   0.259   2.011  0.00  0.00    +0.021 C 
ATOM      9  C   UNL     1       5.043   0.037   3.433  0.00  0.00    +0.085 C 
ATOM     10  N   UNL     1       6.266  -0.774   3.390  0.00  0.00    -0.393 NA
ATOM     11  C   UNL     1       5.965  -2.101   2.840  0.00  0.00    +0.085 C 
ATOM     12  C   UNL     1       5.481  -1.961   1.395  0.00  0.00    +0.021 C 
ATOM     13  H   UNL     1       6.951  -0.317   2.807  0.00  0.00    +0.126 HD
BRANCH   7  14
ATOM     14  C   UNL     1       3.774  -0.886  -0.082  0.00  0.00    +0.038 C 
BRANCH  14  18
ATOM     15  C   UNL     1       0.063   1.229  -0.144  0.00  0.00    +0.000 A 
ATOM     16  C   UNL     1       1.256   1.926  -0.164  0.00  0.00    +0.000 A 
ATOM     17  C   UNL     1       2.457   1.242  -0.144  0.00  0.00    +0.003 A 
ATOM     18  C   UNL     1       2.465  -0.140  -0.103  0.00  0.00    -0.047 A 
ATOM     19  C   UNL     1       1.271  -0.837  -0.083  0.00  0.00    +0.003 A 
ATOM     20  C   UNL     1       0.070  -0.153  -0.104  0.00  0.00    +0.000 A 
ENDBRANCH  14  18
ENDBRANCH   7  14
ENDBRANCH   1  10
BRANCH   6  21
ATOM     21  C   UNL     1       8.923   0.080   3.904  0.00  0.00    +0.388 C 
ATOM     22  O   UNL     1      10.005  -0.423   3.636  0.00  0.00    -0.241 OA
ATOM     23  O   UNL     1       8.538   1.065   3.289  0.00  0.00    -0.241 OA
ENDBRANCH   6  21
BRANCH   4  24
ATOM     24  N   UNL     1       8.291  -1.331   8.552  0.00  0.00    -0.098 NA
BRANCH  24  25
ATOM     25  S   UNL     1       7.341  -1.989   9.739  0.00  0.00    +0.092 S 
ATOM     26  O   UNL     1       6.272  -1.077   9.956  0.00  0.00    -0.148 OA
ATOM     27  O   UNL     1       7.123  -3.346   9.378  0.00  0.00    -0.148 OA
BRANCH  25  28
ATOM     28  C   UNL     1       8.295  -2.008  11.220  0.00  0.00    +0.113 A 
ATOM     29  C   UNL     1       9.083  -3.104  11.519  0.00  0.00    +0.032 A 
ATOM     30  C   UNL     1       9.832  -3.121  12.681  0.00  0.00    +0.043 A 
ATOM     31  C   UNL     1       9.796  -2.040  13.544  0.00  0.00    +0.159 A 
ATOM     32  C   UNL     1       9.006  -0.941  13.243  0.00  0.00    +0.160 A 
ATOM     33  C   UNL     1       8.260  -0.925  12.077  0.00  0.00    +0.070 A 
ATOM     34  F   UNL     1       8.968   0.115  14.085  0.00  0.00    -0.202 F 
ATOM     35  F   UNL     1      10.527  -2.057  14.680  0.00  0.00    -0.202 F 
ENDBRANCH  25  28
ENDBRANCH  24  25
ENDBRANCH   4  24
TORSDOF 7
