REMARK  Name = ZINC39534113
REMARK  8 active torsions:
REMARK  status: ('A' for Active; 'I' for Inactive)
REMARK    1  A    between atoms: C_4  and  O_32
REMARK    2  A    between atoms: C_5  and  C_7
REMARK    3  A    between atoms: C_10  and  C_13
REMARK    4  A    between atoms: C_13  and  C_15
REMARK    5  A    between atoms: C_13  and  N_24
REMARK    6  A    between atoms: C_15  and  N_16
REMARK    7  A    between atoms: N_16  and  C_17
REMARK    8  A    between atoms: C_22  and  O_23
REMARK                            x       y       z     vdW  Elec       q    Type
REMARK                         _______ _______ _______ _____ _____    ______ ____
ROOT
ATOM      1  C   UNL     1       1.292  -6.371  -0.088  0.00  0.00    +0.104 C 
ENDROOT
BRANCH   1   2
ATOM      2  N   UNL     1      -0.088  -6.751   0.241  0.00  0.00    -0.290 NA
ATOM      3  C   UNL     1      -0.187  -8.191   0.514  0.00  0.00    +0.100 C 
ATOM      4  C   UNL     1      -1.620  -8.531   0.930  0.00  0.00    +0.097 C 
ATOM      5  N   UNL     1      -2.546  -8.137  -0.141  0.00  0.00    -0.302 NA
ATOM      6  C   UNL     1      -2.446  -6.696  -0.414  0.00  0.00    +0.136 C 
ATOM      7  C   UNL     1      -1.013  -6.356  -0.830  0.00  0.00    +0.115 C 
ATOM      8 BR   UNL     1      -3.683  -6.217  -1.866  0.00  0.00    -0.070 Br
ATOM      9  H   UNL     1      -2.381  -8.675  -0.978  0.00  0.00    +0.123 HD
ENDBRANCH   1   2
BRANCH   1  13
ATOM     10  C   UNL     1       1.502  -2.143  -0.690  0.00  0.00    -0.014 A 
ATOM     11  C   UNL     1       2.219  -3.004  -1.518  0.00  0.00    +0.009 A 
ATOM     12  C   UNL     1       2.148  -4.368  -1.319  0.00  0.00    +0.006 A 
ATOM     13  C   UNL     1       1.366  -4.881  -0.300  0.00  0.00    -0.029 A 
ATOM     14  C   UNL     1       0.652  -4.031   0.525  0.00  0.00    +0.006 A 
ATOM     15  C   UNL     1       0.720  -2.665   0.339  0.00  0.00    +0.009 A 
BRANCH  10  20
ATOM     16  C   UNL     1       0.480   1.443  -1.166  0.00  0.00    +0.001 A 
ATOM     17  C   UNL     1       1.710   2.065  -1.288  0.00  0.00    +0.004 A 
ATOM     18  C   UNL     1       2.875   1.325  -1.217  0.00  0.00    +0.046 A 
ATOM     19  C   UNL     1       2.816  -0.046  -1.022  0.00  0.00    +0.125 A 
ATOM     20  C   UNL     1       1.575  -0.676  -0.898  0.00  0.00    +0.024 A 
ATOM     21  C   UNL     1       0.407   0.079  -0.971  0.00  0.00    +0.012 A 
BRANCH  19  22
ATOM     22  O   UNL     1       3.961  -0.774  -0.953  0.00  0.00    -0.506 OA
ATOM     23  H   UNL     1       4.317  -0.862  -0.058  0.00  0.00    +0.292 HD
ENDBRANCH  19  22
ENDBRANCH  10  20
ENDBRANCH   1  13
BRANCH   1  24
ATOM     24  C   UNL     1       2.219  -6.770   1.061  0.00  0.00    +0.125 C 
BRANCH  24  25
ATOM     25  N   UNL     1       3.605  -6.462   0.700  0.00  0.00    -0.339 N 
ATOM     26  H   UNL     1       3.801  -6.021  -0.141  0.00  0.00    +0.146 HD
BRANCH  25  27
ATOM     27  C   UNL     1       4.648  -6.806   1.569  0.00  0.00    +0.069 A 
ATOM     28  C   UNL     1       4.371  -7.443   2.769  0.00  0.00    +0.026 A 
ATOM     29  C   UNL     1       5.402  -7.782   3.625  0.00  0.00    +0.002 A 
ATOM     30  C   UNL     1       6.710  -7.488   3.288  0.00  0.00    +0.004 A 
ATOM     31  C   UNL     1       6.994  -6.853   2.092  0.00  0.00    +0.047 A 
ATOM     32  C   UNL     1       5.966  -6.515   1.227  0.00  0.00    +0.138 A 
BRANCH  32  33
ATOM     33  O   UNL     1       6.244  -5.895   0.048  0.00  0.00    -0.505 OA
ATOM     34  H   UNL     1       6.254  -4.930   0.104  0.00  0.00    +0.292 HD
ENDBRANCH  32  33
ENDBRANCH  25  27
ENDBRANCH  24  25
ENDBRANCH   1  24
TORSDOF 8
