REMARK  Name = ZINC16933591
REMARK  6 active torsions:
REMARK  status: ('A' for Active; 'I' for Inactive)
REMARK    1  A    between atoms: C_1  and  C_2
REMARK    2  A    between atoms: C_2  and  N_3
REMARK    3  A    between atoms: C_7  and  C_8
REMARK    4  A    between atoms: N_19  and  C_20
REMARK    5  A    between atoms: C_23  and  C_27
REMARK    6  A    between atoms: C_25  and  O_26
REMARK                            x       y       z     vdW  Elec       q    Type
REMARK                         _______ _______ _______ _____ _____    ______ ____
ROOT
ATOM      1  N   UNL     1       1.921   3.288   1.222  0.00  0.00    -0.246 N 
ATOM      2  C   UNL     1       3.116   3.795   0.971  0.00  0.00    +0.259 C 
ATOM      3  O   UNL     1       3.324   4.993   1.027  0.00  0.00    -0.269 OA
ATOM      4  C   UNL     1       4.187   2.842   0.622  0.00  0.00    +0.078 C 
ATOM      5  C   UNL     1       5.488   3.082   0.321  0.00  0.00    +0.028 C 
ATOM      6  S   UNL     1       3.311   1.287   0.707  0.00  0.00    -0.049 S 
ATOM      7  C   UNL     1       1.706   1.928   1.154  0.00  0.00    +0.169 C 
ATOM      8  N   UNL     1       0.593   1.265   1.371  0.00  0.00    -0.222 NA
ENDROOT
BRANCH   5   9
ATOM      9  C   UNL     1       6.427   1.962   0.174  0.00  0.00    -0.020 A 
ATOM     10  C   UNL     1       6.100   0.700   0.685  0.00  0.00    +0.012 A 
ATOM     11  C   UNL     1       6.980  -0.349   0.542  0.00  0.00    +0.050 A 
ATOM     12  C   UNL     1       8.197  -0.159  -0.099  0.00  0.00    +0.166 A 
ATOM     13  C   UNL     1       8.533   1.097  -0.606  0.00  0.00    +0.167 A 
ATOM     14  C   UNL     1       7.654   2.153  -0.472  0.00  0.00    +0.057 A 
ATOM     15  O   UNL     1       9.769   1.018  -1.181  0.00  0.00    -0.453 OA
ATOM     16  C   UNL     1      10.358  -0.189  -0.662  0.00  0.00    +0.466 C 
ATOM     17  O   UNL     1       9.223  -1.021  -0.358  0.00  0.00    -0.453 OA
ENDBRANCH   5   9
BRANCH   8  18
ATOM     18  C   UNL     1       0.572  -0.098   1.242  0.00  0.00    +0.108 A 
ATOM     19  C   UNL     1       1.082  -0.701   0.092  0.00  0.00    +0.032 A 
ATOM     20  C   UNL     1       1.063  -2.076  -0.031  0.00  0.00    +0.005 A 
ATOM     21  C   UNL     1       0.529  -2.858   0.978  0.00  0.00    -0.047 A 
ATOM     22  C   UNL     1       0.014  -2.270   2.120  0.00  0.00    +0.051 A 
ATOM     23  C   UNL     1       0.032  -0.894   2.260  0.00  0.00    +0.142 A 
ATOM     24  C   UNL     1       0.508  -4.357   0.832  0.00  0.00    +0.044 C 
BRANCH  23  25
ATOM     25  O   UNL     1      -0.473  -0.316   3.382  0.00  0.00    -0.505 OA
ATOM     26  H   UNL     1      -1.414  -0.099   3.324  0.00  0.00    +0.292 HD
ENDBRANCH  23  25
ENDBRANCH   8  18
BRANCH   1  28
ATOM     27  C   UNL     1       0.774   4.368   3.094  0.00  0.00    +0.025 C 
ATOM     28  C   UNL     1       0.814   4.181   1.575  0.00  0.00    +0.112 C 
ENDBRANCH   1  28
TORSDOF 4
