REMARK  Name = ZINC12112468
REMARK  9 active torsions:
REMARK  status: ('A' for Active; 'I' for Inactive)
REMARK    1  A    between atoms: C_4  and  C_7
REMARK    2  A    between atoms: C_9  and  S_25
REMARK    3  A    between atoms: C_10  and  S_12
REMARK    4  A    between atoms: S_12  and  C_13
REMARK    5  A    between atoms: C_13  and  C_14
REMARK    6  A    between atoms: N_16  and  C_17
REMARK    7  A    between atoms: C_17  and  C_18
REMARK    8  A    between atoms: C_18  and  C_19
REMARK    9  A    between atoms: S_25  and  C_28
REMARK                            x       y       z     vdW  Elec       q    Type
REMARK                         _______ _______ _______ _____ _____    ______ ____
ROOT
ATOM      1  C   UNL     1       3.696  -0.685  -0.037  0.00  0.00    +0.163 A 
ATOM      2  N   UNL     1       3.854  -2.039  -0.046  0.00  0.00    -0.206 NA
ATOM      3  C   UNL     1       5.205  -2.286  -0.061  0.00  0.00    +0.216 A 
ATOM      4  C   UNL     1       5.825  -1.081  -0.061  0.00  0.00    +0.144 A 
ATOM      5  N   UNL     1       4.886  -0.125  -0.052  0.00  0.00    -0.217 NA
ENDROOT
BRANCH   1   9
ATOM      6  C   UNL     1      -0.017   1.379   0.010  0.00  0.00    +0.000 A 
ATOM      7  C   UNL     1       1.168   2.093   0.002  0.00  0.00    +0.001 A 
ATOM      8  C   UNL     1       2.377   1.429  -0.013  0.00  0.00    +0.011 A 
ATOM      9  C   UNL     1       2.403   0.034  -0.021  0.00  0.00    +0.019 A 
ATOM     10  C   UNL     1       1.204  -0.681  -0.013  0.00  0.00    +0.011 A 
ATOM     11  C   UNL     1       0.002  -0.004   0.002  0.00  0.00    +0.001 A 
ENDBRANCH   1   9
BRANCH   3  12
ATOM     12  S   UNL     1       5.983  -3.867  -0.077  0.00  0.00    +0.045 S 
ATOM     13  O   UNL     1       7.285  -3.684   0.462  0.00  0.00    -0.163 OA
ATOM     14  O   UNL     1       5.050  -4.784   0.479  0.00  0.00    -0.163 OA
BRANCH  12  15
ATOM     15  C   UNL     1       6.196  -4.326  -1.764  0.00  0.00    +0.095 A 
ATOM     16  C   UNL     1       5.203  -5.030  -2.420  0.00  0.00    +0.027 A 
ATOM     17  C   UNL     1       5.370  -5.390  -3.744  0.00  0.00    +0.002 A 
ATOM     18  C   UNL     1       6.530  -5.046  -4.413  0.00  0.00    +0.000 A 
ATOM     19  C   UNL     1       7.523  -4.342  -3.757  0.00  0.00    +0.002 A 
ATOM     20  C   UNL     1       7.354  -3.978  -2.435  0.00  0.00    +0.027 A 
ENDBRANCH  12  15
ENDBRANCH   3  12
BRANCH   4  21
ATOM     21  S   UNL     1       7.567  -0.817  -0.078  0.00  0.00    -0.093 S 
BRANCH  21  22
ATOM     22  C   UNL     1       7.737   0.989  -0.070  0.00  0.00    +0.171 C 
BRANCH  22  23
ATOM     23  C   UNL     1       9.199   1.356  -0.083  0.00  0.00    +0.223 C 
ATOM     24  O   UNL     1      10.043   0.485  -0.096  0.00  0.00    -0.275 OA
ATOM     25  N   UNL     1       9.569   2.652  -0.080  0.00  0.00    -0.314 N 
ATOM     26  H   UNL     1       8.894   3.349  -0.069  0.00  0.00    +0.149 HD
BRANCH  25  27
ATOM     27  C   UNL     1      10.989   3.009  -0.093  0.00  0.00    +0.108 C 
BRANCH  27  28
ATOM     28  C   UNL     1      11.133   4.532  -0.086  0.00  0.00    +0.049 C 
BRANCH  28  29
ATOM     29  C   UNL     1      12.594   4.899  -0.099  0.00  0.00    -0.072 C 
ATOM     30  C   UNL     1      13.146   5.155  -1.242  0.00  0.00    -0.028 C 
ATOM     31  C   UNL     1      14.590   5.523  -1.415  0.00  0.00    +0.027 C 
ATOM     32  C   UNL     1      15.186   5.962  -0.076  0.00  0.00    +0.004 C 
ATOM     33  C   UNL     1      14.832   4.909   0.982  0.00  0.00    +0.005 C 
ATOM     34  C   UNL     1      13.318   4.951   1.214  0.00  0.00    +0.030 C 
ENDBRANCH  28  29
ENDBRANCH  27  28
ENDBRANCH  25  27
ENDBRANCH  22  23
ENDBRANCH  21  22
ENDBRANCH   4  21
TORSDOF 9
