REMARK  Name = ZINC03128078
REMARK  9 active torsions:
REMARK  status: ('A' for Active; 'I' for Inactive)
REMARK    1  A    between atoms: C_1  and  C_2
REMARK    2  A    between atoms: C_3  and  C_24
REMARK    3  A    between atoms: C_4  and  S_7
REMARK    4  A    between atoms: S_7  and  C_8
REMARK    5  A    between atoms: C_8  and  C_9
REMARK    6  A    between atoms: N_11  and  N_12
REMARK    7  A    between atoms: C_13  and  C_14
REMARK    8  A    between atoms: C_14  and  O_15
REMARK    9  A    between atoms: O_15  and  C_16
REMARK                            x       y       z     vdW  Elec       q    Type
REMARK                         _______ _______ _______ _____ _____    ______ ____
ROOT
ATOM      1  N   UNL     1       3.269  -1.867  -0.041  0.00  0.00    -0.251 N 
ATOM      2  C   UNL     1       3.494  -0.516  -0.035  0.00  0.00    +0.120 C 
ATOM      3  H   UNL     1       2.361  -2.208  -0.034  0.00  0.00    +0.171 HD
ATOM      4  H   UNL     1       5.520  -0.599  -0.056  0.00  0.00    +0.157 HD
ATOM      5  N   UNL     1       4.700   0.008  -0.044  0.00  0.00    -0.387 N 
ATOM      6  H   UNL     1       4.816   1.028  -0.039  0.00  0.00    +0.157 HD
ENDROOT
BRANCH   1   9
ATOM      7  C   UNL     1       4.130  -4.087  -0.062  0.00  0.00    +0.239 C 
ATOM      8  O   UNL     1       2.994  -4.513  -0.053  0.00  0.00    -0.273 OA
ATOM      9  N   UNL     1       4.351  -2.758  -0.057  0.00  0.00    -0.235 N 
ATOM     10  H   UNL     1       5.259  -2.417  -0.064  0.00  0.00    +0.173 HD
BRANCH   7  11
ATOM     11  C   UNL     1       5.293  -5.045  -0.079  0.00  0.00    +0.173 C 
BRANCH  11  12
ATOM     12  S   UNL     1       4.673  -6.750  -0.083  0.00  0.00    -0.095 S 
BRANCH  12  16
ATOM     13  C   UNL     1       7.533 -11.281  -0.135  0.00  0.00    +0.054 C 
ATOM     14  C   UNL     1       7.269  -9.798  -0.125  0.00  0.00    +0.025 A 
ATOM     15  C   UNL     1       6.054  -9.130  -0.104  0.00  0.00    +0.095 A 
ATOM     16  C   UNL     1       6.134  -7.734  -0.102  0.00  0.00    +0.124 A 
ATOM     17  N   UNL     1       7.318  -7.174  -0.110  0.00  0.00    -0.203 NA
ATOM     18  S   UNL     1       8.405  -8.491  -0.128  0.00  0.00    +0.009 S 
BRANCH  15  19
ATOM     19  C   UNL     1       4.801  -9.823  -0.091  0.00  0.00    +0.103 C 
ATOM     20  N   UNL     1       3.807 -10.373  -0.080  0.00  0.00    -0.191 NA
ENDBRANCH  15  19
ENDBRANCH  12  16
ENDBRANCH  11  12
ENDBRANCH   7  11
ENDBRANCH   1   9
BRANCH   2  21
ATOM     21  C   UNL     1       2.331   0.442  -0.019  0.00  0.00    +0.299 C 
BRANCH  21  22
ATOM     22  O   UNL     1       2.819   1.784  -0.016  0.00  0.00    -0.483 OA
BRANCH  22  23
ATOM     23  C   UNL     1       1.892   2.779  -0.001  0.00  0.00    +0.139 A 
ATOM     24  C   UNL     1       0.540   2.467   0.011  0.00  0.00    +0.048 A 
ATOM     25  C   UNL     1      -0.401   3.479   0.019  0.00  0.00    +0.023 A 
ATOM     26  C   UNL     1       0.004   4.802   0.028  0.00  0.00    +0.043 A 
ATOM     27  C   UNL     1       1.351   5.115   0.017  0.00  0.00    +0.043 A 
ATOM     28  C   UNL     1       2.296   4.106   0.002  0.00  0.00    +0.084 A 
ATOM     29 CL   UNL     1       3.987   4.500  -0.013  0.00  0.00    -0.080 Cl
ATOM     30 CL   UNL     1      -1.181   6.071   0.046  0.00  0.00    -0.083 Cl
ENDBRANCH  22  23
ENDBRANCH  21  22
ENDBRANCH   2  21
TORSDOF 8
