REMARK  Name = ZINC00989385
REMARK  10 active torsions:
REMARK  status: ('A' for Active; 'I' for Inactive)
REMARK    1  A    between atoms: C_1  and  C_2
REMARK    2  A    between atoms: C_3  and  C_29
REMARK    3  A    between atoms: C_15  and  C_19
REMARK    4  A    between atoms: C_16  and  N_18
REMARK    5  A    between atoms: C_19  and  O_21
REMARK    6  A    between atoms: O_21  and  C_22
REMARK    7  A    between atoms: C_22  and  C_23
REMARK    8  A    between atoms: C_29  and  O_31
REMARK    9  A    between atoms: O_31  and  C_32
REMARK   10  A    between atoms: C_32  and  C_33
REMARK                            x       y       z     vdW  Elec       q    Type
REMARK                         _______ _______ _______ _____ _____    ______ ____
ROOT
ATOM      1  C   UNL     1       2.054   5.759  -2.447  0.00  0.00    +0.087 C 
ATOM      2  C   UNL     1       1.588   5.110  -1.169  0.00  0.00    +0.116 C 
ATOM      3  C   UNL     1       1.085   3.869  -1.220  0.00  0.00    +0.098 C 
ATOM      4  C   UNL     1       0.611   3.180   0.027  0.00  0.00    +0.145 C 
ATOM      5  C   UNL     1      -0.895   3.121   0.057  0.00  0.00    -0.001 A 
ATOM      6  C   UNL     1      -1.874   4.089   0.074  0.00  0.00    +0.022 A 
ATOM      7  C   UNL     1      -3.209   3.722   0.100  0.00  0.00    +0.018 A 
ATOM      8  C   UNL     1      -3.554   2.382   0.109  0.00  0.00    +0.017 A 
ATOM      9  C   UNL     1      -2.576   1.411   0.093  0.00  0.00    +0.025 A 
ATOM     10  C   UNL     1      -1.230   1.772   0.061  0.00  0.00    +0.038 A 
ATOM     11  N   UNL     1      -0.075   0.988   0.048  0.00  0.00    -0.284 N 
ATOM     12  C   UNL     1       1.044   1.733   0.025  0.00  0.00    +0.237 C 
ATOM     13  O   UNL     1       2.185   1.321   0.007  0.00  0.00    -0.274 OA
ATOM     14 BR   UNL     1      -4.557   5.049   0.123  0.00  0.00    -0.050 Br
ATOM     15  C   UNL     1       1.135   3.881   1.247  0.00  0.00    +0.117 C 
ATOM     16  C   UNL     1       1.643   5.139   1.151  0.00  0.00    +0.195 C 
ATOM     17  O   UNL     1       1.692   5.794  -0.020  0.00  0.00    -0.446 OA
ATOM     18  H   UNL     1      -0.080   0.018   0.050  0.00  0.00    +0.155 HD
ENDROOT
BRANCH  16  19
ATOM     19  N   UNL     1       2.119   5.753   2.279  0.00  0.00    -0.329 N 
ATOM     20  H   UNL     1       2.161   5.265   3.116  0.00  0.00    +0.145 HD
ATOM     21  H   UNL     1       2.414   6.676   2.240  0.00  0.00    +0.145 HD
ENDBRANCH  16  19
BRANCH  15  22
ATOM     22  C   UNL     1       1.100   3.235   2.492  0.00  0.00    +0.342 C 
ATOM     23  O   UNL     1       0.060   3.187   3.124  0.00  0.00    -0.245 OA
BRANCH  22  24
ATOM     24  O   UNL     1       2.220   2.667   2.990  0.00  0.00    -0.456 OA
BRANCH  24  25
ATOM     25  C   UNL     1       2.112   2.027   4.262  0.00  0.00    +0.268 C 
BRANCH  25  26
ATOM     26  C   UNL     1       3.451   1.456   4.652  0.00  0.00    -0.010 A 
ATOM     27  C   UNL     1       3.781   0.162   4.294  0.00  0.00    +0.007 A 
ATOM     28  C   UNL     1       5.011  -0.360   4.648  0.00  0.00    +0.000 A 
ATOM     29  C   UNL     1       5.907   0.407   5.369  0.00  0.00    +0.000 A 
ATOM     30  C   UNL     1       5.574   1.699   5.731  0.00  0.00    +0.000 A 
ATOM     31  C   UNL     1       4.347   2.223   5.373  0.00  0.00    +0.007 A 
ENDBRANCH  25  26
ENDBRANCH  24  25
ENDBRANCH  22  24
ENDBRANCH  15  22
BRANCH   3  32
ATOM     32  C   UNL     1       1.000   3.199  -2.465  0.00  0.00    +0.340 C 
ATOM     33  O   UNL     1       1.382   3.750  -3.480  0.00  0.00    -0.245 OA
BRANCH  32  34
ATOM     34  O   UNL     1       0.495   1.949  -2.526  0.00  0.00    -0.457 OA
BRANCH  34  35
ATOM     35  C   UNL     1       0.440   1.334  -3.814  0.00  0.00    +0.268 C 
BRANCH  35  36
ATOM     36  C   UNL     1      -0.148  -0.048  -3.686  0.00  0.00    -0.010 A 
ATOM     37  C   UNL     1       0.679  -1.133  -3.465  0.00  0.00    +0.007 A 
ATOM     38  C   UNL     1       0.139  -2.400  -3.342  0.00  0.00    +0.000 A 
ATOM     39  C   UNL     1      -1.227  -2.583  -3.451  0.00  0.00    +0.000 A 
ATOM     40  C   UNL     1      -2.053  -1.498  -3.678  0.00  0.00    +0.000 A 
ATOM     41  C   UNL     1      -1.514  -0.231  -3.795  0.00  0.00    +0.007 A 
ENDBRANCH  35  36
ENDBRANCH  34  35
ENDBRANCH  32  34
ENDBRANCH   3  32
TORSDOF 9
