REMARK  Name = ZINC39352667
REMARK  7 active torsions:
REMARK  status: ('A' for Active; 'I' for Inactive)
REMARK    1  A    between atoms: C_2  and  C_3
REMARK    2  A    between atoms: C_3  and  N_4
REMARK    3  A    between atoms: C_7  and  C_9
REMARK    4  A    between atoms: C_18  and  N_22
REMARK    5  A    between atoms: N_22  and  C_23
REMARK    6  A    between atoms: C_23  and  C_24
REMARK    7  A    between atoms: C_24  and  N_29
REMARK                            x       y       z     vdW  Elec       q    Type
REMARK                         _______ _______ _______ _____ _____    ______ ____
ROOT
ATOM      1  N   UNL     1       0.980  -0.504   1.817  0.00  0.00    -0.264 N 
ATOM      2  C   UNL     1       1.756  -0.570   2.911  0.00  0.00    +0.043 A 
ATOM      3  C   UNL     1       1.657  -1.831   3.399  0.00  0.00    +0.004 A 
ATOM      4  C   UNL     1       0.782  -2.511   2.535  0.00  0.00    +0.151 A 
ATOM      5  N   UNL     1       0.412  -1.642   1.610  0.00  0.00    -0.166 NA
ATOM      6  C   UNL     1       2.368  -2.330   4.626  0.00  0.00    +0.023 C 
ATOM      7  C   UNL     1       2.861  -1.116   5.425  0.00  0.00    -0.067 C 
ATOM      8  C   UNL     1       3.604  -0.157   4.490  0.00  0.00    -0.009 C 
ATOM      9  C   UNL     1       2.606   0.508   3.534  0.00  0.00    +0.054 C 
ENDROOT
BRANCH   4  10
ATOM     10  C   UNL     1       0.355  -3.920   2.643  0.00  0.00    +0.267 C 
ATOM     11  O   UNL     1       0.679  -4.582   3.610  0.00  0.00    -0.268 OA
ATOM     12  N   UNL     1      -0.396  -4.473   1.669  0.00  0.00    -0.292 N 
ATOM     13  C   UNL     1      -0.678  -3.743   0.423  0.00  0.00    +0.136 C 
ATOM     14  C   UNL     1      -0.340  -4.656  -0.760  0.00  0.00    +0.179 C 
ATOM     15  O   UNL     1      -1.007  -5.910  -0.594  0.00  0.00    -0.377 OA
ATOM     16  C   UNL     1      -0.603  -6.638   0.568  0.00  0.00    +0.179 C 
ATOM     17  C   UNL     1      -0.951  -5.828   1.818  0.00  0.00    +0.136 C 
ENDBRANCH   4  10
BRANCH   7  18
ATOM     18  N   UNL     1       3.770  -1.566   6.487  0.00  0.00    +0.380 N 
ATOM     19  H   UNL     1       3.307  -2.260   7.055  0.00  0.00    -0.086 HD
ATOM     20  H   UNL     1       4.598  -1.968   6.074  0.00  0.00    -0.086 HD
BRANCH  18  21
ATOM     21  C   UNL     1       4.149  -0.421   7.325  0.00  0.00    -0.095 C 
BRANCH  21  22
ATOM     22  C   UNL     1       5.036  -0.901   8.476  0.00  0.00    -0.081 C 
ATOM     23  C   UNL     1       4.226  -1.813   9.422  0.00  0.00    -0.014 C 
ATOM     24  C   UNL     1       4.753  -1.456  10.834  0.00  0.00    -0.001 C 
ATOM     25  C   UNL     1       4.964   0.075  10.744  0.00  0.00    -0.001 C 
ATOM     26  C   UNL     1       5.505   0.299   9.317  0.00  0.00    -0.014 C 
BRANCH  22  27
ATOM     27  N   UNL     1       6.196  -1.629   7.946  0.00  0.00    +0.382 N 
ATOM     28  C   UNL     1       7.086  -2.002   9.052  0.00  0.00    -0.078 C 
ATOM     29  C   UNL     1       8.255  -2.830   8.515  0.00  0.00    -0.019 C 
ATOM     30  C   UNL     1       9.033  -1.999   7.491  0.00  0.00    -0.004 C 
ATOM     31  C   UNL     1       8.079  -1.554   6.379  0.00  0.00    -0.019 C 
ATOM     32  C   UNL     1       6.916  -0.773   6.995  0.00  0.00    -0.078 C 
ATOM     33  H   UNL     1       5.882  -2.463   7.474  0.00  0.00    -0.081 HD
ENDBRANCH  22  27
ENDBRANCH  21  22
ENDBRANCH  18  21
ENDBRANCH   7  18
BRANCH   1  34
ATOM     34  C   UNL     1       0.800   0.688   0.985  0.00  0.00    +0.170 C 
BRANCH  34  36
ATOM     35  C   UNL     1      -0.191   2.759   1.817  0.00  0.00    +0.006 C 
ATOM     36  C   UNL     1      -0.359   1.497   1.509  0.00  0.00    -0.012 C 
ENDBRANCH  34  36
ENDBRANCH   1  34
TORSDOF 7
