REMARK  Name = ZINC39012334
REMARK  10 active torsions:
REMARK  status: ('A' for Active; 'I' for Inactive)
REMARK    1  A    between atoms: C_1  and  C_2
REMARK    2  A    between atoms: C_2  and  O_3
REMARK    3  A    between atoms: O_3  and  C_4
REMARK    4  A    between atoms: C_7  and  N_10
REMARK    5  A    between atoms: N_10  and  C_11
REMARK    6  A    between atoms: N_10  and  S_26
REMARK    7  A    between atoms: C_11  and  C_12
REMARK    8  A    between atoms: C_17  and  O_24
REMARK    9  A    between atoms: O_24  and  C_25
REMARK   10  A    between atoms: S_26  and  C_29
REMARK                            x       y       z     vdW  Elec       q    Type
REMARK                         _______ _______ _______ _____ _____    ______ ____
ROOT
ATOM      1  N   UNL     1       1.132  -5.891  -1.854  0.00  0.00    -0.202 N 
ENDROOT
BRANCH   1   5
ATOM      2  C   UNL     1       1.202  -1.739  -1.492  0.00  0.00    +0.121 A 
ATOM      3  C   UNL     1       0.633  -2.513  -0.491  0.00  0.00    +0.047 A 
ATOM      4  C   UNL     1       0.609  -3.888  -0.610  0.00  0.00    +0.028 A 
ATOM      5  C   UNL     1       1.155  -4.497  -1.733  0.00  0.00    +0.052 A 
ATOM      6  C   UNL     1       1.724  -3.722  -2.734  0.00  0.00    +0.028 A 
ATOM      7  C   UNL     1       1.742  -2.346  -2.616  0.00  0.00    +0.047 A 
BRANCH   2   8
ATOM      8  O   UNL     1       1.224  -0.384  -1.374  0.00  0.00    -0.492 OA
BRANCH   8  10
ATOM      9  C   UNL     1       0.768   1.698  -0.235  0.00  0.00    +0.048 C 
ATOM     10  C   UNL     1       0.650   0.173  -0.190  0.00  0.00    +0.225 C 
ENDBRANCH   8  10
ENDBRANCH   2   8
ENDBRANCH   1   5
BRANCH   1  11
ATOM     11  S   UNL     1       1.089  -6.840  -0.497  0.00  0.00    +0.075 S 
ATOM     12  O   UNL     1       1.754  -8.051  -0.828  0.00  0.00    -0.150 OA
ATOM     13  O   UNL     1       1.498  -6.017   0.587  0.00  0.00    -0.150 OA
BRANCH  11  14
ATOM     14  C   UNL     1      -0.598  -7.255  -0.206  0.00  0.00    +0.109 A 
ATOM     15  C   UNL     1      -1.385  -6.437   0.584  0.00  0.00    +0.031 A 
ATOM     16  C   UNL     1      -2.708  -6.762   0.813  0.00  0.00    +0.040 A 
ATOM     17  C   UNL     1      -3.247  -7.907   0.251  0.00  0.00    +0.124 A 
ATOM     18  C   UNL     1      -2.458  -8.726  -0.539  0.00  0.00    +0.040 A 
ATOM     19  C   UNL     1      -1.136  -8.396  -0.771  0.00  0.00    +0.031 A 
ATOM     20  F   UNL     1      -4.540  -8.226   0.475  0.00  0.00    -0.205 F 
ENDBRANCH  11  14
ENDBRANCH   1  11
BRANCH   1  21
ATOM     21  C   UNL     1       1.146  -6.511  -3.181  0.00  0.00    +0.148 C 
BRANCH  21  22
ATOM     22  C   UNL     1      -0.077  -6.045  -3.975  0.00  0.00    +0.118 C 
ATOM     23  C   UNL     1       0.054  -6.580  -5.387  0.00  0.00    -0.003 C 
ATOM     24  C   UNL     1      -0.952  -7.375  -5.850  0.00  0.00    -0.004 A 
ATOM     25  C   UNL     1      -0.906  -7.933  -7.202  0.00  0.00    +0.055 A 
ATOM     26  C   UNL     1      -1.934  -8.721  -7.622  0.00  0.00    +0.121 A 
ATOM     27  C   UNL     1      -3.023  -9.001  -6.789  0.00  0.00    +0.047 A 
ATOM     28  C   UNL     1      -3.122  -8.513  -5.526  0.00  0.00    +0.027 A 
ATOM     29  C   UNL     1      -2.111  -7.688  -4.996  0.00  0.00    +0.041 A 
ATOM     30  N   UNL     1      -2.221  -7.216  -3.754  0.00  0.00    -0.284 N 
ATOM     31  C   UNL     1      -1.312  -6.437  -3.195  0.00  0.00    +0.226 C 
ATOM     32  O   UNL     1      -1.468  -6.037  -2.057  0.00  0.00    -0.275 OA
ATOM     33  H   UNL     1      -3.006  -7.455  -3.237  0.00  0.00    +0.155 HD
BRANCH  26  34
ATOM     34  O   UNL     1      -1.902  -9.245  -8.876  0.00  0.00    -0.495 OA
ATOM     35  C   UNL     1      -3.006 -10.064  -9.265  0.00  0.00    +0.277 C 
ENDBRANCH  26  34
ENDBRANCH  21  22
ENDBRANCH   1  21
TORSDOF 8
