REMARK  Name = ZINC36027125
REMARK  7 active torsions:
REMARK  status: ('A' for Active; 'I' for Inactive)
REMARK    1  A    between atoms: C_1  and  C_2
REMARK    2  A    between atoms: C_5  and  S_8
REMARK    3  A    between atoms: S_8  and  N_11
REMARK    4  A    between atoms: C_18  and  C_34
REMARK    5  A    between atoms: N_22  and  C_23
REMARK    6  A    between atoms: C_23  and  C_24
REMARK    7  A    between atoms: C_28  and  C_30
REMARK                            x       y       z     vdW  Elec       q    Type
REMARK                         _______ _______ _______ _____ _____    ______ ____
ROOT
ATOM      1  N   UNL     1       4.455  -4.071   0.866  0.00  0.00    -0.177 NA
ATOM      2  C   UNL     1       3.880  -4.278  -0.470  0.00  0.00    +0.109 C 
ATOM      3  C   UNL     1       5.012  -4.618  -1.446  0.00  0.00    +0.023 C 
ATOM      4  C   UNL     1       5.808  -5.804  -0.905  0.00  0.00    +0.006 C 
ATOM      5  C   UNL     1       6.419  -5.460   0.452  0.00  0.00    +0.023 C 
ATOM      6  C   UNL     1       5.303  -5.124   1.441  0.00  0.00    +0.109 C 
ATOM      7  N   UNL     1       6.880  -6.163  -1.858  0.00  0.00    +0.401 N 
ATOM      8  C   UNL     1       6.243  -7.200  -2.705  0.00  0.00    +0.016 C 
ATOM      9  C   UNL     1       5.174  -7.814  -1.827  0.00  0.00    +0.200 C 
ATOM     10  O   UNL     1       4.617  -8.873  -2.023  0.00  0.00    -0.277 OA
ATOM     11  N   UNL     1       4.945  -6.983  -0.788  0.00  0.00    -0.309 N 
ATOM     12  C   UNL     1       7.270  -8.257  -3.115  0.00  0.00    -0.004 C 
ATOM     13  H   UNL     1       7.145  -5.363  -2.413  0.00  0.00    -0.082 HD
ATOM     14  H   UNL     1       7.678  -6.542  -1.371  0.00  0.00    -0.082 HD
ENDROOT
BRANCH   1  15
ATOM     15  S   UNL     1       4.157  -2.675   1.705  0.00  0.00    +0.061 S 
ATOM     16  O   UNL     1       4.344  -2.980   3.080  0.00  0.00    -0.153 OA
ATOM     17  O   UNL     1       2.938  -2.150   1.200  0.00  0.00    -0.153 OA
BRANCH  15  22
ATOM     18  C   UNL     1       8.478   1.263   0.212  0.00  0.00    +0.044 C 
ATOM     19  C   UNL     1       7.399   0.279   0.585  0.00  0.00    -0.050 A 
ATOM     20  C   UNL     1       6.229   0.227  -0.148  0.00  0.00    +0.005 A 
ATOM     21  C   UNL     1       5.239  -0.676   0.194  0.00  0.00    +0.029 A 
ATOM     22  C   UNL     1       5.420  -1.526   1.269  0.00  0.00    +0.105 A 
ATOM     23  C   UNL     1       6.591  -1.474   2.002  0.00  0.00    +0.029 A 
ATOM     24  C   UNL     1       7.582  -0.574   1.657  0.00  0.00    +0.005 A 
ENDBRANCH  15  22
ENDBRANCH   1  15
BRANCH  11  25
ATOM     25  C   UNL     1       3.983  -7.223   0.290  0.00  0.00    +0.141 C 
BRANCH  25  26
ATOM     26  C   UNL     1       4.635  -8.044   1.372  0.00  0.00    -0.030 A 
ATOM     27  C   UNL     1       5.554  -9.022   1.039  0.00  0.00    +0.005 A 
ATOM     28  C   UNL     1       6.152  -9.776   2.031  0.00  0.00    +0.001 A 
ATOM     29  C   UNL     1       5.832  -9.551   3.357  0.00  0.00    +0.012 A 
ATOM     30  C   UNL     1       4.914  -8.573   3.691  0.00  0.00    +0.055 A 
ATOM     31  C   UNL     1       4.319  -7.817   2.698  0.00  0.00    +0.017 A 
BRANCH  30  32
ATOM     32  C   UNL     1       4.565  -8.329   5.136  0.00  0.00    +0.417 C 
ATOM     33  F   UNL     1       5.292  -9.208   5.946  0.00  0.00    -0.166 F 
ATOM     34  F   UNL     1       4.883  -7.010   5.476  0.00  0.00    -0.166 F 
ATOM     35  F   UNL     1       3.196  -8.543   5.328  0.00  0.00    -0.166 F 
ENDBRANCH  30  32
ENDBRANCH  25  26
ENDBRANCH  11  25
TORSDOF 5
