REMARK  Name = ZINC03085444
REMARK  10 active torsions:
REMARK  status: ('A' for Active; 'I' for Inactive)
REMARK    1  A    between atoms: C_1  and  C_2
REMARK    2  A    between atoms: C_2  and  O_3
REMARK    3  A    between atoms: O_3  and  C_4
REMARK    4  A    between atoms: C_6  and  C_12
REMARK    5  A    between atoms: C_9  and  O_10
REMARK    6  A    between atoms: N_13  and  N_14
REMARK    7  A    between atoms: C_15  and  C_17
REMARK    8  A    between atoms: C_17  and  N_24
REMARK    9  A    between atoms: C_18  and  C_19
REMARK   10  A    between atoms: C_25  and  C_27
REMARK                            x       y       z     vdW  Elec       q    Type
REMARK                         _______ _______ _______ _____ _____    ______ ____
ROOT
ATOM      1  N   UNL     1      -4.742   0.918  -0.299  0.00  0.00    -0.202 N 
ATOM      2  C   UNL     1      -3.642   1.692  -0.225  0.00  0.00    +0.277 C 
ATOM      3  O   UNL     1      -3.741   2.903  -0.319  0.00  0.00    -0.267 OA
ATOM      4  H   UNL     1      -4.663  -0.046  -0.224  0.00  0.00    +0.178 HD
ENDROOT
BRANCH   1   6
ATOM      5  C   UNL     1      -7.061   0.759  -0.557  0.00  0.00    +0.138 C 
ATOM      6  N   UNL     1      -6.001   1.505  -0.485  0.00  0.00    -0.187 NA
BRANCH   5   9
ATOM      7  C   UNL     1     -10.767   1.159  -1.014  0.00  0.00    +0.164 A 
ATOM      8  C   UNL     1      -9.526   0.575  -0.836  0.00  0.00    +0.059 A 
ATOM      9  C   UNL     1      -8.385   1.376  -0.752  0.00  0.00    -0.000 A 
ATOM     10  C   UNL     1      -8.501   2.765  -0.861  0.00  0.00    +0.033 A 
ATOM     11  C   UNL     1      -9.742   3.341  -1.044  0.00  0.00    +0.087 A 
ATOM     12  C   UNL     1     -10.876   2.543  -1.121  0.00  0.00    +0.177 A 
ATOM     13 CL   UNL     1      -9.885   5.065  -1.178  0.00  0.00    -0.080 Cl
BRANCH  12  14
ATOM     14  O   UNL     1     -12.096   3.115  -1.301  0.00  0.00    -0.502 OA
ATOM     15  H   UNL     1     -12.348   3.221  -2.228  0.00  0.00    +0.292 HD
ENDBRANCH  12  14
BRANCH   7  16
ATOM     16  O   UNL     1     -11.880   0.382  -1.090  0.00  0.00    -0.489 OA
BRANCH  16  18
ATOM     17  C   UNL     1     -13.049  -1.734  -1.081  0.00  0.00    +0.048 C 
ATOM     18  C   UNL     1     -11.694  -1.030  -0.972  0.00  0.00    +0.226 C 
ENDBRANCH  16  18
ENDBRANCH   7  16
ENDBRANCH   5   9
ENDBRANCH   1   6
BRANCH   2  19
ATOM     19  C   UNL     1      -2.327   1.079  -0.031  0.00  0.00    +0.099 C 
ATOM     20  C   UNL     1      -2.216  -0.273   0.074  0.00  0.00    +0.043 C 
BRANCH  20  21
ATOM     21  C   UNL     1      -0.936  -0.875   0.137  0.00  0.00    +0.014 A 
ATOM     22  C   UNL     1      -0.603  -2.223   0.167  0.00  0.00    +0.015 A 
ATOM     23  C   UNL     1       0.725  -2.564   0.224  0.00  0.00    +0.008 A 
ATOM     24  C   UNL     1       1.666  -1.581   0.262  0.00  0.00    +0.046 A 
ATOM     25  S   UNL     1       0.671  -0.100   0.207  0.00  0.00    -0.097 S 
ENDBRANCH  20  21
BRANCH  19  26
ATOM     26  N   UNL     1      -1.184   1.884   0.047  0.00  0.00    -0.277 N 
ATOM     27  C   UNL     1      -0.855   2.688  -0.984  0.00  0.00    +0.248 C 
ATOM     28  O   UNL     1      -1.596   2.781  -1.943  0.00  0.00    -0.270 OA
ATOM     29  H   UNL     1      -0.629   1.862   0.842  0.00  0.00    +0.155 HD
BRANCH  27  30
ATOM     30  C   UNL     1       0.404   3.462  -0.944  0.00  0.00    +0.037 A 
ATOM     31  C   UNL     1       1.199   3.450   0.203  0.00  0.00    +0.013 A 
ATOM     32  C   UNL     1       2.376   4.169   0.231  0.00  0.00    +0.001 A 
ATOM     33  C   UNL     1       2.763   4.910  -0.871  0.00  0.00    +0.000 A 
ATOM     34  C   UNL     1       1.977   4.931  -2.010  0.00  0.00    +0.001 A 
ATOM     35  C   UNL     1       0.801   4.212  -2.053  0.00  0.00    +0.013 A 
ENDBRANCH  27  30
ENDBRANCH  19  26
ENDBRANCH   2  19
TORSDOF 9
