REMARK  Name = ZINC06149307
REMARK  13 active torsions:
REMARK  status: ('A' for Active; 'I' for Inactive)
REMARK    1  A    between atoms: C_1  and  C_2
REMARK    2  A    between atoms: C_2  and  C_3
REMARK    3  A    between atoms: C_3  and  C_4
REMARK    4  A    between atoms: C_3  and  C_5
REMARK    5  A    between atoms: C_3  and  N_6
REMARK    6  A    between atoms: C_7  and  C_11
REMARK    7  A    between atoms: C_11  and  C_13
REMARK    8  A    between atoms: C_11  and  N_72
REMARK    9  A    between atoms: C_19  and  C_25
REMARK   10  A    between atoms: C_26  and  C_27
REMARK   11  A    between atoms: C_26  and  N_72
REMARK   12  A    between atoms: C_33  and  C_34
REMARK   13  A    between atoms: C_33  and  N_72
REMARK                            x       y       z     vdW  Elec       q    Type
REMARK                         _______ _______ _______ _____ _____    ______ ____
ROOT
ATOM      1  C   UNL     1       0.996  -3.382  -2.238  0.00  0.00    +0.040 C 
ENDROOT
BRANCH   1   2
ATOM      2  C   UNL     1       0.899  -3.175  -3.728  0.00  0.00    +0.011 A 
ATOM      3  C   UNL     1       1.944  -3.508  -4.525  0.00  0.00    +0.017 A 
ATOM      4  C   UNL     1       1.816  -3.299  -5.969  0.00  0.00    -0.001 A 
ATOM      5  C   UNL     1       2.858  -3.627  -6.842  0.00  0.00    +0.010 A 
ATOM      6  C   UNL     1       2.710  -3.414  -8.183  0.00  0.00    +0.001 A 
ATOM      7  C   UNL     1       1.534  -2.874  -8.687  0.00  0.00    +0.005 A 
ATOM      8  C   UNL     1       0.495  -2.543  -7.845  0.00  0.00    -0.026 A 
ATOM      9  C   UNL     1       0.623  -2.751  -6.476  0.00  0.00    +0.052 A 
ATOM     10  N   UNL     1      -0.401  -2.428  -5.610  0.00  0.00    -0.322 N 
ATOM     11  H   UNL     1      -1.248  -2.039  -5.972  0.00  0.00    +0.169 HD
ATOM     12  C   UNL     1      -0.276  -2.629  -4.287  0.00  0.00    +0.251 A 
ATOM     13  O   UNL     1      -1.202  -2.332  -3.551  0.00  0.00    -0.268 OA
ATOM     14  C   UNL     1      -0.776  -1.958  -8.406  0.00  0.00    +0.046 C 
ENDBRANCH   1   2
BRANCH   1  16
ATOM     15  N   UNL     1       0.126  -5.657  -1.482  0.00  0.00    -0.225 N 
ATOM     16  C   UNL     1      -0.061  -4.362  -1.798  0.00  0.00    +0.143 A 
ATOM     17  N   UNL     1      -1.341  -4.120  -1.653  0.00  0.00    -0.115 NA
ATOM     18  N   UNL     1      -1.910  -5.209  -1.264  0.00  0.00    -0.023 NA
ATOM     19  N   UNL     1      -1.026  -6.139  -1.156  0.00  0.00    -0.043 NA
BRANCH  15  20
ATOM     20  C   UNL     1       1.398  -6.383  -1.501  0.00  0.00    +0.061 C 
ATOM     21  C   UNL     1       2.031  -6.265  -2.889  0.00  0.00    +0.036 C 
ATOM     22  C   UNL     1       2.342  -5.784  -0.457  0.00  0.00    +0.036 C 
BRANCH  20  24
ATOM     23  C   UNL     1       2.478  -8.615  -1.197  0.00  0.00    +0.006 C 
ATOM     24  C   UNL     1       1.149  -7.857  -1.177  0.00  0.00    +0.026 C 
ENDBRANCH  20  24
ENDBRANCH  15  20
ENDBRANCH   1  16
BRANCH   1  25
ATOM     25  N   UNL     1       0.763  -2.093  -1.554  0.00  0.00    +0.395 N 
ATOM     26  H   UNL     1      -0.224  -1.833  -1.659  0.00  0.00    -0.079 HD
BRANCH  25  27
ATOM     27  C   UNL     1       1.076  -2.221  -0.115  0.00  0.00    -0.041 C 
BRANCH  27  28
ATOM     28  C   UNL     1      -0.058  -2.947   0.562  0.00  0.00    -0.064 A 
ATOM     29  C   UNL     1      -1.345  -2.450   0.480  0.00  0.00    +0.002 A 
ATOM     30  C   UNL     1      -2.385  -3.119   1.097  0.00  0.00    +0.000 A 
ATOM     31  C   UNL     1      -2.137  -4.279   1.805  0.00  0.00    +0.000 A 
ATOM     32  C   UNL     1      -0.849  -4.774   1.892  0.00  0.00    +0.000 A 
ATOM     33  C   UNL     1       0.190  -4.108   1.271  0.00  0.00    +0.002 A 
ENDBRANCH  27  28
ENDBRANCH  25  27
BRANCH  25  34
ATOM     34  C   UNL     1       1.605  -1.040  -2.161  0.00  0.00    -0.041 C 
BRANCH  34  35
ATOM     35  C   UNL     1       1.192   0.296  -1.600  0.00  0.00    -0.064 A 
ATOM     36  C   UNL     1       1.812   0.791  -0.468  0.00  0.00    +0.004 A 
ATOM     37  C   UNL     1       1.434   2.017   0.047  0.00  0.00    +0.038 A 
ATOM     38  C   UNL     1       0.435   2.749  -0.571  0.00  0.00    +0.123 A 
ATOM     39  C   UNL     1      -0.186   2.252  -1.704  0.00  0.00    +0.038 A 
ATOM     40  C   UNL     1       0.193   1.026  -2.218  0.00  0.00    +0.004 A 
ATOM     41  F   UNL     1       0.065   3.947  -0.068  0.00  0.00    -0.205 F 
ENDBRANCH  34  35
ENDBRANCH  25  34
ENDBRANCH   1  25
TORSDOF 9
