REMARK  Name = ZINC06351131
REMARK  8 active torsions:
REMARK  status: ('A' for Active; 'I' for Inactive)
REMARK    1  A    between atoms: C_1  and  C_2
REMARK    2  A    between atoms: C_2  and  C_3
REMARK    3  A    between atoms: C_6  and  C_8
REMARK    4  A    between atoms: C_10  and  C_29
REMARK    5  A    between atoms: C_11  and  N_28
REMARK    6  A    between atoms: N_12  and  C_22
REMARK    7  A    between atoms: C_18  and  C_20
REMARK    8  A    between atoms: C_18  and  C_21
REMARK                            x       y       z     vdW  Elec       q    Type
REMARK                         _______ _______ _______ _____ _____    ______ ____
ROOT
ATOM      1  C   UNL     1      -0.094  -3.818  -0.588  0.00  0.00    +0.104 C 
ATOM      2  C   UNL     1      -1.279  -4.654  -0.206  0.00  0.00    +0.077 C 
ATOM      3  C   UNL     1      -2.432  -4.081   0.227  0.00  0.00    +0.107 C 
ATOM      4  N   UNL     1      -2.526  -2.711   0.329  0.00  0.00    -0.260 N 
ATOM      5  C   UNL     1      -1.397  -1.938   0.391  0.00  0.00    +0.025 C 
ATOM      6  C   UNL     1      -0.208  -2.422  -0.028  0.00  0.00    +0.026 C 
ATOM      7  C   UNL     1       0.960  -1.643   0.048  0.00  0.00    +0.162 C 
ATOM      8  O   UNL     1       2.011  -2.104  -0.348  0.00  0.00    -0.292 OA
ATOM      9  C   UNL     1       0.934  -0.249   0.615  0.00  0.00    +0.086 C 
ATOM     10  C   UNL     1      -0.207  -0.145   1.631  0.00  0.00    -0.023 C 
ATOM     11  C   UNL     1      -1.515  -0.538   0.940  0.00  0.00    +0.058 C 
ATOM     12  C   UNL     1      -0.309   1.292   2.145  0.00  0.00    +0.011 C 
ATOM     13  C   UNL     1       0.059  -1.092   2.803  0.00  0.00    +0.011 C 
ENDROOT
BRANCH   4  14
ATOM     14  C   UNL     1      -3.786  -2.104   0.371  0.00  0.00    +0.040 A 
ATOM     15  C   UNL     1      -4.381  -1.653  -0.801  0.00  0.00    +0.024 A 
ATOM     16  C   UNL     1      -5.627  -1.060  -0.757  0.00  0.00    +0.002 A 
ATOM     17  C   UNL     1      -6.278  -0.903   0.453  0.00  0.00    +0.000 A 
ATOM     18  C   UNL     1      -5.686  -1.344   1.622  0.00  0.00    +0.002 A 
ATOM     19  C   UNL     1      -4.443  -1.944   1.584  0.00  0.00    +0.024 A 
ENDBRANCH   4  14
BRANCH   1  23
ATOM     20  C   UNL     1      -0.281  -3.410  -4.753  0.00  0.00    -0.010 A 
ATOM     21  C   UNL     1       0.855  -3.973  -4.274  0.00  0.00    +0.011 A 
ATOM     22  C   UNL     1       0.995  -4.143  -2.910  0.00  0.00    +0.012 A 
ATOM     23  C   UNL     1      -0.007  -3.741  -2.091  0.00  0.00    +0.003 A 
ATOM     24  S   UNL     1      -1.202  -3.106  -3.255  0.00  0.00    -0.097 S 
BRANCH  20  26
ATOM     25  C   UNL     1      -1.404  -4.328  -6.764  0.00  0.00    +0.009 C 
ATOM     26  C   UNL     1      -0.668  -3.120  -6.181  0.00  0.00    +0.039 C 
ENDBRANCH  20  26
ENDBRANCH   1  23
BRANCH   3  27
ATOM     27  N   UNL     1      -3.506  -4.870   0.564  0.00  0.00    -0.345 N 
ATOM     28  H   UNL     1      -4.296  -4.470   0.960  0.00  0.00    +0.144 HD
ATOM     29  H   UNL     1      -3.474  -5.826   0.406  0.00  0.00    +0.144 HD
ENDBRANCH   3  27
BRANCH   2  30
ATOM     30  C   UNL     1      -1.193  -6.081  -0.298  0.00  0.00    +0.099 C 
ATOM     31  N   UNL     1      -1.125  -7.212  -0.371  0.00  0.00    -0.191 NA
ENDBRANCH   2  30
TORSDOF 5
