REMARK  Name = ZINC60524778
REMARK  7 active torsions:
REMARK  status: ('A' for Active; 'I' for Inactive)
REMARK    1  A    between atoms: C_1  and  C_2
REMARK    2  A    between atoms: C_4  and  C_26
REMARK    3  A    between atoms: N_6  and  C_8
REMARK    4  A    between atoms: C_8  and  C_9
REMARK    5  A    between atoms: C_9  and  N_10
REMARK    6  A    between atoms: C_11  and  C_13
REMARK    7  A    between atoms: C_13  and  N_14
REMARK                            x       y       z     vdW  Elec       q    Type
REMARK                         _______ _______ _______ _____ _____    ______ ____
ROOT
ATOM      1  N   UNL     1       1.198  -2.551   4.899  0.00  0.00    -0.316 N 
ATOM      2  C   UNL     1       0.624  -2.318   6.096  0.00  0.00    +0.231 C 
ATOM      3  O   UNL     1      -0.423  -1.709   6.158  0.00  0.00    -0.274 OA
ATOM      4  H   UNL     1       2.035  -3.038   4.849  0.00  0.00    +0.149 HD
ENDROOT
BRANCH   1   5
ATOM      5  C   UNL     1       0.557  -2.069   3.673  0.00  0.00    +0.086 C 
BRANCH   5   6
ATOM      6  C   UNL     1       1.408  -2.463   2.464  0.00  0.00    -0.060 C 
BRANCH   6  12
ATOM      7  C   UNL     1      -0.019   1.526   0.010  0.00  0.00    +0.005 C 
ATOM      8  C   UNL     1       0.002  -0.004   0.002  0.00  0.00    -0.031 C 
ATOM      9  C   UNL     1       0.724  -0.499  -1.255  0.00  0.00    +0.003 C 
ATOM     10  C   UNL     1       0.808  -2.027  -1.215  0.00  0.00    -0.031 C 
ATOM     11  C   UNL     1       1.518  -2.460   0.070  0.00  0.00    -0.076 C 
ATOM     12  N   UNL     1       0.765  -1.980   1.235  0.00  0.00    +0.381 N 
ATOM     13  C   UNL     1       0.742  -0.512   1.241  0.00  0.00    -0.076 C 
ATOM     14  C   UNL     1       1.595  -2.527  -2.428  0.00  0.00    +0.005 C 
ATOM     15  H   UNL     1      -0.180  -2.330   1.191  0.00  0.00    -0.082 HD
ENDBRANCH   6  12
ENDBRANCH   5   6
ENDBRANCH   1   5
BRANCH   2  16
ATOM     16  C   UNL     1       1.282  -2.814   7.357  0.00  0.00    +0.209 C 
BRANCH  16  17
ATOM     17  N   UNL     1       0.468  -2.437   8.515  0.00  0.00    -0.259 N 
ATOM     18  C   UNL     1       0.681  -1.212   9.161  0.00  0.00    +0.079 A 
ATOM     19  C   UNL     1       0.771  -0.036   8.434  0.00  0.00    +0.027 A 
ATOM     20  C   UNL     1       0.986   1.163   9.088  0.00  0.00    +0.002 A 
ATOM     21  C   UNL     1       1.111   1.191  10.464  0.00  0.00    +0.004 A 
ATOM     22  C   UNL     1       1.020   0.022  11.196  0.00  0.00    +0.047 A 
ATOM     23  C   UNL     1       0.803  -1.183  10.549  0.00  0.00    +0.142 A 
ATOM     24  O   UNL     1       0.699  -2.337  11.259  0.00  0.00    -0.490 OA
ATOM     25  C   UNL     1      -0.606  -2.885  11.425  0.00  0.00    +0.238 C 
ATOM     26  C   UNL     1      -1.380  -2.828  10.110  0.00  0.00    +0.137 C 
ATOM     27  C   UNL     1      -0.501  -3.264   8.967  0.00  0.00    +0.224 C 
ATOM     28  O   UNL     1      -0.658  -4.354   8.458  0.00  0.00    -0.275 OA
ENDBRANCH  16  17
ENDBRANCH   2  16
TORSDOF 5
