REMARK  Name = ZINC05490020
REMARK  4 active torsions:
REMARK  status: ('A' for Active; 'I' for Inactive)
REMARK    1  A    between atoms: C_4  and  C_7
REMARK    2  A    between atoms: C_9  and  C_22
REMARK    3  A    between atoms: C_17  and  C_19
REMARK    4  A    between atoms: C_22  and  C_24
REMARK                            x       y       z     vdW  Elec       q    Type
REMARK                         _______ _______ _______ _____ _____    ______ ____
ROOT
ATOM      1  C   UNL     1      -0.958   5.006  -1.130  0.00  0.00    +0.059 C 
ATOM      2  C   UNL     1      -0.367   5.267   0.302  0.00  0.00    +0.092 C 
ATOM      3  C   UNL     1      -0.374   3.868   0.940  0.00  0.00    +0.090 C 
ATOM      4  C   UNL     1       1.008   3.263   0.937  0.00  0.00    -0.006 C 
ATOM      5  C   UNL     1       1.137   1.947   0.762  0.00  0.00    -0.001 C 
ATOM      6  C   UNL     1      -0.030   1.075   0.578  0.00  0.00    +0.013 C 
ATOM      7  C   UNL     1      -1.218   1.619   0.224  0.00  0.00    +0.053 C 
ATOM      8  C   UNL     1      -1.942   3.835  -0.861  0.00  0.00    +0.151 C 
ATOM      9  N   UNL     1      -1.445   3.112   0.353  0.00  0.00    -0.384 NA
ATOM     10  H   UNL     1      -2.213   3.181   1.032  0.00  0.00    +0.127 HD
ENDROOT
BRANCH   1  14
ATOM     11  C   UNL     1      -3.038   8.453  -2.558  0.00  0.00    +0.000 A 
ATOM     12  C   UNL     1      -1.662   8.383  -2.665  0.00  0.00    +0.000 A 
ATOM     13  C   UNL     1      -0.988   7.268  -2.202  0.00  0.00    +0.004 A 
ATOM     14  C   UNL     1      -1.692   6.222  -1.633  0.00  0.00    -0.041 A 
ATOM     15  C   UNL     1      -3.068   6.290  -1.532  0.00  0.00    +0.004 A 
ATOM     16  C   UNL     1      -3.741   7.408  -1.989  0.00  0.00    +0.000 A 
ENDBRANCH   1  14
BRANCH   8  17
ATOM     17  C   UNL     1      -2.219   3.069  -2.129  0.00  0.00    +0.230 C 
ATOM     18  O   UNL     1      -1.468   2.184  -2.479  0.00  0.00    -0.274 OA
ATOM     19  N   UNL     1      -3.303   3.368  -2.873  0.00  0.00    -0.328 N 
ATOM     20  H   UNL     1      -3.944   4.023  -2.555  0.00  0.00    +0.145 HD
ATOM     21  H   UNL     1      -3.441   2.928  -3.726  0.00  0.00    +0.145 HD
ENDBRANCH   8  17
BRANCH   2  22
ATOM     22  C   UNL     1      -1.247   6.208   1.083  0.00  0.00    +0.169 C 
ATOM     23  O   UNL     1      -2.442   6.231   0.879  0.00  0.00    -0.292 OA
BRANCH  22  24
ATOM     24  C   UNL     1      -0.656   7.100   2.094  0.00  0.00    +0.018 A 
ATOM     25  C   UNL     1       0.721   7.072   2.337  0.00  0.00    +0.011 A 
ATOM     26  C   UNL     1       1.268   7.914   3.283  0.00  0.00    +0.001 A 
ATOM     27  C   UNL     1       0.457   8.777   3.998  0.00  0.00    +0.000 A 
ATOM     28  C   UNL     1      -0.908   8.807   3.767  0.00  0.00    +0.001 A 
ATOM     29  C   UNL     1      -1.469   7.975   2.821  0.00  0.00    +0.011 A 
ENDBRANCH  22  24
ENDBRANCH   2  22
TORSDOF 4
