REMARK  Name = ZINC08868960
REMARK  10 active torsions:
REMARK  status: ('A' for Active; 'I' for Inactive)
REMARK    1  A    between atoms: C_1  and  C_2
REMARK    2  A    between atoms: C_5  and  C_34
REMARK    3  A    between atoms: N_11  and  C_12
REMARK    4  A    between atoms: C_12  and  C_13
REMARK    5  A    between atoms: C_13  and  N_63
REMARK    6  A    between atoms: C_14  and  N_63
REMARK    7  A    between atoms: C_15  and  N_63
REMARK    8  A    between atoms: C_16  and  C_18
REMARK    9  A    between atoms: N_23  and  S_24
REMARK   10  A    between atoms: S_24  and  C_27
REMARK                            x       y       z     vdW  Elec       q    Type
REMARK                         _______ _______ _______ _____ _____    ______ ____
ROOT
ATOM      1  C   UNL     1      -3.341   4.010  -0.991  0.00  0.00    +0.046 C 
ATOM      2  C   UNL     1      -1.905   4.452  -0.876  0.00  0.00    -0.024 A 
ATOM      3  C   UNL     1      -1.593   5.781  -0.995  0.00  0.00    +0.006 A 
ATOM      4  C   UNL     1      -0.284   6.230  -0.895  0.00  0.00    +0.005 A 
ATOM      5  C   UNL     1       0.731   5.317  -0.674  0.00  0.00    -0.035 A 
ATOM      6  C   UNL     1       0.428   3.984  -0.554  0.00  0.00    +0.044 A 
ATOM      7  C   UNL     1      -0.893   3.490  -0.649  0.00  0.00    +0.083 A 
ATOM      8  N   UNL     1      -1.029   2.153  -0.515  0.00  0.00    -0.224 NA
ATOM      9  C   UNL     1      -0.007   1.358  -0.298  0.00  0.00    +0.168 A 
ATOM     10  S   UNL     1       1.366   2.502  -0.273  0.00  0.00    -0.052 S 
ATOM     11  N   UNL     1       0.005  -0.018  -0.137  0.00  0.00    -0.251 N 
ATOM     12  C   UNL     1       1.178  -0.676  -0.050  0.00  0.00    +0.240 C 
ATOM     13  O   UNL     1       1.190  -1.887   0.008  0.00  0.00    -0.273 OA
ATOM     14  C   UNL     1       2.159   5.783  -0.562  0.00  0.00    +0.045 C 
ENDROOT
BRANCH  12  15
ATOM     15  C   UNL     1       2.473   0.093  -0.025  0.00  0.00    +0.166 C 
ATOM     16  C   UNL     1       2.674   0.738   1.362  0.00  0.00    +0.031 C 
ATOM     17  C   UNL     1       3.606  -0.272   2.083  0.00  0.00    +0.019 C 
ATOM     18  C   UNL     1       4.503  -0.756   0.917  0.00  0.00    +0.110 C 
ATOM     19  N   UNL     1       3.602  -0.822  -0.249  0.00  0.00    -0.165 NA
BRANCH  19  20
ATOM     20  S   UNL     1       3.825  -1.770  -1.588  0.00  0.00    +0.062 S 
ATOM     21  O   UNL     1       4.654  -2.851  -1.187  0.00  0.00    -0.153 OA
ATOM     22  O   UNL     1       2.542  -1.967  -2.165  0.00  0.00    -0.153 OA
BRANCH  20  23
ATOM     23  C   UNL     1       4.757  -0.824  -2.747  0.00  0.00    +0.106 A 
ATOM     24  C   UNL     1       4.107  -0.032  -3.675  0.00  0.00    +0.031 A 
ATOM     25  C   UNL     1       4.837   0.714  -4.580  0.00  0.00    +0.040 A 
ATOM     26  C   UNL     1       6.220   0.660  -4.565  0.00  0.00    +0.124 A 
ATOM     27  C   UNL     1       6.871  -0.138  -3.639  0.00  0.00    +0.040 A 
ATOM     28  C   UNL     1       6.139  -0.878  -2.731  0.00  0.00    +0.031 A 
ATOM     29  F   UNL     1       6.935   1.384  -5.454  0.00  0.00    -0.205 F 
ENDBRANCH  20  23
ENDBRANCH  19  20
ENDBRANCH  12  15
BRANCH  11  30
ATOM     30  C   UNL     1      -1.258  -0.757  -0.061  0.00  0.00    +0.097 C 
BRANCH  30  31
ATOM     31  C   UNL     1      -1.628  -1.278  -1.451  0.00  0.00    -0.060 C 
BRANCH  31  34
ATOM     32  C   UNL     1      -3.997  -1.334  -0.952  0.00  0.00    -0.097 C 
ATOM     33  C   UNL     1      -3.075  -2.831  -2.616  0.00  0.00    -0.097 C 
ATOM     34  N   UNL     1      -2.821  -2.144  -1.333  0.00  0.00    +0.377 N 
ATOM     35  H   UNL     1      -2.651  -2.848  -0.605  0.00  0.00    -0.083 HD
ENDBRANCH  31  34
ENDBRANCH  30  31
ENDBRANCH  11  30
TORSDOF 6
