REMARK  Name = ZINC07510762
REMARK  11 active torsions:
REMARK  status: ('A' for Active; 'I' for Inactive)
REMARK    1  A    between atoms: C_1  and  C_2
REMARK    2  A    between atoms: C_5  and  N_8
REMARK    3  A    between atoms: N_8  and  C_9
REMARK    4  A    between atoms: C_10  and  C_12
REMARK    5  A    between atoms: C_12  and  O_13
REMARK    6  A    between atoms: O_13  and  C_14
REMARK    7  A    between atoms: C_14  and  C_16
REMARK    8  A    between atoms: C_19  and  S_22
REMARK    9  A    between atoms: S_22  and  N_25
REMARK   10  A    between atoms: N_25  and  C_26
REMARK   11  A    between atoms: C_26  and  C_27
REMARK                            x       y       z     vdW  Elec       q    Type
REMARK                         _______ _______ _______ _____ _____    ______ ____
ROOT
ATOM      1  C   UNL     1      -3.902  -3.344   6.343  0.00  0.00    +0.340 C 
ATOM      2  O   UNL     1      -4.032  -2.196   6.718  0.00  0.00    -0.245 OA
ENDROOT
BRANCH   1   3
ATOM      3  C   UNL     1      -4.491  -4.449   7.127  0.00  0.00    +0.059 A 
ATOM      4  C   UNL     1      -4.338  -5.770   6.702  0.00  0.00    +0.017 A 
ATOM      5  C   UNL     1      -4.891  -6.797   7.438  0.00  0.00    +0.029 A 
ATOM      6  C   UNL     1      -5.596  -6.520   8.596  0.00  0.00    +0.105 A 
ATOM      7  C   UNL     1      -5.752  -5.213   9.023  0.00  0.00    +0.029 A 
ATOM      8  C   UNL     1      -5.199  -4.177   8.300  0.00  0.00    +0.017 A 
BRANCH   6   9
ATOM      9  S   UNL     1      -6.299  -7.838   9.531  0.00  0.00    +0.059 S 
ATOM     10  O   UNL     1      -7.372  -7.279  10.277  0.00  0.00    -0.153 OA
ATOM     11  O   UNL     1      -6.480  -8.922   8.632  0.00  0.00    -0.153 OA
BRANCH   9  12
ATOM     12  N   UNL     1      -5.159  -8.320  10.632  0.00  0.00    -0.186 NA
ATOM     13  H   UNL     1      -4.776  -9.209  10.575  0.00  0.00    +0.148 HD
BRANCH  12  14
ATOM     14  C   UNL     1      -4.729  -7.403  11.690  0.00  0.00    +0.132 C 
BRANCH  14  15
ATOM     15  C   UNL     1      -3.989  -8.174  12.752  0.00  0.00    -0.018 C 
ATOM     16  C   UNL     1      -2.778  -7.814  13.100  0.00  0.00    +0.005 C 
ENDBRANCH  14  15
ENDBRANCH  12  14
ENDBRANCH   9  12
ENDBRANCH   6   9
ENDBRANCH   1   3
BRANCH   1  17
ATOM     17  O   UNL     1      -3.220  -3.610   5.212  0.00  0.00    -0.452 OA
BRANCH  17  18
ATOM     18  C   UNL     1      -2.677  -2.493   4.504  0.00  0.00    +0.328 C 
BRANCH  18  21
ATOM     19  N   UNL     1      -1.358  -2.098   2.449  0.00  0.00    -0.299 N 
ATOM     20  C   UNL     1      -1.414  -0.664   2.746  0.00  0.00    +0.132 C 
ATOM     21  C   UNL     1      -1.954  -2.981   3.275  0.00  0.00    +0.253 C 
ATOM     22  O   UNL     1      -1.908  -4.167   3.030  0.00  0.00    -0.272 OA
BRANCH  19  27
ATOM     23  C   UNL     1      -3.358  -0.292  -1.240  0.00  0.00    +0.007 C 
ATOM     24  C   UNL     1      -2.213  -1.217  -0.825  0.00  0.00    -0.014 C 
ATOM     25  C   UNL     1      -2.776  -2.414  -0.056  0.00  0.00    +0.005 C 
ATOM     26  C   UNL     1      -1.631  -3.339   0.359  0.00  0.00    +0.023 C 
ATOM     27  C   UNL     1      -0.655  -2.572   1.255  0.00  0.00    +0.076 C 
ATOM     28  C   UNL     1      -0.091  -1.375   0.486  0.00  0.00    +0.023 C 
ATOM     29  C   UNL     1      -1.237  -0.450   0.070  0.00  0.00    +0.005 C 
ENDBRANCH  19  27
ENDBRANCH  18  21
ENDBRANCH  17  18
ENDBRANCH   1  17
TORSDOF 9
