REMARK  Name = ZINC63637766
REMARK  4 active torsions:
REMARK  status: ('A' for Active; 'I' for Inactive)
REMARK    1  A    between atoms: C_4  and  C_7
REMARK    2  A    between atoms: C_7  and  O_8
REMARK    3  A    between atoms: O_8  and  C_9
REMARK    4  A    between atoms: C_12  and  C_15
REMARK                            x       y       z     vdW  Elec       q    Type
REMARK                         _______ _______ _______ _____ _____    ______ ____
ROOT
ATOM      1  C   UNL     1       9.022  -3.675   1.977  0.00  0.00    +0.073 C 
ATOM      2  C   UNL     1       8.783  -4.974   2.761  0.00  0.00    +0.148 C 
ATOM      3  C   UNL     1      10.101  -5.470   3.301  0.00  0.00    +0.106 C 
ATOM      4  N   UNL     1      10.573  -6.644   3.009  0.00  0.00    -0.151 NA
ATOM      5  C   UNL     1       9.933  -7.499   2.200  0.00  0.00    +0.331 C 
ATOM      6  O   UNL     1      10.427  -8.589   1.978  0.00  0.00    -0.250 OA
ATOM      7  N   UNL     1       8.759  -7.184   1.630  0.00  0.00    -0.238 N 
ATOM      8  C   UNL     1       8.175  -6.004   1.854  0.00  0.00    +0.231 C 
ATOM      9  O   UNL     1       7.118  -5.764   1.310  0.00  0.00    -0.275 OA
ATOM     10  N   UNL     1      10.812  -4.626   4.123  0.00  0.00    -0.303 N 
ATOM     11  C   UNL     1      10.800  -3.291   3.751  0.00  0.00    +0.047 C 
ATOM     12  C   UNL     1       9.984  -2.811   2.758  0.00  0.00    +0.030 C 
ATOM     13  C   UNL     1      10.191  -1.417   2.602  0.00  0.00    +0.192 C 
ATOM     14  O   UNL     1       9.620  -0.690   1.812  0.00  0.00    -0.287 OA
ATOM     15  C   UNL     1      11.227  -1.010   3.575  0.00  0.00    +0.031 A 
ATOM     16  C   UNL     1      11.597  -2.185   4.294  0.00  0.00    +0.007 A 
ATOM     17  C   UNL     1      12.557  -2.139   5.292  0.00  0.00    +0.010 A 
ATOM     18  C   UNL     1      13.132  -0.894   5.561  0.00  0.00    +0.001 A 
ATOM     19  C   UNL     1      12.768   0.239   4.874  0.00  0.00    +0.001 A 
ATOM     20  C   UNL     1      11.805   0.215   3.846  0.00  0.00    +0.012 A 
ATOM     21  H   UNL     1       8.330  -7.825   1.041  0.00  0.00    +0.159 HD
ATOM     22  H   UNL     1      11.288  -4.943   4.907  0.00  0.00    +0.153 HD
ENDROOT
BRANCH   1  26
ATOM     23  C   UNL     1       5.319  -1.605   1.466  0.00  0.00    +0.121 A 
ATOM     24  C   UNL     1       6.048  -2.007   0.357  0.00  0.00    +0.046 A 
ATOM     25  C   UNL     1       7.245  -2.676   0.525  0.00  0.00    +0.008 A 
ATOM     26  C   UNL     1       7.716  -2.945   1.797  0.00  0.00    -0.038 A 
ATOM     27  C   UNL     1       6.990  -2.545   2.904  0.00  0.00    +0.008 A 
ATOM     28  C   UNL     1       5.796  -1.871   2.742  0.00  0.00    +0.046 A 
BRANCH  23  29
ATOM     29  O   UNL     1       4.141  -0.946   1.304  0.00  0.00    -0.487 OA
BRANCH  29  30
ATOM     30  C   UNL     1       3.711  -0.707  -0.038  0.00  0.00    +0.264 C 
BRANCH  30  34
ATOM     31  C   UNL     1      -0.017   1.378   0.010  0.00  0.00    +0.000 A 
ATOM     32  C   UNL     1       1.171   2.086   0.002  0.00  0.00    +0.000 A 
ATOM     33  C   UNL     1       2.377   1.411  -0.013  0.00  0.00    +0.007 A 
ATOM     34  C   UNL     1       2.396   0.029  -0.020  0.00  0.00    -0.010 A 
ATOM     35  C   UNL     1       1.208  -0.679  -0.012  0.00  0.00    +0.007 A 
ATOM     36  C   UNL     1       0.002  -0.004   0.002  0.00  0.00    +0.000 A 
ENDBRANCH  30  34
ENDBRANCH  29  30
ENDBRANCH  23  29
ENDBRANCH   1  26
TORSDOF 4
