REMARK  Name = ZINC00665429
REMARK  15 active torsions:
REMARK  status: ('A' for Active; 'I' for Inactive)
REMARK    1  A    between atoms: C_1  and  C_2
REMARK    2  A    between atoms: C_2  and  N_3
REMARK    3  A    between atoms: N_3  and  C_4
REMARK    4  A    between atoms: N_3  and  C_6
REMARK    5  A    between atoms: C_4  and  C_5
REMARK    6  A    between atoms: C_9  and  C_13
REMARK    7  A    between atoms: C_10  and  O_12
REMARK    8  A    between atoms: C_20  and  C_37
REMARK    9  A    between atoms: C_21  and  C_32
REMARK   10  A    between atoms: C_22  and  C_24
REMARK   11  A    between atoms: C_29  and  O_30
REMARK   12  A    between atoms: O_30  and  C_31
REMARK   13  A    between atoms: C_32  and  O_34
REMARK   14  A    between atoms: O_34  and  C_35
REMARK   15  A    between atoms: C_35  and  C_36
REMARK                            x       y       z     vdW  Elec       q    Type
REMARK                         _______ _______ _______ _____ _____    ______ ____
ROOT
ATOM      1  C   UNL     1      -3.110  -0.289   8.394  0.00  0.00    +0.032 C 
ATOM      2  C   UNL     1      -3.186   0.756   7.526  0.00  0.00    +0.081 A 
ATOM      3  C   UNL     1      -3.045   0.768   6.066  0.00  0.00    +0.268 A 
ATOM      4  O   UNL     1      -2.827  -0.259   5.450  0.00  0.00    -0.266 OA
ATOM      5  N   UNL     1      -3.163   1.941   5.431  0.00  0.00    -0.275 N 
ATOM      6  C   UNL     1      -3.410   3.072   6.175  0.00  0.00    +0.178 A 
ATOM      7  N   UNL     1      -3.544   4.270   5.664  0.00  0.00    -0.228 NA
ATOM      8  C   UNL     1      -3.461   4.556   4.371  0.00  0.00    +0.053 C 
ATOM      9  C   UNL     1      -3.219   3.570   3.456  0.00  0.00    +0.085 C 
ATOM     10  C   UNL     1      -3.052   2.155   3.961  0.00  0.00    +0.165 C 
ATOM     11  C   UNL     1      -3.634   5.980   3.908  0.00  0.00    +0.066 C 
ATOM     12  S   UNL     1      -3.485   2.486   7.856  0.00  0.00    -0.046 S 
ENDROOT
BRANCH   1  16
ATOM     13  C   UNL     1      -1.892  -4.103   7.008  0.00  0.00    +0.033 A 
ATOM     14  C   UNL     1      -1.228  -2.955   6.577  0.00  0.00    +0.024 A 
ATOM     15  C   UNL     1      -1.621  -1.724   7.018  0.00  0.00    +0.013 A 
ATOM     16  C   UNL     1      -2.690  -1.608   7.916  0.00  0.00    +0.018 A 
ATOM     17  C   UNL     1      -3.362  -2.765   8.353  0.00  0.00    +0.126 A 
ATOM     18  C   UNL     1      -2.958  -4.005   7.894  0.00  0.00    +0.069 A 
BRANCH  17  19
ATOM     19  O   UNL     1      -4.403  -2.663   9.218  0.00  0.00    -0.506 OA
ATOM     20  H   UNL     1      -4.926  -3.569   9.557  0.00  0.00    +0.292 HD
ENDBRANCH  17  19
BRANCH  13  21
ATOM     21  N   UNL     1      -1.485  -5.351   6.548  0.00  0.00    -0.330 N 
BRANCH  21  23
ATOM     22  C   UNL     1       0.942  -5.607   6.398  0.00  0.00    +0.024 C 
ATOM     23  C   UNL     1      -0.362  -5.458   5.613  0.00  0.00    +0.102 C 
ENDBRANCH  21  23
BRANCH  21  24
ATOM     24  C   UNL     1      -2.180  -6.560   6.998  0.00  0.00    +0.102 C 
ATOM     25  C   UNL     1      -3.336  -6.869   6.045  0.00  0.00    +0.024 C 
ENDBRANCH  21  24
ENDBRANCH  13  21
ENDBRANCH   1  16
BRANCH  10  26
ATOM     26  C   UNL     1      -4.090   1.296   3.287  0.00  0.00    +0.022 A 
ATOM     27  C   UNL     1      -3.724   0.441   2.265  0.00  0.00    +0.009 A 
ATOM     28  C   UNL     1      -4.676  -0.347   1.647  0.00  0.00    +0.001 A 
ATOM     29  C   UNL     1      -5.997  -0.283   2.049  0.00  0.00    +0.004 A 
ATOM     30  C   UNL     1      -6.368   0.566   3.074  0.00  0.00    +0.046 A 
ATOM     31  C   UNL     1      -5.415   1.363   3.692  0.00  0.00    +0.126 A 
BRANCH  31  32
ATOM     32  O   UNL     1      -5.779   2.203   4.697  0.00  0.00    -0.495 OA
ATOM     33  C   UNL     1      -7.135   2.135   5.140  0.00  0.00    +0.277 C 
ENDBRANCH  31  32
ENDBRANCH  10  26
BRANCH   9  34
ATOM     34  C   UNL     1      -3.129   3.863   2.085  0.00  0.00    +0.339 C 
ATOM     35  O   UNL     1      -3.394   4.982   1.683  0.00  0.00    -0.245 OA
BRANCH  34  36
ATOM     36  O   UNL     1      -2.748   2.904   1.213  0.00  0.00    -0.462 OA
BRANCH  36  37
ATOM     37  C   UNL     1      -2.570   3.300  -0.148  0.00  0.00    +0.229 C 
ATOM     38  C   UNL     1      -2.261   2.067  -1.001  0.00  0.00    +0.048 C 
ENDBRANCH  36  37
ENDBRANCH  34  36
ENDBRANCH   9  34
TORSDOF 10
