REMARK  Name = ZINC39314788
REMARK  3 active torsions:
REMARK  status: ('A' for Active; 'I' for Inactive)
REMARK    1  A    between atoms: C_3  and  C_9
REMARK    2  A    between atoms: C_9  and  N_10
REMARK    3  A    between atoms: C_18  and  C_20
REMARK                            x       y       z     vdW  Elec       q    Type
REMARK                         _______ _______ _______ _____ _____    ______ ____
ROOT
ATOM      1  N   UNL     1       4.327   1.997   1.196  0.00  0.00    -0.302 N 
ATOM      2  C   UNL     1       4.030   2.817   2.295  0.00  0.00    +0.054 A 
ATOM      3  C   UNL     1       3.205   3.932   2.392  0.00  0.00    +0.046 A 
ATOM      4  C   UNL     1       3.066   4.590   3.599  0.00  0.00    +0.061 A 
ATOM      5  C   UNL     1       3.749   4.141   4.717  0.00  0.00    +0.061 A 
ATOM      6  C   UNL     1       4.572   3.033   4.628  0.00  0.00    +0.046 A 
ATOM      7  C   UNL     1       4.717   2.366   3.418  0.00  0.00    +0.052 A 
ATOM      8  N   UNL     1       5.481   1.239   3.086  0.00  0.00    -0.321 N 
ATOM      9  C   UNL     1       5.255   0.961   1.662  0.00  0.00    +0.191 C 
ATOM     10 CL   UNL     1       3.572   4.971   6.232  0.00  0.00    -0.082 Cl
ATOM     11 CL   UNL     1       2.035   5.981   3.715  0.00  0.00    -0.082 Cl
ATOM     12  H   UNL     1       6.051   0.734   3.687  0.00  0.00    +0.148 HD
ENDROOT
BRANCH   9  13
ATOM     13  C   UNL     1       4.642  -0.404   1.487  0.00  0.00    +0.003 C 
ATOM     14  C   UNL     1       5.263  -1.314   0.720  0.00  0.00    -0.009 C 
ATOM     15  C   UNL     1       4.603  -2.671   0.577  0.00  0.00    +0.125 C 
ATOM     16  C   UNL     1       3.297  -2.873   1.318  0.00  0.00    +0.240 C 
ATOM     17  O   UNL     1       2.703  -3.930   1.257  0.00  0.00    -0.273 OA
ATOM     18  N   UNL     1       2.815  -1.855   2.042  0.00  0.00    -0.188 NA
ATOM     19  C   UNL     1       3.429  -0.707   2.135  0.00  0.00    +0.107 C 
ENDBRANCH   9  13
BRANCH   1  20
ATOM     20  C   UNL     1       3.802   2.145  -0.164  0.00  0.00    +0.143 C 
BRANCH  20  23
ATOM     21  C   UNL     1       6.634   2.767  -2.582  0.00  0.00    +0.020 A 
ATOM     22  C   UNL     1       5.701   2.119  -1.794  0.00  0.00    +0.008 A 
ATOM     23  C   UNL     1       4.820   2.852  -1.021  0.00  0.00    -0.012 A 
ATOM     24  C   UNL     1       4.872   4.234  -1.035  0.00  0.00    +0.047 A 
ATOM     25  C   UNL     1       5.806   4.883  -1.822  0.00  0.00    +0.040 A 
ATOM     26  C   UNL     1       6.687   4.149  -2.596  0.00  0.00    +0.042 A 
ATOM     27 CL   UNL     1       7.860   4.963  -3.584  0.00  0.00    -0.083 Cl
ATOM     28 CL   UNL     1       3.766   5.155  -0.064  0.00  0.00    -0.083 Cl
ENDBRANCH  20  23
ENDBRANCH   1  20
TORSDOF 3
