REMARK  Name = ZINC64137359
REMARK  9 active torsions:
REMARK  status: ('A' for Active; 'I' for Inactive)
REMARK    1  A    between atoms: C_1  and  C_2
REMARK    2  A    between atoms: C_7  and  C_8
REMARK    3  A    between atoms: C_8  and  N_9
REMARK    4  A    between atoms: C_11  and  N_20
REMARK    5  A    between atoms: C_14  and  C_16
REMARK    6  A    between atoms: C_16  and  O_18
REMARK    7  A    between atoms: O_18  and  C_19
REMARK    8  A    between atoms: C_21  and  C_23
REMARK    9  A    between atoms: C_25  and  C_34
REMARK                            x       y       z     vdW  Elec       q    Type
REMARK                         _______ _______ _______ _____ _____    ______ ____
ROOT
ATOM      1  N   UNL     1      -3.790  -1.405   4.794  0.00  0.00    -0.309 N 
ATOM      2  C   UNL     1      -4.931  -1.988   4.377  0.00  0.00    +0.240 C 
ATOM      3  O   UNL     1      -5.464  -1.616   3.353  0.00  0.00    -0.273 OA
ATOM      4  H   UNL     1      -3.322  -1.753   5.569  0.00  0.00    +0.149 HD
ENDROOT
BRANCH   2   5
ATOM      5  C   UNL     1      -5.546  -3.103   5.184  0.00  0.00    +0.198 C 
ATOM      6  C   UNL     1      -6.348  -2.533   6.333  0.00  0.00    -0.000 C 
ATOM      7  C   UNL     1      -7.649  -2.961   6.130  0.00  0.00    +0.006 A 
ATOM      8  C   UNL     1      -8.847  -2.757   6.858  0.00  0.00    +0.030 A 
ATOM      9  C   UNL     1     -10.003  -3.309   6.415  0.00  0.00    +0.042 A 
ATOM     10  C   UNL     1     -10.049  -4.083   5.248  0.00  0.00    +0.022 A 
ATOM     11  C   UNL     1      -8.944  -4.319   4.503  0.00  0.00    +0.027 A 
ATOM     12  C   UNL     1      -7.693  -3.775   4.901  0.00  0.00    +0.044 A 
ATOM     13  N   UNL     1      -6.496  -3.857   4.361  0.00  0.00    -0.370 N 
ATOM     14 CL   UNL     1     -11.464  -3.051   7.317  0.00  0.00    -0.084 Cl
ATOM     15  H   UNL     1      -6.277  -4.340   3.548  0.00  0.00    +0.161 HD
BRANCH   6  16
ATOM     16  C   UNL     1      -5.851  -1.702   7.432  0.00  0.00    -0.019 A 
ATOM     17  C   UNL     1      -6.715  -0.819   8.095  0.00  0.00    +0.008 A 
ATOM     18  C   UNL     1      -6.239  -0.041   9.128  0.00  0.00    +0.001 A 
ATOM     19  C   UNL     1      -4.911  -0.131   9.512  0.00  0.00    +0.000 A 
ATOM     20  C   UNL     1      -4.051  -1.000   8.864  0.00  0.00    +0.001 A 
ATOM     21  C   UNL     1      -4.510  -1.790   7.832  0.00  0.00    +0.008 A 
ENDBRANCH   6  16
ENDBRANCH   2   5
BRANCH   1  24
ATOM     22  N   UNL     1      -1.446   0.451   2.665  0.00  0.00    -0.284 NA
ATOM     23  C   UNL     1      -2.361  -0.687   2.893  0.00  0.00    +0.107 C 
ATOM     24  C   UNL     1      -3.257  -0.244   4.077  0.00  0.00    +0.089 C 
ATOM     25  C   UNL     1      -2.247   0.539   4.957  0.00  0.00    +0.054 C 
ATOM     26  C   UNL     1      -1.336   1.223   3.917  0.00  0.00    +0.168 C 
BRANCH  26  27
ATOM     27  C   UNL     1       0.091   1.214   4.401  0.00  0.00    +0.324 C 
ATOM     28  O   UNL     1       0.665   0.164   4.570  0.00  0.00    -0.249 OA
BRANCH  27  29
ATOM     29  O   UNL     1       0.725   2.372   4.644  0.00  0.00    -0.467 OA
ATOM     30  C   UNL     1       2.076   2.289   5.100  0.00  0.00    +0.280 C 
ENDBRANCH  27  29
ENDBRANCH  26  27
BRANCH  22  31
ATOM     31  C   UNL     1      -0.127  -0.016   2.217  0.00  0.00    +0.120 C 
BRANCH  31  38
ATOM     32  C   UNL     1      -0.049   1.982   0.131  0.00  0.00    +0.044 C 
ATOM     33  C   UNL     1      -0.169   0.523  -0.227  0.00  0.00    -0.046 A 
ATOM     34  C   UNL     1      -0.237   0.140  -1.554  0.00  0.00    +0.003 A 
ATOM     35  C   UNL     1      -0.347  -1.198  -1.882  0.00  0.00    +0.000 A 
ATOM     36  C   UNL     1      -0.389  -2.154  -0.884  0.00  0.00    +0.000 A 
ATOM     37  C   UNL     1      -0.321  -1.771   0.443  0.00  0.00    +0.005 A 
ATOM     38  C   UNL     1      -0.207  -0.433   0.771  0.00  0.00    -0.030 A 
ENDBRANCH  31  38
ENDBRANCH  22  31
ENDBRANCH   1  24
TORSDOF 7
