REMARK  Name = ZINC24200991
REMARK  7 active torsions:
REMARK  status: ('A' for Active; 'I' for Inactive)
REMARK    1  A    between atoms: C_1  and  C_2
REMARK    2  A    between atoms: N_12  and  C_13
REMARK    3  A    between atoms: C_16  and  C_19
REMARK    4  A    between atoms: C_19  and  O_21
REMARK    5  A    between atoms: O_21  and  C_22
REMARK    6  A    between atoms: C_22  and  C_24
REMARK    7  A    between atoms: C_22  and  C_25
REMARK                            x       y       z     vdW  Elec       q    Type
REMARK                         _______ _______ _______ _____ _____    ______ ____
ROOT
ATOM      1  C   UNL     1      -0.074  -0.085   2.475  0.00  0.00    +0.051 A 
ATOM      2  C   UNL     1      -0.284   1.289   2.526  0.00  0.00    +0.027 A 
ATOM      3  C   UNL     1      -0.332   1.936   3.740  0.00  0.00    +0.017 A 
ATOM      4  C   UNL     1      -0.168   1.210   4.924  0.00  0.00    +0.059 A 
ATOM      5  C   UNL     1       0.043  -0.170   4.869  0.00  0.00    +0.017 A 
ATOM      6  C   UNL     1       0.085  -0.811   3.651  0.00  0.00    +0.027 A 
ENDROOT
BRANCH   1  18
ATOM      7  C   UNL     1       2.414  -0.405   1.298  0.00  0.00    +0.086 C 
ATOM      8  C   UNL     1       1.171  -0.920   0.621  0.00  0.00    +0.114 A 
ATOM      9  N   UNL     1       1.297  -1.521  -0.523  0.00  0.00    -0.233 NA
ATOM     10  C   UNL     1       0.222  -2.011  -1.191  0.00  0.00    +0.078 A 
ATOM     11  C   UNL     1       0.357  -2.658  -2.421  0.00  0.00    +0.028 A 
ATOM     12  C   UNL     1      -0.760  -3.140  -3.064  0.00  0.00    +0.002 A 
ATOM     13  C   UNL     1      -2.023  -2.992  -2.505  0.00  0.00    +0.001 A 
ATOM     14  C   UNL     1      -2.182  -2.358  -1.292  0.00  0.00    +0.015 A 
ATOM     15  C   UNL     1      -1.063  -1.863  -0.625  0.00  0.00    +0.065 A 
ATOM     16  C   UNL     1      -1.172  -1.178   0.672  0.00  0.00    +0.266 A 
ATOM     17  O   UNL     1      -2.250  -1.018   1.214  0.00  0.00    -0.267 OA
ATOM     18  N   UNL     1      -0.026  -0.737   1.242  0.00  0.00    -0.265 N 
ENDBRANCH   1  18
BRANCH   4  19
ATOM     19  C   UNL     1      -0.218   1.900   6.227  0.00  0.00    +0.340 C 
ATOM     20  O   UNL     1      -0.402   3.100   6.272  0.00  0.00    -0.245 OA
BRANCH  19  21
ATOM     21  O   UNL     1      -0.060   1.199   7.367  0.00  0.00    -0.450 OA
BRANCH  21  22
ATOM     22  C   UNL     1      -0.120   1.931   8.592  0.00  0.00    +0.239 C 
ATOM     23  C   UNL     1      -1.565   1.972   9.092  0.00  0.00    +0.060 C 
BRANCH  22  24
ATOM     24  C   UNL     1       0.749   1.257   9.623  0.00  0.00    +0.151 A 
ATOM     25  N   UNL     1       2.096   1.397   9.521  0.00  0.00    -0.307 N 
ATOM     26  H   UNL     1       2.471   1.921   8.796  0.00  0.00    +0.170 HD
ATOM     27  C   UNL     1       2.920   0.812  10.422  0.00  0.00    +0.259 A 
ATOM     28  O   UNL     1       4.129   0.930  10.343  0.00  0.00    -0.267 OA
ATOM     29  C   UNL     1       2.297   0.029  11.499  0.00  0.00    +0.065 A 
ATOM     30  C   UNL     1       3.055  -0.614  12.476  0.00  0.00    +0.015 A 
ATOM     31  C   UNL     1       2.420  -1.335  13.463  0.00  0.00    +0.001 A 
ATOM     32  C   UNL     1       1.034  -1.426  13.491  0.00  0.00    +0.002 A 
ATOM     33  C   UNL     1       0.267  -0.799  12.535  0.00  0.00    +0.028 A 
ATOM     34  C   UNL     1       0.888  -0.062  11.524  0.00  0.00    +0.078 A 
ATOM     35  N   UNL     1       0.171   0.576  10.566  0.00  0.00    -0.230 NA
ENDBRANCH  22  24
ENDBRANCH  21  22
ENDBRANCH  19  21
ENDBRANCH   4  19
TORSDOF 5
