REMARK  Name = ZINC08316623
REMARK  4 active torsions:
REMARK  status: ('A' for Active; 'I' for Inactive)
REMARK    1  A    between atoms: C_1  and  C_2
REMARK    2  A    between atoms: C_6  and  C_13
REMARK    3  A    between atoms: N_19  and  C_20
REMARK    4  A    between atoms: C_20  and  C_21
REMARK                            x       y       z     vdW  Elec       q    Type
REMARK                         _______ _______ _______ _____ _____    ______ ____
ROOT
ATOM      1  C   UNL     1       1.188  -0.856  -4.915  0.00  0.00    +0.079 C 
ATOM      2  N   UNL     1       0.177  -0.174  -5.329  0.00  0.00    -0.176 NA
ATOM      3  N   UNL     1      -0.213   0.045  -6.515  0.00  0.00    -0.259 N 
ATOM      4  C   UNL     1       0.126  -0.669  -7.569  0.00  0.00    +0.149 C 
ATOM      5  S   UNL     1       1.204  -2.054  -7.327  0.00  0.00    -0.085 S 
ATOM      6  C   UNL     1       2.159  -1.520  -5.865  0.00  0.00    +0.134 C 
ATOM      7  N   UNL     1      -0.343  -0.349  -8.819  0.00  0.00    -0.320 N 
ATOM      8  H   UNL     1      -0.933   0.412  -8.936  0.00  0.00    +0.148 HD
ATOM      9  H   UNL     1      -0.809   0.797  -6.658  0.00  0.00    +0.191 HD
ENDROOT
BRANCH   1  14
ATOM     10  C   UNL     1      -0.019   1.526   0.010  0.00  0.00    +0.022 C 
ATOM     11  C   UNL     1       0.002  -0.004   0.002  0.00  0.00    +0.104 C 
ATOM     12  C   UNL     1       0.746  -0.517  -1.210  0.00  0.00    -0.014 A 
ATOM     13  C   UNL     1       0.530  -0.386  -2.560  0.00  0.00    +0.016 A 
ATOM     14  C   UNL     1       1.410  -0.989  -3.466  0.00  0.00    -0.001 A 
ATOM     15  C   UNL     1       2.502  -1.719  -2.984  0.00  0.00    +0.011 A 
ATOM     16  C   UNL     1       2.708  -1.843  -1.630  0.00  0.00    +0.024 A 
ATOM     17  C   UNL     1       1.830  -1.242  -0.725  0.00  0.00    +0.037 A 
ATOM     18  N   UNL     1       1.833  -1.229   0.669  0.00  0.00    -0.285 N 
ATOM     19  C   UNL     1       0.799  -0.530   1.177  0.00  0.00    +0.224 C 
ATOM     20  O   UNL     1       0.552  -0.354   2.351  0.00  0.00    -0.275 OA
ATOM     21  H   UNL     1       2.502  -1.673   1.213  0.00  0.00    +0.155 HD
ENDBRANCH   1  14
BRANCH   7  22
ATOM     22  C   UNL     1       0.048  -1.157  -9.977  0.00  0.00    +0.138 C 
BRANCH  22  23
ATOM     23  C   UNL     1      -0.597  -0.600 -11.219  0.00  0.00    -0.027 A 
ATOM     24  C   UNL     1      -1.844  -1.050 -11.610  0.00  0.00    +0.009 A 
ATOM     25  C   UNL     1      -2.441  -0.541 -12.749  0.00  0.00    +0.050 A 
ATOM     26  C   UNL     1      -1.788   0.422 -13.502  0.00  0.00    +0.166 A 
ATOM     27  C   UNL     1      -0.531   0.875 -13.108  0.00  0.00    +0.167 A 
ATOM     28  C   UNL     1       0.057   0.365 -11.963  0.00  0.00    +0.054 A 
ATOM     29  O   UNL     1      -0.105   1.812 -14.005  0.00  0.00    -0.453 OA
ATOM     30  C   UNL     1      -0.929   1.631 -15.171  0.00  0.00    +0.466 C 
ATOM     31  O   UNL     1      -2.149   1.075 -14.645  0.00  0.00    -0.453 OA
ENDBRANCH  22  23
ENDBRANCH   7  22
TORSDOF 3
