REMARK  Name = ZINC16492453
REMARK  4 active torsions:
REMARK  status: ('A' for Active; 'I' for Inactive)
REMARK    1  A    between atoms: C_4  and  C_7
REMARK    2  A    between atoms: N_17  and  N_18
REMARK    3  A    between atoms: C_19  and  C_20
REMARK    4  A    between atoms: C_29  and  O_30
REMARK                            x       y       z     vdW  Elec       q    Type
REMARK                         _______ _______ _______ _____ _____    ______ ____
ROOT
ATOM      1  C   UNL     1       3.697  -0.686  -0.037  0.00  0.00    +0.084 A 
ATOM      2  C   UNL     1       3.885  -1.862   0.733  0.00  0.00    +0.028 A 
ATOM      3  C   UNL     1       2.870  -2.394   1.535  0.00  0.00    +0.027 A 
ATOM      4  C   UNL     1       3.107  -3.529   2.255  0.00  0.00    +0.019 A 
ATOM      5  C   UNL     1       4.346  -4.164   2.201  0.00  0.00    +0.017 A 
ATOM      6  C   UNL     1       5.355  -3.672   1.429  0.00  0.00    +0.029 A 
ATOM      7  C   UNL     1       5.146  -2.507   0.676  0.00  0.00    +0.077 A 
ATOM      8  N   UNL     1       6.105  -1.983  -0.099  0.00  0.00    -0.213 NA
ATOM      9  C   UNL     1       5.876  -0.885  -0.795  0.00  0.00    +0.236 A 
ATOM     10  N   UNL     1       4.707  -0.251  -0.776  0.00  0.00    -0.213 NA
ATOM     11  N   UNL     1       6.894  -0.377  -1.583  0.00  0.00    -0.205 N 
ATOM     12 BR   UNL     1       1.736  -4.248   3.341  0.00  0.00    -0.050 Br
ATOM     13  H   UNL     1       6.748   0.429  -2.103  0.00  0.00    +0.177 HD
ENDROOT
BRANCH   1  17
ATOM     14  C   UNL     1      -0.016   1.380   0.011  0.00  0.00    +0.000 A 
ATOM     15  C   UNL     1       0.537   0.930   1.196  0.00  0.00    +0.001 A 
ATOM     16  C   UNL     1       1.742   0.259   1.187  0.00  0.00    +0.010 A 
ATOM     17  C   UNL     1       2.403   0.034  -0.021  0.00  0.00    +0.001 A 
ATOM     18  C   UNL     1       1.840   0.490  -1.213  0.00  0.00    +0.010 A 
ATOM     19  C   UNL     1       0.634   1.160  -1.190  0.00  0.00    +0.001 A 
ENDBRANCH   1  17
BRANCH  11  20
ATOM     20  N   UNL     1       8.135  -1.025  -1.628  0.00  0.00    -0.187 NA
ATOM     21  C   UNL     1       9.091  -0.546  -2.368  0.00  0.00    +0.142 C 
BRANCH  21  22
ATOM     22  C   UNL     1      10.393  -1.226  -2.416  0.00  0.00    +0.044 A 
ATOM     23  C   UNL     1      11.481  -0.699  -3.238  0.00  0.00    -0.006 A 
ATOM     24  C   UNL     1      11.322   0.463  -4.002  0.00  0.00    +0.009 A 
ATOM     25  C   UNL     1      12.362   0.922  -4.755  0.00  0.00    +0.001 A 
ATOM     26  C   UNL     1      13.582   0.250  -4.775  0.00  0.00    +0.001 A 
ATOM     27  C   UNL     1      13.770  -0.883  -4.043  0.00  0.00    +0.008 A 
ATOM     28  C   UNL     1      12.720  -1.385  -3.255  0.00  0.00    -0.017 A 
ATOM     29  C   UNL     1      12.877  -2.552  -2.487  0.00  0.00    +0.012 A 
ATOM     30  C   UNL     1      11.855  -3.029  -1.729  0.00  0.00    +0.046 A 
ATOM     31  C   UNL     1      10.619  -2.385  -1.674  0.00  0.00    +0.126 A 
BRANCH  31  32
ATOM     32  O   UNL     1       9.628  -2.894  -0.898  0.00  0.00    -0.506 OA
ATOM     33  H   UNL     1       9.060  -3.531  -1.353  0.00  0.00    +0.292 HD
ENDBRANCH  31  32
ENDBRANCH  21  22
ENDBRANCH  11  20
TORSDOF 4
