REMARK  Name = ZINC67440073
REMARK  6 active torsions:
REMARK  status: ('A' for Active; 'I' for Inactive)
REMARK    1  A    between atoms: C_1  and  C_2
REMARK    2  A    between atoms: N_5  and  C_22
REMARK    3  A    between atoms: C_9  and  C_11
REMARK    4  A    between atoms: C_11  and  C_13
REMARK    5  A    between atoms: C_11  and  N_14
REMARK    6  A    between atoms: C_15  and  C_17
REMARK                            x       y       z     vdW  Elec       q    Type
REMARK                         _______ _______ _______ _____ _____    ______ ____
ROOT
ATOM      1  C   UNL     1       2.445  -0.179   2.958  0.00  0.00    +0.156 C 
ATOM      2  C   UNL     1       3.557  -1.017   2.325  0.00  0.00    +0.038 C 
ENDROOT
BRANCH   1  10
ATOM      3  C   UNL     1      -0.202   1.222   0.009  0.00  0.00    +0.029 C 
ATOM      4  C   UNL     1      -0.350  -0.267   0.328  0.00  0.00    +0.087 C 
ATOM      5  C   UNL     1      -1.794  -0.562   0.748  0.00  0.00    +0.106 C 
ATOM      6  N   UNL     1      -1.893  -1.956   1.200  0.00  0.00    -0.302 NA
ATOM      7  C   UNL     1      -1.066  -2.191   2.391  0.00  0.00    +0.103 C 
ATOM      8  C   UNL     1       0.408  -1.963   2.038  0.00  0.00    +0.123 C 
ATOM      9  N   UNL     1       0.547  -0.627   1.437  0.00  0.00    -0.295 N 
ATOM     10  C   UNL     1       1.467   0.246   1.893  0.00  0.00    +0.236 C 
ATOM     11  O   UNL     1       1.508   1.373   1.447  0.00  0.00    -0.274 OA
ATOM     12  C   UNL     1      -3.292  -2.331   1.449  0.00  0.00    +0.105 C 
ENDBRANCH   1  10
BRANCH   1  13
ATOM     13  N   UNL     1       3.027   1.009   3.588  0.00  0.00    -0.304 N 
ATOM     14  C   UNL     1       3.511   0.937   4.844  0.00  0.00    +0.217 C 
ATOM     15  O   UNL     1       3.465  -0.111   5.452  0.00  0.00    -0.275 OA
ATOM     16  H   UNL     1       3.064   1.847   3.101  0.00  0.00    +0.149 HD
BRANCH  14  17
ATOM     17  C   UNL     1       4.110   2.159   5.492  0.00  0.00    +0.075 C 
ATOM     18  C   UNL     1       5.356   2.616   4.706  0.00  0.00    +0.013 C 
ATOM     19  C   UNL     1       6.338   3.103   5.801  0.00  0.00    +0.001 C 
ATOM     20  C   UNL     1       6.107   2.083   6.944  0.00  0.00    +0.001 C 
ATOM     21  C   UNL     1       4.587   1.820   6.915  0.00  0.00    +0.013 C 
ENDBRANCH  14  17
ENDBRANCH   1  13
TORSDOF 3
