REMARK  Name = ZINC40826773
REMARK  8 active torsions:
REMARK  status: ('A' for Active; 'I' for Inactive)
REMARK    1  A    between atoms: C_1  and  C_2
REMARK    2  A    between atoms: C_6  and  C_12
REMARK    3  A    between atoms: C_10  and  C_11
REMARK    4  A    between atoms: C_12  and  C_13
REMARK    5  A    between atoms: N_15  and  N_16
REMARK    6  A    between atoms: C_23  and  C_37
REMARK    7  A    between atoms: C_24  and  C_26
REMARK    8  A    between atoms: N_28  and  C_29
REMARK                            x       y       z     vdW  Elec       q    Type
REMARK                         _______ _______ _______ _____ _____    ______ ____
ROOT
ATOM      1  N   UNL     1       3.073  -6.938  -2.282  0.00  0.00    -0.184 NA
ATOM      2  C   UNL     1       3.315  -7.905  -3.112  0.00  0.00    +0.070 C 
ATOM      3  C   UNL     1       2.213  -8.782  -3.688  0.00  0.00    +0.058 C 
ATOM      4  C   UNL     1       2.701 -10.235  -3.678  0.00  0.00    +0.014 C 
ATOM      5  C   UNL     1       3.902 -10.408  -4.612  0.00  0.00    +0.075 C 
ATOM      6  C   UNL     1       4.958  -9.389  -4.263  0.00  0.00    +0.115 A 
ATOM      7  C   UNL     1       4.683  -8.231  -3.573  0.00  0.00    +0.042 A 
ATOM      8  C   UNL     1       5.886  -7.529  -3.432  0.00  0.00    +0.009 A 
ATOM      9  C   UNL     1       6.845  -8.284  -4.049  0.00  0.00    +0.193 A 
ATOM     10  O   UNL     1       6.261  -9.405  -4.537  0.00  0.00    -0.454 OA
ATOM     11  C   UNL     1       6.085  -6.205  -2.739  0.00  0.00    +0.048 C 
ENDROOT
BRANCH   1  14
ATOM     12  C   UNL     1       1.505  -5.670  -1.017  0.00  0.00    +0.237 C 
ATOM     13  O   UNL     1       2.417  -4.994  -0.589  0.00  0.00    -0.274 OA
ATOM     14  N   UNL     1       1.757  -6.674  -1.880  0.00  0.00    -0.206 N 
ATOM     15  H   UNL     1       1.028  -7.214  -2.222  0.00  0.00    +0.177 HD
BRANCH  12  16
ATOM     16  C   UNL     1       0.090  -5.386  -0.584  0.00  0.00    +0.136 C 
BRANCH  16  22
ATOM     17  C   UNL     1      -0.020   1.471   0.075  0.00  0.00    +0.044 C 
ATOM     18  C   UNL     1       0.006  -0.036   0.067  0.00  0.00    -0.044 A 
ATOM     19  C   UNL     1       0.003  -0.716  -1.142  0.00  0.00    +0.004 A 
ATOM     20  C   UNL     1       0.026  -2.083  -1.168  0.00  0.00    +0.012 A 
ATOM     21  C   UNL     1       0.052  -2.796   0.030  0.00  0.00    +0.024 A 
ATOM     22  C   UNL     1       0.082  -4.223   0.374  0.00  0.00    +0.007 A 
ATOM     23  C   UNL     1       0.099  -4.283   1.713  0.00  0.00    +0.200 A 
ATOM     24  O   UNL     1       0.084  -3.043   2.233  0.00  0.00    -0.462 OA
ATOM     25  C   UNL     1       0.056  -2.113   1.258  0.00  0.00    +0.138 A 
ATOM     26  C   UNL     1       0.038  -0.724   1.261  0.00  0.00    -0.005 A 
ATOM     27  C   UNL     1       0.047   0.028   2.567  0.00  0.00    +0.048 C 
ENDBRANCH  16  22
ENDBRANCH  12  16
ENDBRANCH   1  14
BRANCH   9  28
ATOM     28  C   UNL     1       8.268  -7.943  -4.154  0.00  0.00    +0.284 C 
ATOM     29  O   UNL     1       8.683  -6.909  -3.666  0.00  0.00    -0.266 OA
ATOM     30  N   UNL     1       9.114  -8.776  -4.791  0.00  0.00    -0.277 N 
ATOM     31  H   UNL     1       8.797  -9.630  -5.123  0.00  0.00    +0.155 HD
BRANCH  30  32
ATOM     32  C   UNL     1      10.454  -8.408  -4.974  0.00  0.00    +0.069 A 
ATOM     33  C   UNL     1      11.108  -7.662  -4.003  0.00  0.00    +0.029 A 
ATOM     34  C   UNL     1      12.429  -7.300  -4.185  0.00  0.00    +0.040 A 
ATOM     35  C   UNL     1      13.101  -7.679  -5.334  0.00  0.00    +0.126 A 
ATOM     36  C   UNL     1      12.451  -8.423  -6.305  0.00  0.00    +0.078 A 
ATOM     37  C   UNL     1      11.131  -8.794  -6.125  0.00  0.00    +0.147 A 
ATOM     38  F   UNL     1      10.499  -9.525  -7.069  0.00  0.00    -0.203 F 
ATOM     39  F   UNL     1      14.392  -7.323  -5.509  0.00  0.00    -0.205 F 
ENDBRANCH  30  32
ENDBRANCH   9  28
TORSDOF 5
