REMARK  Name = ZINC12883546
REMARK  8 active torsions:
REMARK  status: ('A' for Active; 'I' for Inactive)
REMARK    1  A    between atoms: C_1  and  C_2
REMARK    2  A    between atoms: C_2  and  C_3
REMARK    3  A    between atoms: C_14  and  C_16
REMARK    4  A    between atoms: C_16  and  C_17
REMARK    5  A    between atoms: C_20  and  O_24
REMARK    6  A    between atoms: C_21  and  O_23
REMARK    7  A    between atoms: N_27  and  C_30
REMARK    8  A    between atoms: C_30  and  C_31
REMARK                            x       y       z     vdW  Elec       q    Type
REMARK                         _______ _______ _______ _____ _____    ______ ____
ROOT
ATOM      1  C   UNL     1       1.140   6.558   3.576  0.00  0.00    -0.047 A 
ATOM      2  C   UNL     1       0.070   7.268   4.089  0.00  0.00    +0.005 A 
ATOM      3  C   UNL     1      -1.180   6.690   4.158  0.00  0.00    +0.024 A 
ATOM      4  C   UNL     1      -1.375   5.386   3.711  0.00  0.00    +0.036 A 
ATOM      5  C   UNL     1      -0.291   4.681   3.196  0.00  0.00    -0.027 A 
ATOM      6  C   UNL     1       0.955   5.262   3.129  0.00  0.00    +0.008 A 
ATOM      7  C   UNL     1      -0.826   3.331   2.810  0.00  0.00    +0.050 C 
ATOM      8  C   UNL     1      -0.101   2.204   3.557  0.00  0.00    +0.088 C 
ATOM      9  C   UNL     1      -0.026   1.040   2.530  0.00  0.00    +0.073 C 
ATOM     10  C   UNL     1      -0.729   1.579   1.267  0.00  0.00    -0.053 C 
ATOM     11  C   UNL     1       1.474   0.923   2.267  0.00  0.00    +0.224 C 
ATOM     12  O   UNL     1       1.990   0.133   1.506  0.00  0.00    -0.275 OA
ATOM     13  N   UNL     1       2.130   1.821   3.011  0.00  0.00    -0.237 N 
ATOM     14  C   UNL     1       1.345   2.590   3.775  0.00  0.00    +0.225 C 
ATOM     15  O   UNL     1       1.733   3.459   4.525  0.00  0.00    -0.275 OA
ATOM     16  C   UNL     1      -2.287   3.373   3.163  0.00  0.00    +0.211 C 
ATOM     17  O   UNL     1      -3.095   2.480   3.012  0.00  0.00    -0.277 OA
ATOM     18  N   UNL     1      -2.526   4.595   3.677  0.00  0.00    -0.286 N 
ATOM     19  H   UNL     1      -3.396   4.891   3.987  0.00  0.00    +0.155 HD
ATOM     20  N   UNL     1      -0.631   3.034   1.401  0.00  0.00    +0.394 N 
ATOM     21  H   UNL     1       0.294   3.358   1.095  0.00  0.00    -0.083 HD
ATOM     22  H   UNL     1      -1.358   3.492   0.839  0.00  0.00    -0.083 HD
ENDROOT
BRANCH   1  24
ATOM     23  C   UNL     1       3.268   6.911   4.799  0.00  0.00    +0.009 C 
ATOM     24  C   UNL     1       2.504   7.194   3.504  0.00  0.00    +0.032 C 
ENDBRANCH   1  24
BRANCH  10  25
ATOM     25  C   UNL     1      -0.013   1.086   0.008  0.00  0.00    +0.020 C 
BRANCH  25  26
ATOM     26  C   UNL     1      -0.742   1.585  -1.213  0.00  0.00    -0.045 A 
ATOM     27  C   UNL     1      -1.750   0.823  -1.774  0.00  0.00    +0.007 A 
ATOM     28  C   UNL     1      -2.425   1.279  -2.891  0.00  0.00    +0.049 A 
ATOM     29  C   UNL     1      -2.084   2.497  -3.457  0.00  0.00    +0.158 A 
ATOM     30  C   UNL     1      -1.066   3.261  -2.896  0.00  0.00    +0.158 A 
ATOM     31  C   UNL     1      -0.397   2.801  -1.773  0.00  0.00    +0.052 A 
BRANCH  30  32
ATOM     32  O   UNL     1      -0.727   4.457  -3.448  0.00  0.00    -0.503 OA
ATOM     33  H   UNL     1      -0.040   4.397  -4.125  0.00  0.00    +0.292 HD
ENDBRANCH  30  32
BRANCH  29  34
ATOM     34  O   UNL     1      -2.744   2.945  -4.559  0.00  0.00    -0.503 OA
ATOM     35  H   UNL     1      -2.345   2.669  -5.395  0.00  0.00    +0.292 HD
ENDBRANCH  29  34
ENDBRANCH  25  26
ENDBRANCH  10  25
BRANCH  13  36
ATOM     36  C   UNL     1       3.589   1.953   2.990  0.00  0.00    +0.151 C 
BRANCH  36  37
ATOM     37  C   UNL     1       4.190   1.051   4.038  0.00  0.00    -0.030 A 
ATOM     38  C   UNL     1       4.402   1.526   5.319  0.00  0.00    +0.005 A 
ATOM     39  C   UNL     1       4.949   0.699   6.281  0.00  0.00    +0.000 A 
ATOM     40  C   UNL     1       5.292  -0.602   5.960  0.00  0.00    +0.000 A 
ATOM     41  C   UNL     1       5.085  -1.075   4.678  0.00  0.00    +0.000 A 
ATOM     42  C   UNL     1       4.534  -0.248   3.717  0.00  0.00    +0.005 A 
ENDBRANCH  36  37
ENDBRANCH  13  36
TORSDOF 7
