REMARK  Name = ZINC66173874
REMARK  5 active torsions:
REMARK  status: ('A' for Active; 'I' for Inactive)
REMARK    1  A    between atoms: C_7  and  C_11
REMARK    2  A    between atoms: C_11  and  C_12
REMARK    3  A    between atoms: C_12  and  N_13
REMARK    4  A    between atoms: C_19  and  N_22
REMARK    5  A    between atoms: C_23  and  C_25
REMARK                            x       y       z     vdW  Elec       q    Type
REMARK                         _______ _______ _______ _____ _____    ______ ____
ROOT
ATOM      1  N   UNL     1      -0.674  -4.737  -1.452  0.00  0.00    -0.299 N 
ATOM      2  C   UNL     1      -1.186  -5.195  -2.612  0.00  0.00    +0.302 C 
ATOM      3  O   UNL     1      -0.964  -4.602  -3.650  0.00  0.00    -0.253 OA
ATOM      4  N   UNL     1      -1.942  -6.310  -2.621  0.00  0.00    -0.286 N 
ATOM      5  C   UNL     1      -2.315  -6.972  -1.364  0.00  0.00    +0.111 C 
ATOM      6  C   UNL     1      -1.908  -8.447  -1.443  0.00  0.00    +0.041 C 
ATOM      7  C   UNL     1      -2.527  -9.076  -2.693  0.00  0.00    +0.076 C 
ATOM      8  C   UNL     1      -2.002  -8.362  -3.940  0.00  0.00    +0.041 C 
ATOM      9  C   UNL     1      -2.415  -6.883  -3.889  0.00  0.00    +0.111 C 
ATOM     10  H   UNL     1      -0.910  -5.166  -0.615  0.00  0.00    +0.150 HD
ENDROOT
BRANCH   7  11
ATOM     11  N   UNL     1      -2.167 -10.495  -2.754  0.00  0.00    -0.312 N 
ATOM     12  C   UNL     1      -2.952 -11.361  -3.425  0.00  0.00    +0.216 C 
ATOM     13  O   UNL     1      -3.957 -10.966  -3.977  0.00  0.00    -0.276 OA
ATOM     14  H   UNL     1      -1.363 -10.811  -2.312  0.00  0.00    +0.149 HD
BRANCH  12  15
ATOM     15  C   UNL     1      -2.581 -12.821  -3.488  0.00  0.00    +0.075 C 
ATOM     16  C   UNL     1      -3.014 -13.620  -2.248  0.00  0.00    +0.013 C 
ATOM     17  C   UNL     1      -4.347 -13.873  -2.972  0.00  0.00    +0.001 C 
ATOM     18  C   UNL     1      -3.578 -13.675  -4.289  0.00  0.00    +0.013 C 
ENDBRANCH  12  15
ENDBRANCH   7  11
BRANCH   1  19
ATOM     19  C   UNL     1       0.238  -3.591  -1.456  0.00  0.00    +0.110 C 
BRANCH  19  20
ATOM     20  C   UNL     1       0.669  -3.277  -0.021  0.00  0.00    +0.056 C 
BRANCH  20  27
ATOM     21  C   UNL     1      -0.009   1.361   0.009  0.00  0.00    +0.001 A 
ATOM     22  C   UNL     1       1.178   2.081   0.001  0.00  0.00    +0.002 A 
ATOM     23  C   UNL     1       2.393   1.433  -0.014  0.00  0.00    +0.026 A 
ATOM     24  C   UNL     1       2.434   0.042  -0.022  0.00  0.00    +0.047 A 
ATOM     25  C   UNL     1       1.229  -0.683  -0.014  0.00  0.00    +0.003 A 
ATOM     26  C   UNL     1       0.008  -0.005   0.002  0.00  0.00    +0.010 A 
ATOM     27  C   UNL     1       1.607  -2.098  -0.025  0.00  0.00    -0.021 A 
ATOM     28  C   UNL     1       2.949  -2.145  -0.039  0.00  0.00    +0.087 A 
ATOM     29  N   UNL     1       3.460  -0.876  -0.037  0.00  0.00    -0.360 N 
ATOM     30  H   UNL     1       4.405  -0.656  -0.046  0.00  0.00    +0.165 HD
ENDBRANCH  20  27
ENDBRANCH  19  20
ENDBRANCH   1  19
TORSDOF 5
