REMARK  Name = ZINC20903783
REMARK  7 active torsions:
REMARK  status: ('A' for Active; 'I' for Inactive)
REMARK    1  A    between atoms: C_1  and  C_2
REMARK    2  A    between atoms: C_2  and  C_3
REMARK    3  A    between atoms: C_6  and  C_9
REMARK    4  A    between atoms: C_12  and  C_34
REMARK    5  A    between atoms: C_19  and  C_22
REMARK    6  A    between atoms: C_22  and  C_23
REMARK    7  A    between atoms: N_25  and  C_26
REMARK                            x       y       z     vdW  Elec       q    Type
REMARK                         _______ _______ _______ _____ _____    ______ ____
ROOT
ATOM      1  C   UNL     1       5.804   9.586  -3.004  0.00  0.00    +0.136 C 
ATOM      2  C   UNL     1       6.595   9.590  -4.327  0.00  0.00    +0.087 C 
ATOM      3  C   UNL     1       6.745   8.124  -4.666  0.00  0.00    +0.069 C 
ATOM      4  N   UNL     1       6.180   7.411  -3.754  0.00  0.00    -0.182 NA
ATOM      5  N   UNL     1       5.598   8.155  -2.729  0.00  0.00    -0.195 N 
ATOM      6  C   UNL     1       4.940   7.641  -1.649  0.00  0.00    +0.170 C 
ATOM      7  N   UNL     1       4.370   8.298  -0.648  0.00  0.00    -0.157 NA
ATOM      8  C   UNL     1       3.756   7.727   0.353  0.00  0.00    +0.252 C 
ATOM      9  O   UNL     1       3.246   8.366   1.252  0.00  0.00    -0.272 OA
ATOM     10  C   UNL     1       3.725   6.204   0.316  0.00  0.00    +0.150 C 
ATOM     11  S   UNL     1       4.644   5.923  -1.252  0.00  0.00    -0.078 S 
ENDROOT
BRANCH   1  15
ATOM     12  C   UNL     1       2.057  11.581  -3.479  0.00  0.00    -0.048 A 
ATOM     13  C   UNL     1       3.096  12.210  -2.818  0.00  0.00    +0.004 A 
ATOM     14  C   UNL     1       4.308  11.564  -2.664  0.00  0.00    +0.006 A 
ATOM     15  C   UNL     1       4.482  10.290  -3.171  0.00  0.00    -0.025 A 
ATOM     16  C   UNL     1       3.445   9.664  -3.837  0.00  0.00    +0.006 A 
ATOM     17  C   UNL     1       2.231  10.307  -3.986  0.00  0.00    +0.004 A 
BRANCH  12  19
ATOM     18  C   UNL     1       0.743  13.083  -4.951  0.00  0.00    +0.009 C 
ATOM     19  C   UNL     1       0.735  12.284  -3.645  0.00  0.00    +0.032 C 
ENDBRANCH  12  19
ENDBRANCH   1  15
BRANCH   3  20
ATOM     20  C   UNL     1       7.431   7.592  -5.858  0.00  0.00    -0.002 A 
ATOM     21  C   UNL     1       8.004   8.465  -6.786  0.00  0.00    +0.010 A 
ATOM     22  C   UNL     1       8.650   7.960  -7.895  0.00  0.00    +0.001 A 
ATOM     23  C   UNL     1       8.721   6.593  -8.096  0.00  0.00    +0.000 A 
ATOM     24  C   UNL     1       8.151   5.722  -7.184  0.00  0.00    +0.001 A 
ATOM     25  C   UNL     1       7.507   6.213  -6.067  0.00  0.00    +0.010 A 
ENDBRANCH   3  20
BRANCH  10  26
ATOM     26  C   UNL     1       2.292   5.677   0.225  0.00  0.00    +0.120 C 
BRANCH  26  27
ATOM     27  C   UNL     1       2.316   4.175   0.104  0.00  0.00    +0.219 C 
ATOM     28  O   UNL     1       3.375   3.584   0.091  0.00  0.00    -0.275 OA
ATOM     29  N   UNL     1       1.160   3.488   0.009  0.00  0.00    -0.285 N 
ATOM     30  H   UNL     1       0.204   4.027  -0.067  0.00  0.00    +0.155 HD
BRANCH  29  31
ATOM     31  C   UNL     1       1.176   2.088   0.008  0.00  0.00    +0.036 A 
ATOM     32  C   UNL     1       0.235   1.383  -0.731  0.00  0.00    +0.026 A 
ATOM     33  C   UNL     1       0.251   0.002  -0.731  0.00  0.00    +0.043 A 
ATOM     34  C   UNL     1       1.205  -0.681   0.004  0.00  0.00    +0.159 A 
ATOM     35  C   UNL     1       2.147   0.020   0.742  0.00  0.00    +0.160 A 
ATOM     36  C   UNL     1       2.133   1.403   0.745  0.00  0.00    +0.064 A 
ATOM     37  F   UNL     1       3.077  -0.648   1.459  0.00  0.00    -0.202 F 
ATOM     38  F   UNL     1       1.219  -2.032   0.002  0.00  0.00    -0.202 F 
ENDBRANCH  29  31
ENDBRANCH  26  27
ENDBRANCH  10  26
TORSDOF 6
