REMARK  Name = ZINC02776963
REMARK  14 active torsions:
REMARK  status: ('A' for Active; 'I' for Inactive)
REMARK    1  A    between atoms: C_1  and  C_2
REMARK    2  A    between atoms: C_2  and  O_3
REMARK    3  A    between atoms: O_3  and  C_4
REMARK    4  A    between atoms: C_6  and  C_11
REMARK    5  A    between atoms: C_9  and  O_10
REMARK    6  A    between atoms: C_13  and  C_33
REMARK    7  A    between atoms: C_14  and  C_32
REMARK    8  A    between atoms: C_21  and  C_22
REMARK    9  A    between atoms: C_25  and  O_30
REMARK   10  A    between atoms: C_26  and  O_28
REMARK   11  A    between atoms: O_28  and  C_29
REMARK   12  A    between atoms: C_33  and  O_35
REMARK   13  A    between atoms: O_35  and  C_36
REMARK   14  A    between atoms: C_36  and  C_37
REMARK                            x       y       z     vdW  Elec       q    Type
REMARK                         _______ _______ _______ _____ _____    ______ ____
ROOT
ATOM      1  C   UNL     1      -2.958  -5.411  -0.931  0.00  0.00    +0.162 C 
ATOM      2  C   UNL     1      -2.412  -6.817  -0.831  0.00  0.00    +0.085 C 
ATOM      3  C   UNL     1      -1.159  -6.985  -0.313  0.00  0.00    +0.053 C 
ATOM      4  N   UNL     1      -0.448  -5.939   0.089  0.00  0.00    -0.228 NA
ATOM      5  C   UNL     1      -0.854  -4.695   0.034  0.00  0.00    +0.178 A 
ATOM      6  N   UNL     1      -2.080  -4.305  -0.453  0.00  0.00    -0.275 N 
ATOM      7  C   UNL     1      -2.385  -3.001  -0.459  0.00  0.00    +0.268 A 
ATOM      8  O   UNL     1      -3.458  -2.610  -0.879  0.00  0.00    -0.266 OA
ATOM      9  C   UNL     1      -1.384  -2.057   0.058  0.00  0.00    +0.081 A 
ATOM     10  C   UNL     1      -1.446  -0.704   0.160  0.00  0.00    +0.028 C 
ATOM     11  S   UNL     1      -0.062  -3.170   0.508  0.00  0.00    -0.046 S 
ATOM     12  C   UNL     1      -0.578  -8.371  -0.197  0.00  0.00    +0.066 C 
ENDROOT
BRANCH   1  15
ATOM     13  C   UNL     1      -2.587  -4.601  -4.603  0.00  0.00    +0.162 A 
ATOM     14  C   UNL     1      -2.283  -4.841  -3.272  0.00  0.00    +0.055 A 
ATOM     15  C   UNL     1      -3.291  -5.145  -2.376  0.00  0.00    -0.016 A 
ATOM     16  C   UNL     1      -4.605  -5.201  -2.803  0.00  0.00    +0.010 A 
ATOM     17  C   UNL     1      -4.916  -4.958  -4.128  0.00  0.00    +0.049 A 
ATOM     18  C   UNL     1      -3.910  -4.658  -5.032  0.00  0.00    +0.158 A 
BRANCH  18  19
ATOM     19  O   UNL     1      -4.214  -4.418  -6.335  0.00  0.00    -0.503 OA
ATOM     20  H   UNL     1      -4.397  -3.489  -6.532  0.00  0.00    +0.292 HD
ENDBRANCH  18  19
BRANCH  13  21
ATOM     21  O   UNL     1      -1.596  -4.307  -5.486  0.00  0.00    -0.489 OA
BRANCH  21  23
ATOM     22  C   UNL     1       0.673  -3.716  -6.070  0.00  0.00    +0.048 C 
ATOM     23  C   UNL     1      -0.278  -4.156  -4.955  0.00  0.00    +0.226 C 
ENDBRANCH  21  23
ENDBRANCH  13  21
ENDBRANCH   1  15
BRANCH  10  24
ATOM     24  C   UNL     1      -0.386   0.028   0.865  0.00  0.00    -0.020 A 
ATOM     25  C   UNL     1      -0.199   1.395   0.626  0.00  0.00    +0.012 A 
ATOM     26  C   UNL     1       0.796   2.079   1.290  0.00  0.00    +0.050 A 
ATOM     27  C   UNL     1       1.613   1.417   2.196  0.00  0.00    +0.158 A 
ATOM     28  C   UNL     1       1.434   0.056   2.439  0.00  0.00    +0.162 A 
ATOM     29  C   UNL     1       0.440  -0.639   1.779  0.00  0.00    +0.057 A 
BRANCH  28  30
ATOM     30  O   UNL     1       2.237  -0.588   3.327  0.00  0.00    -0.491 OA
ATOM     31  C   UNL     1       1.997  -1.982   3.527  0.00  0.00    +0.277 C 
ENDBRANCH  28  30
BRANCH  27  32
ATOM     32  O   UNL     1       2.592   2.098   2.848  0.00  0.00    -0.503 OA
ATOM     33  H   UNL     1       2.309   2.486   3.688  0.00  0.00    +0.292 HD
ENDBRANCH  27  32
ENDBRANCH  10  24
BRANCH   2  34
ATOM     34  C   UNL     1      -3.171  -7.918  -1.258  0.00  0.00    +0.339 C 
ATOM     35  O   UNL     1      -2.662  -9.023  -1.317  0.00  0.00    -0.245 OA
BRANCH  34  36
ATOM     36  O   UNL     1      -4.466  -7.753  -1.605  0.00  0.00    -0.462 OA
BRANCH  36  37
ATOM     37  C   UNL     1      -5.208  -8.931  -1.925  0.00  0.00    +0.229 C 
ATOM     38  C   UNL     1      -6.610  -8.539  -2.397  0.00  0.00    +0.048 C 
ENDBRANCH  36  37
ENDBRANCH  34  36
ENDBRANCH   2  34
TORSDOF 10
