REMARK  Name = ZINC15776450
REMARK  9 active torsions:
REMARK  status: ('A' for Active; 'I' for Inactive)
REMARK    1  A    between atoms: C_1  and  C_2
REMARK    2  A    between atoms: C_2  and  O_3
REMARK    3  A    between atoms: O_3  and  C_4
REMARK    4  A    between atoms: C_5  and  C_20
REMARK    5  A    between atoms: N_8  and  C_9
REMARK    6  A    between atoms: C_20  and  C_22
REMARK    7  A    between atoms: C_20  and  C_28
REMARK    8  A    between atoms: C_28  and  N_30
REMARK    9  A    between atoms: N_30  and  C_31
REMARK                            x       y       z     vdW  Elec       q    Type
REMARK                         _______ _______ _______ _____ _____    ______ ____
ROOT
ATOM      1  C   UNL     1       0.470  -0.805   1.430  0.00  0.00    +0.229 A 
ATOM      2  C   UNL     1       0.040  -1.790   0.640  0.00  0.00    +0.067 A 
ATOM      3  S   UNL     1       0.027  -3.467   1.194  0.00  0.00    -0.066 S 
ATOM      4  C   UNL     1       1.274  -3.457   2.459  0.00  0.00    +0.123 A 
ATOM      5  N   UNL     1       2.065  -4.489   2.690  0.00  0.00    -0.347 N 
ATOM      6  C   UNL     1       1.356  -2.199   3.233  0.00  0.00    +0.190 A 
ATOM      7  N   UNL     1       0.958  -1.004   2.702  0.00  0.00    -0.177 N 
ATOM      8  N   UNL     1       1.161  -0.059   3.716  0.00  0.00    -0.150 NA
ATOM      9  C   UNL     1       1.669  -0.701   4.744  0.00  0.00    +0.246 A 
ATOM     10  N   UNL     1       1.780  -1.989   4.454  0.00  0.00    -0.212 NA
ATOM     11  H   UNL     1       2.733  -4.441   3.392  0.00  0.00    +0.166 HD
ENDROOT
BRANCH   5  12
ATOM     12  C   UNL     1       1.942  -5.624   1.941  0.00  0.00    +0.040 A 
ATOM     13  C   UNL     1       0.676  -6.152   1.669  0.00  0.00    +0.025 A 
ATOM     14  C   UNL     1       0.560  -7.299   0.911  0.00  0.00    +0.002 A 
ATOM     15  C   UNL     1       1.692  -7.927   0.422  0.00  0.00    +0.000 A 
ATOM     16  C   UNL     1       2.948  -7.411   0.688  0.00  0.00    +0.002 A 
ATOM     17  C   UNL     1       3.080  -6.261   1.438  0.00  0.00    +0.025 A 
ENDBRANCH   5  12
BRANCH   1  18
ATOM     18  O   UNL     1       0.430   0.466   0.951  0.00  0.00    -0.476 OA
BRANCH  18  20
ATOM     19  C   UNL     1       1.446   2.506   0.149  0.00  0.00    +0.048 C 
ATOM     20  C   UNL     1       1.677   1.149   0.816  0.00  0.00    +0.227 C 
ENDBRANCH  18  20
ENDBRANCH   1  18
BRANCH   2  21
ATOM     21  C   UNL     1      -0.443  -1.466  -0.750  0.00  0.00    +0.113 C 
BRANCH  21  22
ATOM     22  C   UNL     1       0.325  -2.286  -1.754  0.00  0.00    -0.033 A 
ATOM     23  C   UNL     1       0.275  -3.667  -1.701  0.00  0.00    +0.004 A 
ATOM     24  C   UNL     1       0.980  -4.420  -2.622  0.00  0.00    +0.000 A 
ATOM     25  C   UNL     1       1.735  -3.792  -3.595  0.00  0.00    +0.000 A 
ATOM     26  C   UNL     1       1.784  -2.411  -3.648  0.00  0.00    +0.000 A 
ATOM     27  C   UNL     1       1.076  -1.659  -2.730  0.00  0.00    +0.004 A 
ENDBRANCH  21  22
BRANCH  21  28
ATOM     28  C   UNL     1      -1.912  -1.786  -0.859  0.00  0.00    +0.066 C 
ATOM     29  S   UNL     1      -2.697  -2.377   0.403  0.00  0.00    -0.039 S 
BRANCH  28  30
ATOM     30  N   UNL     1      -2.564  -1.576  -2.019  0.00  0.00    -0.311 N 
ATOM     31  H   UNL     1      -2.103  -1.162  -2.766  0.00  0.00    +0.152 HD
BRANCH  30  32
ATOM     32  C   UNL     1      -3.904  -1.954  -2.147  0.00  0.00    +0.031 A 
ATOM     33  C   UNL     1      -4.811  -1.653  -1.139  0.00  0.00    +0.023 A 
ATOM     34  C   UNL     1      -6.134  -2.027  -1.268  0.00  0.00    +0.002 A 
ATOM     35  C   UNL     1      -6.556  -2.701  -2.400  0.00  0.00    +0.000 A 
ATOM     36  C   UNL     1      -5.655  -3.002  -3.406  0.00  0.00    +0.002 A 
ATOM     37  C   UNL     1      -4.332  -2.625  -3.285  0.00  0.00    +0.023 A 
ENDBRANCH  30  32
ENDBRANCH  28  30
ENDBRANCH  21  28
ENDBRANCH   2  21
TORSDOF 8
