REMARK  Name = ZINC05632617
REMARK  10 active torsions:
REMARK  status: ('A' for Active; 'I' for Inactive)
REMARK    1  A    between atoms: C_1  and  C_2
REMARK    2  A    between atoms: C_2  and  C_3
REMARK    3  A    between atoms: C_2  and  C_4
REMARK    4  A    between atoms: C_2  and  C_5
REMARK    5  A    between atoms: C_11  and  N_28
REMARK    6  A    between atoms: C_12  and  C_25
REMARK    7  A    between atoms: C_13  and  C_15
REMARK    8  A    between atoms: C_18  and  O_21
REMARK    9  A    between atoms: O_21  and  C_22
REMARK   10  A    between atoms: C_22  and  C_23
REMARK                            x       y       z     vdW  Elec       q    Type
REMARK                         _______ _______ _______ _____ _____    ______ ____
ROOT
ATOM      1  C   UNL     1       0.664  -0.635  -1.211  0.00  0.00    +0.204 A 
ATOM      2  N   UNL     1       1.927  -0.421  -1.463  0.00  0.00    -0.215 NA
ATOM      3  C   UNL     1       2.215  -0.932  -2.663  0.00  0.00    +0.114 A 
ATOM      4  C   UNL     1       1.076  -1.482  -3.159  0.00  0.00    +0.216 A 
ATOM      5  O   UNL     1       0.116  -1.294  -2.249  0.00  0.00    -0.425 OA
ATOM      6  N   UNL     1       1.035  -2.114  -4.401  0.00  0.00    -0.272 N 
ATOM      7  C   UNL     1       2.234  -2.404  -5.010  0.00  0.00    +0.097 C 
ATOM      8  C   UNL     1       3.413  -1.887  -4.580  0.00  0.00    +0.063 C 
ATOM      9  C   UNL     1       3.521  -0.943  -3.412  0.00  0.00    +0.111 C 
ATOM     10  H   UNL     1       0.191  -2.341  -4.821  0.00  0.00    +0.156 HD
ENDROOT
BRANCH   9  11
ATOM     11  C   UNL     1       3.827   0.445  -3.912  0.00  0.00    -0.033 A 
ATOM     12  C   UNL     1       2.949   1.078  -4.773  0.00  0.00    +0.008 A 
ATOM     13  C   UNL     1       3.227   2.350  -5.233  0.00  0.00    +0.046 A 
ATOM     14  C   UNL     1       4.388   2.994  -4.831  0.00  0.00    +0.122 A 
ATOM     15  C   UNL     1       5.268   2.357  -3.967  0.00  0.00    +0.046 A 
ATOM     16  C   UNL     1       4.982   1.086  -3.506  0.00  0.00    +0.008 A 
BRANCH  14  17
ATOM     17  O   UNL     1       4.664   4.245  -5.283  0.00  0.00    -0.477 OA
BRANCH  17  18
ATOM     18  C   UNL     1       5.878   4.846  -4.827  0.00  0.00    +0.346 C 
BRANCH  18  19
ATOM     19  C   UNL     1       6.011   6.190  -5.414  0.00  0.00    +0.104 C 
ATOM     20  N   UNL     1       6.113   7.226  -5.867  0.00  0.00    -0.193 NA
ENDBRANCH  18  19
ENDBRANCH  17  18
ENDBRANCH  14  17
ENDBRANCH   9  11
BRANCH   8  21
ATOM     21  C   UNL     1       4.587  -2.248  -5.257  0.00  0.00    +0.242 C 
ATOM     22  O   UNL     1       5.326  -3.096  -4.786  0.00  0.00    -0.271 OA
ATOM     23  N   UNL     1       4.899  -1.659  -6.428  0.00  0.00    -0.325 N 
ATOM     24  H   UNL     1       4.311  -0.984  -6.803  0.00  0.00    +0.145 HD
ATOM     25  H   UNL     1       5.711  -1.909  -6.896  0.00  0.00    +0.145 HD
ENDBRANCH   8  21
BRANCH   1  27
ATOM     26  C   UNL     1       0.005   1.305   0.186  0.00  0.00    +0.020 C 
ATOM     27  C   UNL     1      -0.061  -0.216   0.042  0.00  0.00    +0.039 C 
ATOM     28  C   UNL     1       0.598  -0.873   1.256  0.00  0.00    +0.020 C 
ATOM     29  C   UNL     1      -1.524  -0.657  -0.044  0.00  0.00    +0.020 C 
ENDBRANCH   1  27
BRANCH   7  30
ATOM     30  N   UNL     1       2.238  -3.247  -6.092  0.00  0.00    -0.346 N 
ATOM     31  H   UNL     1       1.419  -3.692  -6.364  0.00  0.00    +0.143 HD
ATOM     32  H   UNL     1       3.059  -3.399  -6.586  0.00  0.00    +0.143 HD
ENDBRANCH   7  30
TORSDOF 7
