REMARK  Name = ZINC44171492
REMARK  13 active torsions:
REMARK  status: ('A' for Active; 'I' for Inactive)
REMARK    1  A    between atoms: C_1  and  C_2
REMARK    2  A    between atoms: C_2  and  C_3
REMARK    3  A    between atoms: C_2  and  C_4
REMARK    4  A    between atoms: C_2  and  C_5
REMARK    5  A    between atoms: C_7  and  C_16
REMARK    6  A    between atoms: C_9  and  C_12
REMARK    7  A    between atoms: C_10  and  O_11
REMARK    8  A    between atoms: C_12  and  C_13
REMARK    9  A    between atoms: C_12  and  C_14
REMARK   10  A    between atoms: C_12  and  C_15
REMARK   11  A    between atoms: C_22  and  C_25
REMARK   12  A    between atoms: N_27  and  C_28
REMARK   13  A    between atoms: C_28  and  C_29
REMARK                            x       y       z     vdW  Elec       q    Type
REMARK                         _______ _______ _______ _____ _____    ______ ____
ROOT
ATOM      1  C   UNL     1       2.492   0.913  -4.178  0.00  0.00    -0.027 C 
ATOM      2  C   UNL     1       1.464   1.023  -5.311  0.00  0.00    +0.092 C 
ATOM      3  S   UNL     1       2.040   2.293  -6.481  0.00  0.00    +0.020 S 
ATOM      4  O   UNL     1       2.017   3.565  -5.849  0.00  0.00    -0.257 OA
ATOM      5  C   UNL     1       3.765   1.799  -6.788  0.00  0.00    +0.097 C 
ATOM      6  C   UNL     1       4.448   1.573  -5.434  0.00  0.00    +0.029 C 
ATOM      7  N   UNL     1       3.782   0.481  -4.719  0.00  0.00    +0.392 N 
ATOM      8  H   UNL     1       4.373   0.175  -3.961  0.00  0.00    -0.084 HD
ATOM      9  H   UNL     1       3.634  -0.289  -5.353  0.00  0.00    -0.084 HD
ENDROOT
BRANCH   1  12
ATOM     10  C   UNL     1       0.964  -0.584  -1.068  0.00  0.00    -0.000 A 
ATOM     11  C   UNL     1       1.404   0.337  -1.999  0.00  0.00    +0.009 A 
ATOM     12  C   UNL     1       2.012  -0.093  -3.164  0.00  0.00    -0.060 A 
ATOM     13  C   UNL     1       2.181  -1.445  -3.400  0.00  0.00    +0.009 A 
ATOM     14  C   UNL     1       1.742  -2.370  -2.472  0.00  0.00    -0.000 A 
ATOM     15  C   UNL     1       1.137  -1.940  -1.300  0.00  0.00    +0.124 A 
BRANCH  10  17
ATOM     16  C   UNL     1       0.235   1.415   0.207  0.00  0.00    +0.015 C 
ATOM     17  C   UNL     1       0.301  -0.114   0.202  0.00  0.00    -0.009 C 
ATOM     18  C   UNL     1       1.111  -0.594   1.407  0.00  0.00    +0.015 C 
ATOM     19  C   UNL     1      -1.116  -0.685   0.279  0.00  0.00    +0.015 C 
ENDBRANCH  10  17
BRANCH  14  20
ATOM     20  C   UNL     1       1.926  -3.843  -2.730  0.00  0.00    -0.009 C 
ATOM     21  C   UNL     1       2.619  -4.042  -4.079  0.00  0.00    +0.015 C 
ATOM     22  C   UNL     1       2.785  -4.452  -1.620  0.00  0.00    +0.015 C 
ATOM     23  C   UNL     1       0.560  -4.531  -2.752  0.00  0.00    +0.015 C 
ENDBRANCH  14  20
BRANCH  15  24
ATOM     24  O   UNL     1       0.710  -2.848  -0.382  0.00  0.00    -0.506 OA
ATOM     25  H   UNL     1      -0.202  -3.142  -0.516  0.00  0.00    +0.292 HD
ENDBRANCH  15  24
ENDBRANCH   1  12
BRANCH   6  26
ATOM     26  C   UNL     1       4.364   2.834  -4.614  0.00  0.00    +0.200 C 
ATOM     27  O   UNL     1       4.173   2.768  -3.418  0.00  0.00    -0.278 OA
ATOM     28  N   UNL     1       4.499   4.035  -5.209  0.00  0.00    -0.312 N 
ATOM     29  H   UNL     1       4.652   4.088  -6.166  0.00  0.00    +0.149 HD
BRANCH  28  30
ATOM     30  C   UNL     1       4.417   5.261  -4.412  0.00  0.00    +0.142 C 
BRANCH  30  31
ATOM     31  C   UNL     1       4.601   6.458  -5.309  0.00  0.00    +0.008 A 
ATOM     32  C   UNL     1       5.829   7.088  -5.378  0.00  0.00    +0.046 A 
ATOM     33  C   UNL     1       5.997   8.187  -6.203  0.00  0.00    +0.124 A 
ATOM     34  C   UNL     1       4.935   8.655  -6.959  0.00  0.00    +0.041 A 
ATOM     35  C   UNL     1       3.708   8.024  -6.890  0.00  0.00    +0.041 A 
ATOM     36  C   UNL     1       3.541   6.922  -6.069  0.00  0.00    +0.128 A 
ATOM     37  F   UNL     1       2.341   6.303  -6.005  0.00  0.00    -0.205 F 
ATOM     38  F   UNL     1       7.197   8.803  -6.271  0.00  0.00    -0.205 F 
ENDBRANCH  30  31
ENDBRANCH  28  30
ENDBRANCH   6  26
TORSDOF 7
