REMARK  Name = ZINC39357219
REMARK  10 active torsions:
REMARK  status: ('A' for Active; 'I' for Inactive)
REMARK    1  A    between atoms: C_1  and  O_2
REMARK    2  A    between atoms: O_2  and  C_3
REMARK    3  A    between atoms: C_5  and  C_23
REMARK    4  A    between atoms: C_8  and  O_9
REMARK    5  A    between atoms: O_9  and  C_10
REMARK    6  A    between atoms: C_10  and  C_11
REMARK    7  A    between atoms: N_13  and  C_14
REMARK    8  A    between atoms: C_17  and  N_20
REMARK    9  A    between atoms: C_24  and  C_25
REMARK   10  A    between atoms: C_24  and  C_27
REMARK                            x       y       z     vdW  Elec       q    Type
REMARK                         _______ _______ _______ _____ _____    ______ ____
ROOT
ATOM      1  C   UNL     1       0.705  -1.429   1.063  0.00  0.00    +0.162 A 
ATOM      2  C   UNL     1       1.244  -0.585   2.014  0.00  0.00    +0.057 A 
ATOM      3  C   UNL     1       1.885  -1.120   3.137  0.00  0.00    -0.020 A 
ATOM      4  C   UNL     1       1.975  -2.508   3.290  0.00  0.00    +0.012 A 
ATOM      5  C   UNL     1       1.435  -3.343   2.337  0.00  0.00    +0.050 A 
ATOM      6  C   UNL     1       0.795  -2.811   1.225  0.00  0.00    +0.163 A 
ENDROOT
BRANCH   1   8
ATOM      7  C   UNL     1       0.026   0.512  -0.132  0.00  0.00    +0.277 C 
ATOM      8  O   UNL     1       0.081  -0.912  -0.029  0.00  0.00    -0.491 OA
ENDBRANCH   1   8
BRANCH   3   9
ATOM      9  C   UNL     1       2.461  -0.227   4.153  0.00  0.00    +0.026 C 
ATOM     10  C   UNL     1       2.479  -0.602   5.449  0.00  0.00    +0.072 C 
BRANCH  10  11
ATOM     11  C   UNL     1       3.220   0.230   6.464  0.00  0.00    +0.216 C 
ATOM     12  N   UNL     1       4.224  -0.591   7.153  0.00  0.00    -0.359 N 
ATOM     13  C   UNL     1       3.923  -0.594   8.419  0.00  0.00    +0.060 A 
ATOM     14  C   UNL     1       4.543  -1.228   9.592  0.00  0.00    +0.027 A 
ATOM     15  C   UNL     1       3.996  -1.050  10.811  0.00  0.00    +0.002 A 
ATOM     16  C   UNL     1       2.841  -0.274  11.018  0.00  0.00    +0.002 A 
ATOM     17  C   UNL     1       2.195   0.349  10.012  0.00  0.00    +0.027 A 
ATOM     18  C   UNL     1       2.701   0.227   8.638  0.00  0.00    +0.060 A 
ATOM     19  N   UNL     1       2.293   0.706   7.499  0.00  0.00    -0.359 N 
ATOM     20  H   UNL     1       4.973  -1.048   6.740  0.00  0.00    +0.162 HD
ATOM     21  H   UNL     1       1.520   1.274   7.359  0.00  0.00    +0.162 HD
ENDBRANCH  10  11
BRANCH  10  22
ATOM     22  C   UNL     1       1.794  -1.791   5.860  0.00  0.00    +0.099 C 
ATOM     23  N   UNL     1       1.251  -2.733   6.186  0.00  0.00    -0.191 NA
ENDBRANCH  10  22
ENDBRANCH   3   9
BRANCH   6  24
ATOM     24  O   UNL     1       0.259  -3.639   0.291  0.00  0.00    -0.479 OA
BRANCH  24  25
ATOM     25  C   UNL     1       0.386  -5.043   0.520  0.00  0.00    +0.325 C 
BRANCH  25  26
ATOM     26  C   UNL     1      -0.262  -5.798  -0.613  0.00  0.00    +0.255 C 
ATOM     27  O   UNL     1      -0.783  -5.191  -1.525  0.00  0.00    -0.272 OA
ATOM     28  N   UNL     1      -0.264  -7.145  -0.611  0.00  0.00    -0.283 N 
ATOM     29  H   UNL     1       0.083  -7.630   0.155  0.00  0.00    +0.155 HD
BRANCH  28  30
ATOM     30  C   UNL     1      -0.767  -7.846  -1.713  0.00  0.00    +0.034 A 
ATOM     31  C   UNL     1      -1.431  -9.051  -1.528  0.00  0.00    +0.025 A 
ATOM     32  C   UNL     1      -1.925  -9.740  -2.618  0.00  0.00    +0.034 A 
ATOM     33  C   UNL     1      -1.760  -9.231  -3.893  0.00  0.00    +0.126 A 
ATOM     34  C   UNL     1      -1.099  -8.031  -4.080  0.00  0.00    +0.034 A 
ATOM     35  C   UNL     1      -0.607  -7.334  -2.994  0.00  0.00    +0.025 A 
BRANCH  33  36
ATOM     36  N   UNL     1      -2.291  -9.972  -5.059  0.00  0.00    +0.056 N 
ATOM     37  O   UNL     1      -2.869 -11.021  -4.896  0.00  0.00    -0.126 OA
ATOM     38  O   UNL     1      -2.147  -9.527  -6.174  0.00  0.00    -0.126 OA
ENDBRANCH  33  36
ENDBRANCH  28  30
ENDBRANCH  25  26
ENDBRANCH  24  25
ENDBRANCH   6  24
TORSDOF 9
