REMARK  Name = ZINC34967834
REMARK  9 active torsions:
REMARK  status: ('A' for Active; 'I' for Inactive)
REMARK    1  A    between atoms: C_1  and  C_2
REMARK    2  A    between atoms: C_2  and  C_3
REMARK    3  A    between atoms: C_3  and  C_4
REMARK    4  A    between atoms: C_4  and  C_6
REMARK    5  A    between atoms: C_4  and  N_19
REMARK    6  A    between atoms: N_8  and  C_9
REMARK    7  A    between atoms: C_9  and  C_10
REMARK    8  A    between atoms: C_10  and  C_11
REMARK    9  A    between atoms: N_22  and  C_23
REMARK                            x       y       z     vdW  Elec       q    Type
REMARK                         _______ _______ _______ _____ _____    ______ ____
ROOT
ATOM      1  C   UNL     1       0.832  -1.716   1.136  0.00  0.00    +0.160 C 
ENDROOT
BRANCH   1   2
ATOM      2  N   UNL     1       1.576  -2.357   0.049  0.00  0.00    -0.288 N 
ATOM      3  C   UNL     1       1.012  -2.486  -1.169  0.00  0.00    +0.304 C 
ATOM      4  O   UNL     1      -0.114  -2.072  -1.365  0.00  0.00    -0.252 OA
ATOM      5  N   UNL     1       1.697  -3.076  -2.169  0.00  0.00    -0.269 N 
ATOM      6  H   UNL     1       2.474  -2.688   0.205  0.00  0.00    +0.151 HD
ATOM      7  H   UNL     1       2.622  -3.337  -2.036  0.00  0.00    +0.156 HD
BRANCH   5   8
ATOM      8  C   UNL     1       1.074  -3.311  -3.400  0.00  0.00    +0.035 A 
ATOM      9  C   UNL     1       1.811  -3.251  -4.575  0.00  0.00    +0.024 A 
ATOM     10  C   UNL     1       1.194  -3.484  -5.789  0.00  0.00    +0.017 A 
ATOM     11  C   UNL     1      -0.158  -3.775  -5.834  0.00  0.00    +0.018 A 
ATOM     12  C   UNL     1      -0.895  -3.835  -4.665  0.00  0.00    +0.017 A 
ATOM     13  C   UNL     1      -0.281  -3.609  -3.448  0.00  0.00    +0.024 A 
ATOM     14 BR   UNL     1      -1.000  -4.092  -7.498  0.00  0.00    -0.050 Br
ENDBRANCH   5   8
ENDBRANCH   1   2
BRANCH   1  15
ATOM     15  C   UNL     1       1.351  -2.212   2.461  0.00  0.00    +0.233 C 
ATOM     16  O   UNL     1       2.255  -3.021   2.494  0.00  0.00    -0.274 OA
ATOM     17  N   UNL     1       0.812  -1.757   3.609  0.00  0.00    -0.313 N 
ATOM     18  H   UNL     1       0.090  -1.110   3.583  0.00  0.00    +0.149 HD
BRANCH  17  19
ATOM     19  C   UNL     1       1.318  -2.239   4.897  0.00  0.00    +0.109 C 
BRANCH  19  20
ATOM     20  C   UNL     1       0.540  -1.570   6.032  0.00  0.00    +0.055 C 
BRANCH  20  21
ATOM     21  C   UNL     1       1.060  -2.066   7.357  0.00  0.00    -0.027 A 
ATOM     22  C   UNL     1       0.438  -3.125   7.991  0.00  0.00    +0.006 A 
ATOM     23  C   UNL     1       0.914  -3.581   9.206  0.00  0.00    +0.020 A 
ATOM     24  C   UNL     1       2.014  -2.977   9.789  0.00  0.00    +0.042 A 
ATOM     25  C   UNL     1       2.637  -1.917   9.155  0.00  0.00    +0.040 A 
ATOM     26  C   UNL     1       2.163  -1.465   7.936  0.00  0.00    +0.046 A 
ATOM     27 CL   UNL     1       2.949  -0.139   7.137  0.00  0.00    -0.083 Cl
ATOM     28 CL   UNL     1       2.611  -3.548  11.315  0.00  0.00    -0.083 Cl
ENDBRANCH  20  21
ENDBRANCH  19  20
ENDBRANCH  17  19
ENDBRANCH   1  15
BRANCH   1  29
ATOM     29  C   UNL     1       1.012  -0.199   1.053  0.00  0.00    +0.031 C 
BRANCH  29  31
ATOM     30  C   UNL     1       0.553   1.837  -0.320  0.00  0.00    +0.004 C 
ATOM     31  C   UNL     1       0.373   0.320  -0.236  0.00  0.00    -0.001 C 
ENDBRANCH  29  31
ENDBRANCH   1  29
TORSDOF 8
