REMARK  Name = ZINC03263291
REMARK  5 active torsions:
REMARK  status: ('A' for Active; 'I' for Inactive)
REMARK    1  A    between atoms: C_3  and  C_21
REMARK    2  A    between atoms: C_5  and  C_11
REMARK    3  A    between atoms: C_15  and  N_17
REMARK    4  A    between atoms: N_23  and  C_24
REMARK    5  A    between atoms: C_29  and  C_30
REMARK                            x       y       z     vdW  Elec       q    Type
REMARK                         _______ _______ _______ _____ _____    ______ ____
ROOT
ATOM      1  C   UNL     1      -0.894   8.398   1.416  0.00  0.00    +0.029 C 
ATOM      2  C   UNL     1       0.297   7.835   1.489  0.00  0.00    +0.019 C 
ATOM      3  C   UNL     1       1.059   7.433   0.242  0.00  0.00    +0.143 C 
ATOM      4  C   UNL     1       2.489   7.970   0.380  0.00  0.00    +0.122 C 
ATOM      5  N   UNL     1       3.026   7.595   1.687  0.00  0.00    -0.291 N 
ATOM      6  C   UNL     1       2.251   7.460   2.772  0.00  0.00    +0.304 C 
ATOM      7  O   UNL     1       2.776   7.215   3.840  0.00  0.00    -0.253 OA
ATOM      8  N   UNL     1       0.911   7.585   2.721  0.00  0.00    -0.273 N 
ATOM      9  H   UNL     1       3.980   7.438   1.773  0.00  0.00    +0.151 HD
ATOM     10  H   UNL     1       0.380   7.503   3.528  0.00  0.00    +0.156 HD
ENDROOT
BRANCH   4  11
ATOM     11  C   UNL     1       2.477   9.471   0.254  0.00  0.00    -0.024 A 
ATOM     12  C   UNL     1       2.110  10.252   1.334  0.00  0.00    +0.007 A 
ATOM     13  C   UNL     1       2.104  11.630   1.220  0.00  0.00    +0.022 A 
ATOM     14  C   UNL     1       2.454  12.226   0.022  0.00  0.00    +0.071 A 
ATOM     15  C   UNL     1       2.814  11.444  -1.060  0.00  0.00    +0.145 A 
ATOM     16  C   UNL     1       2.826  10.066  -0.944  0.00  0.00    +0.039 A 
ATOM     17 CL   UNL     1       2.438  13.956  -0.124  0.00  0.00    -0.081 Cl
BRANCH  15  18
ATOM     18  N   UNL     1       3.189  12.081  -2.343  0.00  0.00    +0.058 N 
ATOM     19  O   UNL     1       3.507  11.392  -3.295  0.00  0.00    -0.126 OA
ATOM     20  O   UNL     1       3.179  13.295  -2.445  0.00  0.00    -0.126 OA
ENDBRANCH  15  18
ENDBRANCH   4  11
BRANCH   3  21
ATOM     21  C   UNL     1       1.085   5.931   0.122  0.00  0.00    +0.228 C 
ATOM     22  O   UNL     1       2.146   5.342   0.109  0.00  0.00    -0.275 OA
ATOM     23  N   UNL     1      -0.069   5.242   0.028  0.00  0.00    -0.284 N 
ATOM     24  H   UNL     1      -0.912   5.715  -0.043  0.00  0.00    +0.155 HD
BRANCH  23  25
ATOM     25  C   UNL     1      -0.051   3.842   0.033  0.00  0.00    +0.045 A 
ATOM     26  C   UNL     1       1.004   3.162   0.628  0.00  0.00    +0.024 A 
ATOM     27  C   UNL     1       1.019   1.781   0.631  0.00  0.00    +0.002 A 
ATOM     28  C   UNL     1      -0.015   1.076   0.041  0.00  0.00    +0.001 A 
ATOM     29  C   UNL     1      -1.063   1.750  -0.557  0.00  0.00    +0.014 A 
ATOM     30  C   UNL     1      -1.087   3.131  -0.558  0.00  0.00    +0.076 A 
BRANCH  30  31
ATOM     31  C   UNL     1      -2.233   3.865  -1.204  0.00  0.00    +0.419 C 
ATOM     32  F   UNL     1      -3.145   2.941  -1.725  0.00  0.00    -0.166 F 
ATOM     33  F   UNL     1      -2.873   4.664  -0.251  0.00  0.00    -0.166 F 
ATOM     34  F   UNL     1      -1.746   4.673  -2.238  0.00  0.00    -0.166 F 
ENDBRANCH  30  31
ENDBRANCH  23  25
ENDBRANCH   3  21
TORSDOF 5
