REMARK  Name = ZINC37004651
REMARK  5 active torsions:
REMARK  status: ('A' for Active; 'I' for Inactive)
REMARK    1  A    between atoms: C_1  and  C_2
REMARK    2  A    between atoms: C_2  and  C_3
REMARK    3  A    between atoms: C_6  and  N_9
REMARK    4  A    between atoms: N_9  and  C_10
REMARK    5  A    between atoms: C_12  and  N_17
REMARK                            x       y       z     vdW  Elec       q    Type
REMARK                         _______ _______ _______ _____ _____    ______ ____
ROOT
ATOM      1  C   UNL     1       3.994  -3.987   1.290  0.00  0.00    +0.048 A 
ATOM      2  C   UNL     1       3.920  -4.740   2.454  0.00  0.00    +0.052 A 
ATOM      3  C   UNL     1       4.434  -6.028   2.477  0.00  0.00    +0.071 A 
ATOM      4  C   UNL     1       5.020  -6.561   1.336  0.00  0.00    +0.029 A 
ATOM      5  C   UNL     1       5.093  -5.810   0.179  0.00  0.00    +0.024 A 
ATOM      6  C   UNL     1       4.577  -4.528   0.150  0.00  0.00    +0.062 A 
ATOM      7 CL   UNL     1       4.663  -3.591  -1.309  0.00  0.00    -0.082 Cl
ENDROOT
BRANCH   3   8
ATOM      8  N   UNL     1       4.362  -6.791   3.651  0.00  0.00    -0.200 N 
ATOM      9  C   UNL     1       4.816  -8.049   3.841  0.00  0.00    +0.250 A 
ATOM     10  N   UNL     1       4.545  -8.377   5.077  0.00  0.00    -0.116 NA
ATOM     11  N   UNL     1       3.952  -7.412   5.682  0.00  0.00    -0.023 NA
ATOM     12  N   UNL     1       3.807  -6.409   4.885  0.00  0.00    -0.039 NA
ENDBRANCH   3   8
BRANCH   1  13
ATOM     13  N   UNL     1       3.477  -2.688   1.263  0.00  0.00    -0.340 N 
ATOM     14  H   UNL     1       3.526  -2.164   0.448  0.00  0.00    +0.146 HD
BRANCH  13  18
ATOM     15  C   UNL     1       0.742  -0.511   1.242  0.00  0.00    -0.011 C 
ATOM     16  C   UNL     1       2.210  -0.086   1.169  0.00  0.00    +0.005 C 
ATOM     17  C   UNL     1       2.950  -0.593   2.408  0.00  0.00    +0.022 C 
ATOM     18  C   UNL     1       2.863  -2.119   2.465  0.00  0.00    +0.070 C 
ATOM     19  C   UNL     1       1.395  -2.544   2.538  0.00  0.00    +0.022 C 
ATOM     20  C   UNL     1       0.655  -2.037   1.299  0.00  0.00    +0.005 C 
BRANCH  15  22
ATOM     21  C   UNL     1      -0.019   1.526   0.010  0.00  0.00    +0.004 C 
ATOM     22  C   UNL     1       0.002  -0.004   0.002  0.00  0.00    -0.000 C 
ENDBRANCH  15  22
ENDBRANCH  13  18
ENDBRANCH   1  13
TORSDOF 4
