REMARK  Name = ZINC39487065
REMARK  8 active torsions:
REMARK  status: ('A' for Active; 'I' for Inactive)
REMARK    1  A    between atoms: C_1  and  C_2
REMARK    2  A    between atoms: C_2  and  C_3
REMARK    3  A    between atoms: C_3  and  C_30
REMARK    4  A    between atoms: N_8  and  C_9
REMARK    5  A    between atoms: C_9  and  C_10
REMARK    6  A    between atoms: C_10  and  C_23
REMARK    7  A    between atoms: N_13  and  C_16
REMARK    8  A    between atoms: C_16  and  C_17
REMARK                            x       y       z     vdW  Elec       q    Type
REMARK                         _______ _______ _______ _____ _____    ______ ____
ROOT
ATOM      1  C   UNL     1       0.348  -3.367  -0.627  0.00  0.00    -0.014 C 
ATOM      2  C   UNL     1       0.997  -2.033  -0.248  0.00  0.00    -0.010 C 
ATOM      3  C   UNL     1       0.259  -1.435   0.952  0.00  0.00    -0.078 C 
ATOM      4  N   UNL     1       0.339  -2.360   2.089  0.00  0.00    +0.382 N 
ATOM      5  C   UNL     1      -0.345  -3.616   1.759  0.00  0.00    -0.078 C 
ATOM      6  C   UNL     1       0.370  -4.297   0.590  0.00  0.00    -0.010 C 
ATOM      7  H   UNL     1       1.307  -2.550   2.300  0.00  0.00    -0.081 HD
ENDROOT
BRANCH   1   8
ATOM      8  C   UNL     1       1.127  -4.009  -1.776  0.00  0.00    -0.003 C 
ATOM      9  C   UNL     1       0.621  -5.435  -2.002  0.00  0.00    +0.004 C 
ATOM     10  C   UNL     1       1.400  -6.078  -3.151  0.00  0.00    +0.000 C 
ATOM     11  C   UNL     1       2.889  -6.115  -2.800  0.00  0.00    +0.000 C 
ATOM     12  C   UNL     1       3.395  -4.689  -2.574  0.00  0.00    +0.000 C 
ATOM     13  C   UNL     1       2.616  -4.046  -1.425  0.00  0.00    +0.004 C 
ENDBRANCH   1   8
BRANCH   1  14
ATOM     14  C   UNL     1      -1.099  -3.127  -1.062  0.00  0.00    +0.117 C 
BRANCH  14  20
ATOM     15  C   UNL     1      -1.398  -2.418  -3.554  0.00  0.00    +0.052 C 
ATOM     16  C   UNL     1      -1.306  -1.037  -4.232  0.00  0.00    +0.148 C 
ATOM     17  N   UNL     1      -0.994  -0.121  -3.126  0.00  0.00    -0.220 N 
ATOM     18  C   UNL     1      -0.912  -0.820  -1.986  0.00  0.00    +0.315 C 
ATOM     19  O   UNL     1      -0.664  -0.308  -0.911  0.00  0.00    -0.252 OA
ATOM     20  N   UNL     1      -1.128  -2.133  -2.137  0.00  0.00    -0.277 N 
ATOM     21 BR   UNL     1      -0.753   1.707  -3.282  0.00  0.00    +0.040 Br
ATOM     22  C   UNL     1      -2.798  -3.011  -3.725  0.00  0.00    +0.033 C 
BRANCH  15  24
ATOM     23  C   UNL     1      -0.698  -3.723  -5.566  0.00  0.00    +0.006 C 
ATOM     24  C   UNL     1      -0.341  -3.367  -4.122  0.00  0.00    +0.024 C 
ENDBRANCH  15  24
ENDBRANCH  14  20
ENDBRANCH   1  14
BRANCH   4  25
ATOM     25  C   UNL     1      -0.303  -1.748   3.261  0.00  0.00    -0.043 C 
BRANCH  25  26
ATOM     26  C   UNL     1      -0.092  -2.629   4.465  0.00  0.00    -0.064 A 
ATOM     27  C   UNL     1      -1.007  -3.621   4.764  0.00  0.00    +0.002 A 
ATOM     28  C   UNL     1      -0.813  -4.429   5.870  0.00  0.00    +0.000 A 
ATOM     29  C   UNL     1       0.295  -4.245   6.675  0.00  0.00    +0.000 A 
ATOM     30  C   UNL     1       1.210  -3.253   6.375  0.00  0.00    +0.000 A 
ATOM     31  C   UNL     1       1.019  -2.448   5.268  0.00  0.00    +0.002 A 
ENDBRANCH  25  26
ENDBRANCH   4  25
TORSDOF 6
