REMARK  Name = ZINC64789989
REMARK  8 active torsions:
REMARK  status: ('A' for Active; 'I' for Inactive)
REMARK    1  A    between atoms: C_1  and  C_2
REMARK    2  A    between atoms: C_9  and  C_13
REMARK    3  A    between atoms: C_15  and  C_18
REMARK    4  A    between atoms: C_18  and  C_19
REMARK    5  A    between atoms: C_19  and  C_20
REMARK    6  A    between atoms: N_22  and  C_23
REMARK    7  A    between atoms: C_23  and  C_25
REMARK    8  A    between atoms: C_23  and  C_26
REMARK                            x       y       z     vdW  Elec       q    Type
REMARK                         _______ _______ _______ _____ _____    ______ ____
ROOT
ATOM      1  C   UNL     1       0.089  -4.951   3.633  0.00  0.00    +0.207 A 
ATOM      2  N   UNL     1       0.113  -6.293   3.731  0.00  0.00    -0.191 NA
ATOM      3  C   UNL     1       0.123  -6.649   4.983  0.00  0.00    +0.228 A 
ATOM      4  O   UNL     1       0.105  -5.544   5.740  0.00  0.00    -0.338 OA
ATOM      5  N   UNL     1       0.089  -4.444   4.843  0.00  0.00    -0.056 NA
ENDROOT
BRANCH   1  14
ATOM      6  C   UNL     1      -0.018   1.503   0.010  0.00  0.00    +0.044 C 
ATOM      7  C   UNL     1       0.002  -0.004   0.002  0.00  0.00    -0.050 A 
ATOM      8  C   UNL     1       0.006  -0.686  -1.208  0.00  0.00    +0.005 A 
ATOM      9  C   UNL     1       0.024  -2.063  -1.237  0.00  0.00    +0.026 A 
ATOM     10  C   UNL     1       0.040  -2.782  -0.045  0.00  0.00    +0.049 A 
ATOM     11  C   UNL     1       0.037  -2.089   1.180  0.00  0.00    -0.001 A 
ATOM     12  C   UNL     1       0.023  -0.687   1.183  0.00  0.00    +0.013 A 
ATOM     13  C   UNL     1       0.053  -2.809   2.401  0.00  0.00    +0.027 A 
ATOM     14  C   UNL     1       0.071  -4.176   2.371  0.00  0.00    +0.087 A 
ATOM     15  C   UNL     1       0.074  -4.868   1.079  0.00  0.00    +0.260 A 
ATOM     16  N   UNL     1       0.059  -4.162  -0.067  0.00  0.00    -0.322 N 
ATOM     17  O   UNL     1       0.090  -6.085   1.042  0.00  0.00    -0.267 OA
ATOM     18  H   UNL     1       0.061  -4.628  -0.918  0.00  0.00    +0.169 HD
ENDBRANCH   1  14
BRANCH   3  19
ATOM     19  C   UNL     1       0.149  -8.066   5.495  0.00  0.00    +0.108 C 
BRANCH  19  20
ATOM     20  C   UNL     1       1.601  -8.520   5.664  0.00  0.00    +0.105 C 
BRANCH  20  21
ATOM     21  C   UNL     1       1.627  -9.937   6.176  0.00  0.00    +0.214 C 
ATOM     22  O   UNL     1       0.588 -10.526   6.386  0.00  0.00    -0.276 OA
ATOM     23  N   UNL     1       2.806 -10.550   6.402  0.00  0.00    -0.309 N 
ATOM     24  H   UNL     1       3.638 -10.079   6.235  0.00  0.00    +0.149 HD
BRANCH  23  25
ATOM     25  C   UNL     1       2.832 -11.928   6.900  0.00  0.00    +0.100 C 
ATOM     26  C   UNL     1       2.711 -11.921   8.425  0.00  0.00    +0.033 C 
BRANCH  25  27
ATOM     27  C   UNL     1       4.131 -12.581   6.502  0.00  0.00    -0.027 A 
ATOM     28  C   UNL     1       5.312 -11.865   6.564  0.00  0.00    +0.007 A 
ATOM     29  C   UNL     1       6.503 -12.464   6.199  0.00  0.00    +0.020 A 
ATOM     30  C   UNL     1       6.513 -13.780   5.772  0.00  0.00    +0.041 A 
ATOM     31  C   UNL     1       5.331 -14.496   5.711  0.00  0.00    +0.020 A 
ATOM     32  C   UNL     1       4.141 -13.898   6.081  0.00  0.00    +0.007 A 
ATOM     33 CL   UNL     1       8.009 -14.533   5.314  0.00  0.00    -0.084 Cl
ENDBRANCH  25  27
ENDBRANCH  23  25
ENDBRANCH  20  21
ENDBRANCH  19  20
ENDBRANCH   3  19
TORSDOF 6
