REMARK  Name = ZINC19843069
REMARK  6 active torsions:
REMARK  status: ('A' for Active; 'I' for Inactive)
REMARK    1  A    between atoms: C_1  and  C_2
REMARK    2  A    between atoms: N_8  and  C_9
REMARK    3  A    between atoms: C_9  and  C_11
REMARK    4  A    between atoms: C_9  and  C_18
REMARK    5  A    between atoms: C_14  and  O_17
REMARK    6  A    between atoms: C_24  and  C_29
REMARK                            x       y       z     vdW  Elec       q    Type
REMARK                         _______ _______ _______ _____ _____    ______ ____
ROOT
ATOM      1  C   UNL     1       4.797   4.114  -0.022  0.00  0.00    +0.136 C 
ENDROOT
BRANCH   1   2
ATOM      2  C   UNL     1       3.570   3.240   0.016  0.00  0.00    +0.026 A 
ATOM      3  C   UNL     1       3.705   1.861  -0.121  0.00  0.00    +0.010 A 
ATOM      4  C   UNL     1       2.617   1.044  -0.090  0.00  0.00    +0.010 A 
ATOM      5  C   UNL     1       1.336   1.596   0.081  0.00  0.00    +0.004 A 
ATOM      6  C   UNL     1       0.187   0.783   0.117  0.00  0.00    +0.012 A 
ATOM      7  C   UNL     1      -1.025   1.390   0.281  0.00  0.00    +0.023 A 
ATOM      8  C   UNL     1      -1.097   2.775   0.417  0.00  0.00    +0.039 A 
ATOM      9  N   UNL     1      -0.025   3.527   0.383  0.00  0.00    -0.248 NA
ATOM     10  C   UNL     1       1.191   2.998   0.221  0.00  0.00    +0.118 A 
ATOM     11  C   UNL     1       2.342   3.813   0.184  0.00  0.00    +0.210 A 
ATOM     12  O   UNL     1       2.229   5.160   0.316  0.00  0.00    -0.285 OA
ATOM     13  C   UNL     1      -2.445   3.425   0.602  0.00  0.00    +0.065 C 
ENDBRANCH   1   2
BRANCH   1  21
ATOM     14  C   UNL     1       4.795   4.289   5.102  0.00  0.00    +0.044 C 
ATOM     15  C   UNL     1       5.646   3.612   4.058  0.00  0.00    -0.046 A 
ATOM     16  C   UNL     1       6.698   2.785   4.426  0.00  0.00    +0.021 A 
ATOM     17  C   UNL     1       7.458   2.180   3.446  0.00  0.00    +0.084 A 
ATOM     18  N   UNL     1       7.193   2.374   2.168  0.00  0.00    -0.350 N 
ATOM     19  C   UNL     1       6.201   3.160   1.776  0.00  0.00    +0.097 A 
ATOM     20  C   UNL     1       5.395   3.801   2.711  0.00  0.00    +0.045 A 
ATOM     21  N   UNL     1       5.961   3.341   0.419  0.00  0.00    -0.320 N 
ATOM     22  H   UNL     1       6.644   2.903  -0.324  0.00  0.00    +0.148 HD
ATOM     23  H   UNL     1       7.801   1.878   1.398  0.00  0.00    +0.166 HD
ENDBRANCH   1  21
BRANCH   1  24
ATOM     24  C   UNL     1       5.023   4.602  -1.430  0.00  0.00    -0.023 A 
ATOM     25  C   UNL     1       5.511   3.736  -2.391  0.00  0.00    +0.009 A 
ATOM     26  C   UNL     1       5.713   4.180  -3.683  0.00  0.00    +0.046 A 
ATOM     27  C   UNL     1       5.437   5.499  -4.014  0.00  0.00    +0.117 A 
ATOM     28  C   UNL     1       4.953   6.367  -3.046  0.00  0.00    +0.046 A 
ATOM     29  C   UNL     1       4.747   5.917  -1.756  0.00  0.00    +0.009 A 
BRANCH  27  30
ATOM     30  O   UNL     1       5.641   5.940  -5.283  0.00  0.00    -0.507 OA
ATOM     31  H   UNL     1       5.422   6.986  -5.544  0.00  0.00    +0.292 HD
ENDBRANCH  27  30
ENDBRANCH   1  24
TORSDOF 4
