REMARK  Name = ZINC39666434
REMARK  7 active torsions:
REMARK  status: ('A' for Active; 'I' for Inactive)
REMARK    1  A    between atoms: C_1  and  C_2
REMARK    2  A    between atoms: C_2  and  C_4
REMARK    3  A    between atoms: C_2  and  O_28
REMARK    4  A    between atoms: C_4  and  N_5
REMARK    5  A    between atoms: C_6  and  C_8
REMARK    6  A    between atoms: C_19  and  C_21
REMARK    7  A    between atoms: O_28  and  C_29
REMARK                            x       y       z     vdW  Elec       q    Type
REMARK                         _______ _______ _______ _____ _____    ______ ____
ROOT
ATOM      1  C   UNL     1       2.849  -2.168   3.171  0.00  0.00    +0.100 C 
ATOM      2  C   UNL     1       1.507  -2.896   3.408  0.00  0.00    +0.121 C 
ATOM      3  N   UNL     1       1.791  -3.860   4.498  0.00  0.00    -0.296 N 
ATOM      4  C   UNL     1       2.683  -3.119   5.422  0.00  0.00    +0.115 C 
ATOM      5  C   UNL     1       3.618  -2.317   4.495  0.00  0.00    -0.004 C 
ATOM      6  C   UNL     1       4.919  -3.080   4.268  0.00  0.00    -0.010 C 
ATOM      7  C   UNL     1       5.692  -3.165   5.587  0.00  0.00    -0.082 C 
ATOM      8  N   UNL     1       5.976  -1.811   6.078  0.00  0.00    +0.379 N 
ATOM      9  C   UNL     1       4.720  -1.116   6.382  0.00  0.00    -0.082 C 
ATOM     10  C   UNL     1       3.905  -0.944   5.097  0.00  0.00    -0.010 C 
ATOM     11  C   UNL     1       1.340  -5.124   4.621  0.00  0.00    +0.247 C 
ATOM     12  O   UNL     1       0.699  -5.631   3.722  0.00  0.00    -0.270 OA
ATOM     13  H   UNL     1       6.537  -1.869   6.914  0.00  0.00    -0.086 HD
ATOM     14  H   UNL     1       6.481  -1.298   5.372  0.00  0.00    -0.086 HD
ENDROOT
BRANCH  11  15
ATOM     15  C   UNL     1       1.625  -5.893   5.850  0.00  0.00    +0.037 A 
ATOM     16  C   UNL     1       1.944  -5.228   7.036  0.00  0.00    +0.014 A 
ATOM     17  C   UNL     1       2.208  -5.952   8.179  0.00  0.00    +0.021 A 
ATOM     18  C   UNL     1       2.158  -7.336   8.154  0.00  0.00    +0.041 A 
ATOM     19  C   UNL     1       1.842  -8.001   6.981  0.00  0.00    +0.021 A 
ATOM     20  C   UNL     1       1.570  -7.288   5.832  0.00  0.00    +0.014 A 
ATOM     21 CL   UNL     1       2.493  -8.240   9.597  0.00  0.00    -0.084 Cl
ENDBRANCH  11  15
BRANCH   1  23
ATOM     22  N   UNL     1       3.476  -0.037   2.083  0.00  0.00    -0.312 N 
ATOM     23  C   UNL     1       2.610  -0.713   2.864  0.00  0.00    +0.218 C 
ATOM     24  O   UNL     1       1.637  -0.149   3.319  0.00  0.00    -0.275 OA
ATOM     25  H   UNL     1       4.254  -0.488   1.719  0.00  0.00    +0.149 HD
BRANCH  22  26
ATOM     26  C   UNL     1       3.243   1.378   1.784  0.00  0.00    +0.148 C 
BRANCH  26  28
ATOM     27  C   UNL     1       4.122   3.379   0.573  0.00  0.00    +0.053 C 
ATOM     28  C   UNL     1       4.365   1.901   0.886  0.00  0.00    +0.187 C 
BRANCH  28  29
ATOM     29  O   UNL     1       5.619   1.756   1.556  0.00  0.00    -0.486 OA
BRANCH  29  30
ATOM     30  C   UNL     1       6.729   1.665   0.776  0.00  0.00    +0.139 A 
ATOM     31  C   UNL     1       6.628   1.830  -0.598  0.00  0.00    +0.047 A 
ATOM     32  C   UNL     1       7.757   1.737  -1.388  0.00  0.00    +0.004 A 
ATOM     33  C   UNL     1       8.987   1.479  -0.812  0.00  0.00    +0.002 A 
ATOM     34  C   UNL     1       9.091   1.314   0.557  0.00  0.00    +0.023 A 
ATOM     35  C   UNL     1       7.965   1.411   1.353  0.00  0.00    +0.083 A 
ATOM     36 CL   UNL     1       8.097   1.211   3.072  0.00  0.00    -0.080 Cl
ENDBRANCH  29  30
ENDBRANCH  28  29
ENDBRANCH  26  28
ENDBRANCH  22  26
ENDBRANCH   1  23
TORSDOF 6
