REMARK  Name = ZINC20722807
REMARK  3 active torsions:
REMARK  status: ('A' for Active; 'I' for Inactive)
REMARK    1  A    between atoms: C_1  and  N_2
REMARK    2  A    between atoms: C_3  and  C_22
REMARK    3  A    between atoms: C_5  and  C_10
REMARK                            x       y       z     vdW  Elec       q    Type
REMARK                         _______ _______ _______ _____ _____    ______ ____
ROOT
ATOM      1  C   UNL     1       0.466   1.439   0.132  0.00  0.00    +0.132 C 
ATOM      2  N   UNL     1       0.287  -0.013   0.049  0.00  0.00    -0.297 N 
ATOM      3  C   UNL     1      -1.016  -0.688   0.045  0.00  0.00    +0.118 C 
ATOM      4  C   UNL     1      -0.741  -2.112  -0.485  0.00  0.00    +0.109 C 
ATOM      5  C   UNL     1       0.747  -2.306  -0.113  0.00  0.00    +0.111 C 
ATOM      6  C   UNL     1       1.295  -0.898  -0.039  0.00  0.00    +0.217 C 
ATOM      7  O   UNL     1       2.473  -0.609  -0.054  0.00  0.00    -0.276 OA
ENDROOT
BRANCH   4   8
ATOM      8  C   UNL     1      -0.938  -2.179  -1.978  0.00  0.00    +0.224 C 
ATOM      9  O   UNL     1      -0.023  -1.896  -2.723  0.00  0.00    -0.275 OA
ATOM     10  N   UNL     1      -2.129  -2.553  -2.485  0.00  0.00    -0.264 N 
ATOM     11  C   UNL     1      -2.309  -2.614  -3.857  0.00  0.00    +0.165 A 
ATOM     12  N   UNL     1      -1.448  -2.355  -4.813  0.00  0.00    -0.225 NA
ATOM     13  C   UNL     1      -1.764  -2.458  -6.122  0.00  0.00    +0.080 A 
ATOM     14  C   UNL     1      -0.937  -2.208  -7.242  0.00  0.00    +0.029 A 
ATOM     15  C   UNL     1      -1.418  -2.361  -8.516  0.00  0.00    +0.002 A 
ATOM     16  C   UNL     1      -2.725  -2.763  -8.754  0.00  0.00    +0.001 A 
ATOM     17  C   UNL     1      -3.561  -3.016  -7.682  0.00  0.00    +0.017 A 
ATOM     18  C   UNL     1      -3.088  -2.865  -6.403  0.00  0.00    +0.041 A 
ATOM     19  S   UNL     1      -3.771  -3.075  -4.776  0.00  0.00    -0.052 S 
ATOM     20  H   UNL     1      -2.860  -2.780  -1.889  0.00  0.00    +0.157 HD
ENDBRANCH   4   8
BRANCH   3  21
ATOM     21  C   UNL     1      -1.975   0.034  -0.866  0.00  0.00    -0.026 A 
ATOM     22  C   UNL     1      -1.517   0.605  -2.039  0.00  0.00    +0.005 A 
ATOM     23  C   UNL     1      -2.396   1.267  -2.875  0.00  0.00    +0.000 A 
ATOM     24  C   UNL     1      -3.733   1.358  -2.539  0.00  0.00    +0.000 A 
ATOM     25  C   UNL     1      -4.192   0.787  -1.366  0.00  0.00    +0.000 A 
ATOM     26  C   UNL     1      -3.314   0.121  -0.532  0.00  0.00    +0.005 A 
ENDBRANCH   3  21
TORSDOF 2
