REMARK  Name = ZINC67244460
REMARK  5 active torsions:
REMARK  status: ('A' for Active; 'I' for Inactive)
REMARK    1  A    between atoms: C_1  and  N_2
REMARK    2  A    between atoms: N_2  and  C_3
REMARK    3  A    between atoms: N_2  and  C_4
REMARK    4  A    between atoms: N_13  and  S_15
REMARK    5  A    between atoms: S_15  and  C_18
REMARK                            x       y       z     vdW  Elec       q    Type
REMARK                         _______ _______ _______ _____ _____    ______ ____
ROOT
ATOM      1  C   UNL     1      -1.542  -0.629   0.268  0.00  0.00    -0.046 C 
ATOM      2  C   UNL     1      -1.438  -2.133   0.015  0.00  0.00    +0.023 C 
ATOM      3  C   UNL     1      -2.759  -2.680  -0.458  0.00  0.00    -0.026 A 
ATOM      4  C   UNL     1      -3.006  -4.037  -0.330  0.00  0.00    +0.005 A 
ATOM      5  C   UNL     1      -4.207  -4.570  -0.756  0.00  0.00    +0.000 A 
ATOM      6  C   UNL     1      -5.171  -3.750  -1.315  0.00  0.00    +0.002 A 
ATOM      7  C   UNL     1      -4.933  -2.397  -1.446  0.00  0.00    +0.025 A 
ATOM      8  C   UNL     1      -3.725  -1.858  -1.015  0.00  0.00    +0.054 A 
ATOM      9  N   UNL     1      -3.507  -0.482  -1.148  0.00  0.00    -0.204 N 
ATOM     10  C   UNL     1      -2.147   0.043  -0.972  0.00  0.00    +0.117 C 
ENDROOT
BRANCH   1  12
ATOM     11  C   UNL     1      -0.304   1.367   0.757  0.00  0.00    -0.096 C 
ATOM     12  N   UNL     1      -0.203  -0.079   0.521  0.00  0.00    +0.379 N 
ATOM     13  C   UNL     1       0.377  -0.729   1.704  0.00  0.00    -0.096 C 
ATOM     14  H   UNL     1       0.388  -0.249  -0.279  0.00  0.00    -0.082 HD
ENDBRANCH   1  12
BRANCH   9  15
ATOM     15  S   UNL     1      -4.763   0.539  -1.497  0.00  0.00    +0.078 S 
ATOM     16  O   UNL     1      -5.926  -0.033  -0.913  0.00  0.00    -0.150 OA
ATOM     17  O   UNL     1      -4.319   1.851  -1.183  0.00  0.00    -0.150 OA
BRANCH  15  18
ATOM     18  C   UNL     1      -5.003   0.493  -3.242  0.00  0.00    +0.146 A 
ATOM     19  C   UNL     1      -4.401   1.296  -4.150  0.00  0.00    +0.133 A 
ATOM     20  N   UNL     1      -4.850   0.944  -5.373  0.00  0.00    -0.283 N 
ATOM     21  H   UNL     1      -4.590   1.349  -6.215  0.00  0.00    +0.188 HD
ATOM     22  N   UNL     1      -5.758  -0.111  -5.211  0.00  0.00    -0.180 NA
ATOM     23  C   UNL     1      -5.844  -0.384  -3.935  0.00  0.00    +0.163 A 
ENDBRANCH  15  18
ENDBRANCH   9  15
TORSDOF 3
