REMARK  Name = ZINC16742485
REMARK  1 active torsions:
REMARK  status: ('A' for Active; 'I' for Inactive)
REMARK    1  A    between atoms: C_1  and  N_2
REMARK                            x       y       z     vdW  Elec       q    Type
REMARK                         _______ _______ _______ _____ _____    ______ ____
ROOT
ATOM      1  C   UNL     1       2.956  -4.740  -1.631  0.00  0.00    +0.138 C 
ATOM      2  N   UNL     1       2.208  -3.824  -0.767  0.00  0.00    -0.272 N 
ATOM      3  C   UNL     1       2.254  -3.855   0.628  0.00  0.00    +0.042 A 
ATOM      4  C   UNL     1       2.959  -4.684   1.497  0.00  0.00    +0.024 A 
ATOM      5  C   UNL     1       2.844  -4.517   2.861  0.00  0.00    +0.002 A 
ATOM      6  C   UNL     1       2.030  -3.526   3.377  0.00  0.00    +0.000 A 
ATOM      7  C   UNL     1       1.326  -2.698   2.521  0.00  0.00    +0.008 A 
ATOM      8  C   UNL     1       1.437  -2.862   1.158  0.00  0.00    +0.011 A 
ATOM      9  C   UNL     1       0.826  -2.152  -0.021  0.00  0.00    +0.172 C 
ATOM     10  C   UNL     1       1.395  -2.854  -1.227  0.00  0.00    +0.253 C 
ATOM     11  O   UNL     1       1.165  -2.595  -2.390  0.00  0.00    -0.272 OA
ATOM     12  C   UNL     1       1.172  -0.692  -0.021  0.00  0.00    +0.084 A 
ATOM     13  C   UNL     1       2.444   0.036  -0.038  0.00  0.00    +0.199 A 
ATOM     14  O   UNL     1       3.513  -0.547  -0.066  0.00  0.00    -0.287 OA
ATOM     15  C   UNL     1       2.365   1.510  -0.021  0.00  0.00    +0.064 A 
ATOM     16  C   UNL     1       3.514   2.300  -0.028  0.00  0.00    +0.015 A 
ATOM     17  C   UNL     1       3.397   3.662  -0.013  0.00  0.00    +0.001 A 
ATOM     18  C   UNL     1       2.144   4.259   0.010  0.00  0.00    +0.004 A 
ATOM     19  C   UNL     1       0.998   3.494   0.018  0.00  0.00    +0.047 A 
ATOM     20  C   UNL     1       1.092   2.105   0.003  0.00  0.00    +0.139 A 
ATOM     21  O   UNL     1      -0.016   1.343   0.009  0.00  0.00    -0.450 OA
ATOM     22  C   UNL     1       0.002  -0.004   0.002  0.00  0.00    +0.200 A 
ATOM     23  C   UNL     1      -1.115  -0.982   0.016  0.00  0.00    +0.281 C 
ATOM     24  O   UNL     1      -2.295  -0.691   0.036  0.00  0.00    -0.267 OA
ATOM     25  N   UNL     1      -0.632  -2.239   0.003  0.00  0.00    -0.287 N 
ATOM     26  H   UNL     1      -1.158  -3.055   0.009  0.00  0.00    +0.151 HD
ENDROOT
TORSDOF 0
