REMARK  Name = ZINC41393962
REMARK  3 active torsions:
REMARK  status: ('A' for Active; 'I' for Inactive)
REMARK    1  A    between atoms: C_1  and  C_2
REMARK    2  A    between atoms: C_2  and  N_3
REMARK    3  A    between atoms: N_13  and  C_14
REMARK                            x       y       z     vdW  Elec       q    Type
REMARK                         _______ _______ _______ _____ _____    ______ ____
ROOT
ATOM      1  N   UNL     1       0.745  -0.245  -1.281  0.00  0.00    -0.280 N 
ATOM      2  C   UNL     1       0.044  -0.424  -2.416  0.00  0.00    +0.264 A 
ATOM      3  O   UNL     1      -1.115  -0.053  -2.491  0.00  0.00    -0.267 OA
ATOM      4  C   UNL     1       0.678  -1.054  -3.533  0.00  0.00    +0.076 A 
ATOM      5  C   UNL     1       0.112  -1.348  -4.851  0.00  0.00    -0.023 A 
ATOM      6  C   UNL     1       0.922  -1.955  -5.743  0.00  0.00    -0.004 A 
ATOM      7  S   UNL     1       2.464  -2.168  -4.895  0.00  0.00    -0.073 S 
ATOM      8  C   UNL     1       2.015  -1.440  -3.339  0.00  0.00    +0.117 A 
ATOM      9  N   UNL     1       2.651  -1.235  -2.191  0.00  0.00    -0.208 NA
ATOM     10  C   UNL     1       2.044  -0.647  -1.180  0.00  0.00    +0.204 A 
ATOM     11  N   UNL     1       2.728  -0.442  -0.007  0.00  0.00    -0.285 N 
ATOM     12  C   UNL     1       0.585  -2.360  -7.145  0.00  0.00    +0.043 C 
ATOM     13  C   UNL     1      -0.941  -2.320  -7.308  0.00  0.00    +0.005 C 
ATOM     14  C   UNL     1      -1.461  -0.995  -6.741  0.00  0.00    +0.005 C 
ATOM     15  C   UNL     1      -1.326  -0.993  -5.218  0.00  0.00    +0.037 C 
ATOM     16  H   UNL     1       2.266  -0.086   0.768  0.00  0.00    +0.155 HD
ENDROOT
BRANCH  11  17
ATOM     17  C   UNL     1       4.093  -0.748   0.071  0.00  0.00    +0.037 A 
ATOM     18  C   UNL     1       4.906  -0.583  -1.042  0.00  0.00    +0.027 A 
ATOM     19  C   UNL     1       6.252  -0.885  -0.967  0.00  0.00    +0.051 A 
ATOM     20  C   UNL     1       6.795  -1.352   0.220  0.00  0.00    +0.166 A 
ATOM     21  C   UNL     1       5.981  -1.519   1.338  0.00  0.00    +0.168 A 
ATOM     22  C   UNL     1       4.633  -1.211   1.263  0.00  0.00    +0.072 A 
ATOM     23  O   UNL     1       6.746  -1.986   2.368  0.00  0.00    -0.453 OA
ATOM     24  C   UNL     1       7.948  -2.491   1.756  0.00  0.00    +0.466 C 
ATOM     25  O   UNL     1       8.069  -1.716   0.550  0.00  0.00    -0.453 OA
ENDBRANCH  11  17
BRANCH   1  27
ATOM     26  C   UNL     1       0.314   1.913  -0.213  0.00  0.00    +0.027 C 
ATOM     27  C   UNL     1       0.102   0.400  -0.133  0.00  0.00    +0.125 C 
ENDBRANCH   1  27
TORSDOF 2
