REMARK  Name = ZINC34092369
REMARK  11 active torsions:
REMARK  status: ('A' for Active; 'I' for Inactive)
REMARK    1  A    between atoms: C_1  and  C_2
REMARK    2  A    between atoms: C_2  and  O_3
REMARK    3  A    between atoms: O_3  and  C_4
REMARK    4  A    between atoms: C_4  and  C_6
REMARK    5  A    between atoms: C_8  and  C_35
REMARK    6  A    between atoms: C_15  and  C_26
REMARK    7  A    between atoms: C_17  and  C_21
REMARK    8  A    between atoms: C_18  and  C_20
REMARK    9  A    between atoms: C_21  and  O_23
REMARK   10  A    between atoms: O_23  and  C_24
REMARK   11  A    between atoms: C_24  and  C_25
REMARK                            x       y       z     vdW  Elec       q    Type
REMARK                         _______ _______ _______ _____ _____    ______ ____
ROOT
ATOM      1  C   UNL     1      -3.086  -2.574   0.278  0.00  0.00    +0.171 C 
ATOM      2  C   UNL     1      -3.209  -4.098   0.388  0.00  0.00    +0.013 C 
ATOM      3  C   UNL     1      -4.671  -4.485   0.153  0.00  0.00    +0.055 C 
ATOM      4  C   UNL     1      -5.113  -3.995  -1.203  0.00  0.00    +0.016 C 
ATOM      5  C   UNL     1      -4.587  -2.876  -1.744  0.00  0.00    +0.025 C 
ATOM      6  C   UNL     1      -3.602  -2.135  -1.066  0.00  0.00    +0.176 C 
ATOM      7  O   UNL     1      -3.158  -1.125  -1.574  0.00  0.00    -0.291 OA
ATOM      8  C   UNL     1      -5.047  -2.382  -3.093  0.00  0.00    +0.092 C 
ATOM      9  C   UNL     1      -5.749  -3.469  -3.852  0.00  0.00    +0.065 C 
ATOM     10  C   UNL     1      -6.220  -4.563  -3.229  0.00  0.00    +0.016 C 
ATOM     11  N   UNL     1      -6.062  -4.714  -1.880  0.00  0.00    -0.321 N 
ATOM     12  C   UNL     1      -6.926  -5.631  -4.024  0.00  0.00    +0.061 C 
ATOM     13  C   UNL     1      -2.771  -4.550   1.782  0.00  0.00    +0.009 C 
ATOM     14  H   UNL     1      -6.627  -5.337  -1.397  0.00  0.00    +0.152 HD
ENDROOT
BRANCH   8  15
ATOM     15  C   UNL     1      -5.992  -1.224  -2.900  0.00  0.00    -0.032 A 
ATOM     16  C   UNL     1      -7.160  -1.399  -2.181  0.00  0.00    +0.008 A 
ATOM     17  C   UNL     1      -8.030  -0.340  -2.002  0.00  0.00    +0.050 A 
ATOM     18  C   UNL     1      -7.732   0.900  -2.542  0.00  0.00    +0.166 A 
ATOM     19  C   UNL     1      -6.556   1.077  -3.267  0.00  0.00    +0.167 A 
ATOM     20  C   UNL     1      -5.686   0.012  -3.438  0.00  0.00    +0.054 A 
ATOM     21  O   UNL     1      -6.494   2.373  -3.690  0.00  0.00    -0.453 OA
ATOM     22  C   UNL     1      -7.836   2.882  -3.567  0.00  0.00    +0.466 C 
ATOM     23  O   UNL     1      -8.408   2.086  -2.512  0.00  0.00    -0.453 OA
ENDBRANCH   8  15
BRANCH   1  24
ATOM     24  C   UNL     1      -1.640  -2.174   0.418  0.00  0.00    +0.318 C 
ATOM     25  O   UNL     1      -0.793  -3.018   0.593  0.00  0.00    -0.250 OA
BRANCH  24  26
ATOM     26  O   UNL     1      -1.292  -0.879   0.350  0.00  0.00    -0.464 OA
BRANCH  26  28
ATOM     27  C   UNL     1       0.297   0.941   0.386  0.00  0.00    +0.048 C 
ATOM     28  C   UNL     1       0.096  -0.572   0.491  0.00  0.00    +0.229 C 
ENDBRANCH  26  28
ENDBRANCH  24  26
ENDBRANCH   1  24
BRANCH   9  29
ATOM     29  C   UNL     1      -5.920  -3.340  -5.250  0.00  0.00    +0.338 C 
ATOM     30  O   UNL     1      -6.377  -4.264  -5.896  0.00  0.00    -0.245 OA
BRANCH  29  31
ATOM     31  O   UNL     1      -5.576  -2.190  -5.869  0.00  0.00    -0.462 OA
BRANCH  31  32
ATOM     32  C   UNL     1      -5.776  -2.129  -7.282  0.00  0.00    +0.229 C 
ATOM     33  C   UNL     1      -5.332  -0.760  -7.801  0.00  0.00    +0.048 C 
ENDBRANCH  31  32
ENDBRANCH  29  31
ENDBRANCH   9  29
TORSDOF 7
