REMARK  Name = ZINC14675316
REMARK  11 active torsions:
REMARK  status: ('A' for Active; 'I' for Inactive)
REMARK    1  A    between atoms: C_1  and  C_2
REMARK    2  A    between atoms: C_2  and  N_3
REMARK    3  A    between atoms: C_4  and  C_23
REMARK    4  A    between atoms: C_7  and  S_8
REMARK    5  A    between atoms: S_8  and  C_9
REMARK    6  A    between atoms: C_9  and  C_11
REMARK    7  A    between atoms: C_9  and  C_12
REMARK    8  A    between atoms: C_26  and  C_29
REMARK    9  A    between atoms: C_29  and  C_30
REMARK   10  A    between atoms: C_29  and  C_31
REMARK   11  A    between atoms: C_29  and  C_32
REMARK                            x       y       z     vdW  Elec       q    Type
REMARK                         _______ _______ _______ _____ _____    ______ ____
ROOT
ATOM      1  N   UNL     1       3.527   0.999  -1.881  0.00  0.00    -0.302 N 
ATOM      2  C   UNL     1       3.633   0.198  -2.994  0.00  0.00    +0.165 A 
ATOM      3  N   UNL     1       2.454  -0.345  -3.192  0.00  0.00    -0.128 NA
ATOM      4  N   UNL     1       1.632   0.052  -2.288  0.00  0.00    -0.122 NA
ATOM      5  C   UNL     1       2.233   0.880  -1.463  0.00  0.00    +0.193 A 
ENDROOT
BRANCH   2   6
ATOM      6  C   UNL     1       4.846  -0.012  -3.813  0.00  0.00    +0.019 A 
ATOM      7  C   UNL     1       6.105   0.290  -3.292  0.00  0.00    +0.012 A 
ATOM      8  C   UNL     1       7.233   0.087  -4.060  0.00  0.00    +0.005 A 
ATOM      9  C   UNL     1       7.117  -0.405  -5.348  0.00  0.00    -0.042 A 
ATOM     10  C   UNL     1       5.872  -0.702  -5.873  0.00  0.00    +0.005 A 
ATOM     11  C   UNL     1       4.736  -0.508  -5.113  0.00  0.00    +0.012 A 
BRANCH   9  12
ATOM     12  C   UNL     1       8.353  -0.619  -6.183  0.00  0.00    -0.013 C 
ATOM     13  C   UNL     1       8.269   0.239  -7.447  0.00  0.00    +0.015 C 
ATOM     14  C   UNL     1       9.590  -0.217  -5.376  0.00  0.00    +0.015 C 
ATOM     15  C   UNL     1       8.456  -2.094  -6.574  0.00  0.00    +0.015 C 
ENDBRANCH   9  12
ENDBRANCH   2   6
BRANCH   1  17
ATOM     16  C   UNL     1       5.273   1.006  -0.168  0.00  0.00    +0.027 C 
ATOM     17  C   UNL     1       4.583   1.811  -1.271  0.00  0.00    +0.122 C 
ENDBRANCH   1  17
BRANCH   5  18
ATOM     18  S   UNL     1       1.505   1.681  -0.072  0.00  0.00    -0.074 S 
BRANCH  18  19
ATOM     19  C   UNL     1      -0.181   1.033  -0.183  0.00  0.00    +0.137 C 
ATOM     20  C   UNL     1      -0.839   1.541  -1.468  0.00  0.00    +0.029 C 
BRANCH  19  21
ATOM     21  C   UNL     1      -0.978   1.501   1.008  0.00  0.00    +0.231 C 
ATOM     22  O   UNL     1      -0.660   2.516   1.589  0.00  0.00    -0.274 OA
ATOM     23  N   UNL     1      -2.044   0.790   1.426  0.00  0.00    -0.268 N 
ATOM     24  C   UNL     1      -2.782   1.223   2.528  0.00  0.00    +0.143 A 
ATOM     25  C   UNL     1      -3.885   0.487   2.951  0.00  0.00    +0.082 A 
ATOM     26  C   UNL     1      -4.604   0.925   4.050  0.00  0.00    +0.045 A 
ATOM     27  C   UNL     1      -4.201   2.094   4.683  0.00  0.00    +0.061 A 
ATOM     28  C   UNL     1      -3.099   2.776   4.205  0.00  0.00    +0.133 A 
ATOM     29  N   UNL     1      -2.429   2.332   3.158  0.00  0.00    -0.237 NA
ATOM     30 CL   UNL     1      -5.072   2.691   6.061  0.00  0.00    -0.082 Cl
ATOM     31 CL   UNL     1      -4.348  -0.963   2.116  0.00  0.00    -0.080 Cl
ATOM     32  H   UNL     1      -2.299  -0.022   0.961  0.00  0.00    +0.156 HD
ENDBRANCH  19  21
ENDBRANCH  18  19
ENDBRANCH   5  18
TORSDOF 6
