REMARK  Name = ZINC40985609
REMARK  12 active torsions:
REMARK  status: ('A' for Active; 'I' for Inactive)
REMARK    1  A    between atoms: C_1  and  C_2
REMARK    2  A    between atoms: C_2  and  C_3
REMARK    3  A    between atoms: C_3  and  S_4
REMARK    4  A    between atoms: S_4  and  C_5
REMARK    5  A    between atoms: C_8  and  C_12
REMARK    6  A    between atoms: N_14  and  C_15
REMARK    7  A    between atoms: C_15  and  C_16
REMARK    8  A    between atoms: C_16  and  C_18
REMARK    9  A    between atoms: C_16  and  N_27
REMARK   10  A    between atoms: C_21  and  C_24
REMARK   11  A    between atoms: C_24  and  C_25
REMARK   12  A    between atoms: C_24  and  C_26
REMARK                            x       y       z     vdW  Elec       q    Type
REMARK                         _______ _______ _______ _____ _____    ______ ____
ROOT
ATOM      1  C   UNL     1       5.195  -1.784   8.893  0.00  0.00    -0.020 C 
ENDROOT
BRANCH   1   2
ATOM      2  N   UNL     1       5.852  -0.881   7.938  0.00  0.00    +0.385 N 
ATOM      3  C   UNL     1       6.258   0.348   8.630  0.00  0.00    -0.078 C 
ATOM      4  C   UNL     1       7.014   1.258   7.660  0.00  0.00    -0.019 C 
ATOM      5  C   UNL     1       6.101   1.611   6.483  0.00  0.00    -0.004 C 
ATOM      6  C   UNL     1       5.624   0.319   5.814  0.00  0.00    -0.019 C 
ATOM      7  C   UNL     1       4.919  -0.556   6.853  0.00  0.00    -0.078 C 
ATOM      8  H   UNL     1       6.668  -1.334   7.555  0.00  0.00    -0.081 HD
ENDBRANCH   1   2
BRANCH   1   9
ATOM      9  C   UNL     1       6.135  -2.080  10.033  0.00  0.00    -0.059 A 
ATOM     10  C   UNL     1       7.480  -2.282   9.786  0.00  0.00    +0.002 A 
ATOM     11  C   UNL     1       8.342  -2.553  10.832  0.00  0.00    +0.004 A 
ATOM     12  C   UNL     1       7.859  -2.622  12.125  0.00  0.00    -0.045 A 
ATOM     13  C   UNL     1       6.515  -2.418  12.373  0.00  0.00    +0.004 A 
ATOM     14  C   UNL     1       5.653  -2.143  11.327  0.00  0.00    +0.002 A 
BRANCH  12  15
ATOM     15  C   UNL     1       8.799  -2.918  13.265  0.00  0.00    +0.013 C 
ATOM     16  C   UNL     1       8.778  -1.755  14.259  0.00  0.00    +0.012 C 
ATOM     17  C   UNL     1       8.355  -4.200  13.972  0.00  0.00    +0.012 C 
ENDBRANCH  12  15
ENDBRANCH   1   9
BRANCH   1  18
ATOM     18  C   UNL     1       4.824  -3.090   8.187  0.00  0.00    +0.094 C 
BRANCH  18  21
ATOM     19  C   UNL     1       3.572  -5.121   8.680  0.00  0.00    +0.248 C 
ATOM     20  O   UNL     1       3.723  -5.460   7.522  0.00  0.00    -0.270 OA
ATOM     21  N   UNL     1       4.085  -3.952   9.112  0.00  0.00    -0.312 N 
ATOM     22  H   UNL     1       3.964  -3.682  10.036  0.00  0.00    +0.149 HD
BRANCH  19  26
ATOM     23  C   UNL     1       1.474  -7.569  11.305  0.00  0.00    +0.190 A 
ATOM     24  N   UNL     1       1.971  -6.421  11.750  0.00  0.00    -0.229 NA
ATOM     25  C   UNL     1       2.643  -5.617  10.949  0.00  0.00    +0.129 A 
ATOM     26  C   UNL     1       2.828  -5.989   9.611  0.00  0.00    +0.092 A 
ATOM     27  C   UNL     1       2.286  -7.210   9.180  0.00  0.00    +0.146 A 
ATOM     28  N   UNL     1       1.631  -7.961  10.047  0.00  0.00    -0.209 NA
ATOM     29 CL   UNL     1       2.480  -7.729   7.535  0.00  0.00    -0.061 Cl
BRANCH  23  30
ATOM     30  S   UNL     1       0.584  -8.604  12.419  0.00  0.00    -0.086 S 
BRANCH  30  31
ATOM     31  C   UNL     1       0.617  -7.693  13.987  0.00  0.00    +0.077 C 
BRANCH  31  33
ATOM     32  C   UNL     1      -0.103  -7.722  16.380  0.00  0.00    +0.004 C 
ATOM     33  C   UNL     1      -0.131  -8.491  15.057  0.00  0.00    +0.008 C 
ENDBRANCH  31  33
ENDBRANCH  30  31
ENDBRANCH  23  30
ENDBRANCH  19  26
ENDBRANCH  18  21
ENDBRANCH   1  18
TORSDOF 9
