REMARK  Name = ZINC14471530
REMARK  7 active torsions:
REMARK  status: ('A' for Active; 'I' for Inactive)
REMARK    1  A    between atoms: C_4  and  C_7
REMARK    2  A    between atoms: C_7  and  C_8
REMARK    3  A    between atoms: C_8  and  N_9
REMARK    4  A    between atoms: N_9  and  S_10
REMARK    5  A    between atoms: S_10  and  C_13
REMARK    6  A    between atoms: C_26  and  C_29
REMARK    7  A    between atoms: C_33  and  N_35
REMARK                            x       y       z     vdW  Elec       q    Type
REMARK                         _______ _______ _______ _____ _____    ______ ____
ROOT
ATOM      1  C   UNL     1       1.175   2.078   0.002  0.00  0.00    +0.106 A 
ATOM      2  C   UNL     1      -0.017   1.376   0.010  0.00  0.00    +0.030 A 
ATOM      3  C   UNL     1       0.002  -0.004   0.002  0.00  0.00    +0.025 A 
ATOM      4  C   UNL     1       1.214  -0.683  -0.013  0.00  0.00    +0.031 A 
ATOM      5  C   UNL     1       2.411   0.016  -0.023  0.00  0.00    -0.018 A 
ATOM      6  C   UNL     1       2.379   1.404  -0.014  0.00  0.00    +0.034 A 
ATOM      7  C   UNL     1       3.739  -0.672  -0.044  0.00  0.00    +0.049 C 
ATOM      8  C   UNL     1       4.415  -0.610   1.305  0.00  0.00    -0.023 C 
ATOM      9  C   UNL     1       5.069  -1.722   1.536  0.00  0.00    -0.030 C 
ATOM     10  C   UNL     1       4.923  -2.677   0.367  0.00  0.00    +0.033 C 
ATOM     11  C   UNL     1       3.631  -2.179  -0.346  0.00  0.00    +0.029 C 
ATOM     12  C   UNL     1       2.438  -2.777   0.405  0.00  0.00    +0.105 C 
ATOM     13  N   UNL     1       1.216  -2.082  -0.015  0.00  0.00    -0.336 N 
ATOM     14  H   UNL     1       0.430  -2.580  -0.288  0.00  0.00    +0.147 HD
ENDROOT
BRANCH  12  15
ATOM     15  C   UNL     1       2.321  -4.244   0.081  0.00  0.00    -0.025 A 
ATOM     16  C   UNL     1       1.731  -4.645  -1.103  0.00  0.00    +0.005 A 
ATOM     17  C   UNL     1       1.624  -5.991  -1.401  0.00  0.00    +0.003 A 
ATOM     18  C   UNL     1       2.107  -6.936  -0.514  0.00  0.00    +0.033 A 
ATOM     19  C   UNL     1       2.697  -6.534   0.669  0.00  0.00    +0.127 A 
ATOM     20  C   UNL     1       2.808  -5.188   0.965  0.00  0.00    +0.038 A 
BRANCH  19  21
ATOM     21  N   UNL     1       3.214  -7.545   1.619  0.00  0.00    +0.056 N 
ATOM     22  O   UNL     1       3.119  -8.731   1.357  0.00  0.00    -0.126 OA
ATOM     23  O   UNL     1       3.734  -7.192   2.662  0.00  0.00    -0.126 OA
ENDBRANCH  19  21
ENDBRANCH  12  15
BRANCH   1  24
ATOM     24  S   UNL     1       1.157   3.840   0.012  0.00  0.00    +0.058 S 
ATOM     25  O   UNL     1       2.392   4.262  -0.548  0.00  0.00    -0.153 OA
ATOM     26  O   UNL     1      -0.098   4.235  -0.524  0.00  0.00    -0.153 OA
BRANCH  24  27
ATOM     27  N   UNL     1       1.167   4.320   1.597  0.00  0.00    -0.190 NA
ATOM     28  H   UNL     1       0.404   4.793   1.965  0.00  0.00    +0.148 HD
BRANCH  27  29
ATOM     29  C   UNL     1       2.328   4.032   2.442  0.00  0.00    +0.110 C 
BRANCH  29  30
ATOM     30  C   UNL     1       2.257   4.883   3.712  0.00  0.00    +0.052 C 
BRANCH  30  34
ATOM     31  C   UNL     1       5.643   4.043   6.178  0.00  0.00    +0.000 A 
ATOM     32  C   UNL     1       5.710   5.048   5.231  0.00  0.00    +0.000 A 
ATOM     33  C   UNL     1       4.614   5.320   4.433  0.00  0.00    +0.003 A 
ATOM     34  C   UNL     1       3.452   4.587   4.582  0.00  0.00    -0.046 A 
ATOM     35  C   UNL     1       3.383   3.585   5.532  0.00  0.00    +0.003 A 
ATOM     36  C   UNL     1       4.481   3.311   6.327  0.00  0.00    +0.000 A 
ENDBRANCH  30  34
ENDBRANCH  29  30
ENDBRANCH  27  29
ENDBRANCH  24  27
ENDBRANCH   1  24
TORSDOF 7
