REMARK  Name = ZINC13639769
REMARK  6 active torsions:
REMARK  status: ('A' for Active; 'I' for Inactive)
REMARK    1  A    between atoms: C_1  and  O_2
REMARK    2  A    between atoms: O_2  and  C_3
REMARK    3  A    between atoms: C_6  and  N_27
REMARK    4  A    between atoms: C_10  and  C_19
REMARK    5  A    between atoms: C_22  and  O_26
REMARK    6  A    between atoms: C_24  and  O_25
REMARK                            x       y       z     vdW  Elec       q    Type
REMARK                         _______ _______ _______ _____ _____    ______ ____
ROOT
ATOM      1  C   UNL     1       0.270   0.511   4.074  0.00  0.00    +0.141 A 
ATOM      2  C   UNL     1       1.233  -0.165   4.801  0.00  0.00    +0.050 A 
ATOM      3  C   UNL     1       1.282  -0.019   6.175  0.00  0.00    +0.037 A 
ATOM      4  C   UNL     1       0.376   0.799   6.816  0.00  0.00    +0.132 A 
ATOM      5  C   UNL     1      -0.596   1.485   6.097  0.00  0.00    +0.014 A 
ATOM      6  C   UNL     1      -0.646   1.345   4.722  0.00  0.00    +0.076 A 
ATOM      7  N   UNL     1      -1.598   2.005   3.941  0.00  0.00    -0.333 N 
ATOM      8  C   UNL     1      -2.071   3.239   4.571  0.00  0.00    +0.109 C 
ATOM      9  C   UNL     1      -2.661   2.915   5.946  0.00  0.00    +0.029 C 
ATOM     10  C   UNL     1      -1.547   2.361   6.857  0.00  0.00    +0.051 C 
ATOM     11  C   UNL     1      -0.832   3.611   7.352  0.00  0.00    -0.023 C 
ATOM     12  C   UNL     1      -1.612   4.657   7.244  0.00  0.00    -0.030 C 
ATOM     13  C   UNL     1      -2.956   4.261   6.665  0.00  0.00    +0.033 C 
ATOM     14  H   UNL     1      -1.243   2.186   3.014  0.00  0.00    +0.147 HD
ENDROOT
BRANCH   8  15
ATOM     15  C   UNL     1      -0.917   4.195   4.732  0.00  0.00    +0.015 A 
ATOM     16  C   UNL     1       0.354   3.708   4.974  0.00  0.00    +0.012 A 
ATOM     17  C   UNL     1       1.415   4.582   5.117  0.00  0.00    +0.046 A 
ATOM     18  C   UNL     1       1.205   5.951   5.029  0.00  0.00    +0.120 A 
ATOM     19  C   UNL     1      -0.070   6.441   4.791  0.00  0.00    +0.091 A 
ATOM     20  C   UNL     1      -1.132   5.562   4.643  0.00  0.00    +0.125 A 
BRANCH  20  21
ATOM     21  O   UNL     1      -2.382   6.040   4.409  0.00  0.00    -0.506 OA
ATOM     22  H   UNL     1      -2.855   6.311   5.208  0.00  0.00    +0.292 HD
ENDBRANCH  20  21
BRANCH  18  23
ATOM     23  O   UNL     1       2.248   6.810   5.175  0.00  0.00    -0.507 OA
ATOM     24  H   UNL     1       2.401   7.092   6.087  0.00  0.00    +0.292 HD
ENDBRANCH  18  23
ENDBRANCH   8  15
BRANCH   4  25
ATOM     25  N   UNL     1       0.438   0.948   8.288  0.00  0.00    +0.057 N 
ATOM     26  O   UNL     1       1.286   0.350   8.925  0.00  0.00    -0.126 OA
ATOM     27  O   UNL     1      -0.359   1.669   8.861  0.00  0.00    -0.126 OA
ENDBRANCH   4  25
BRANCH   1  29
ATOM     28  C   UNL     1       1.188  -0.492   2.123  0.00  0.00    +0.277 C 
ATOM     29  O   UNL     1       0.219   0.370   2.723  0.00  0.00    -0.493 OA
ENDBRANCH   1  29
TORSDOF 5
