REMARK  Name = ZINC20877083
REMARK  11 active torsions:
REMARK  status: ('A' for Active; 'I' for Inactive)
REMARK    1  A    between atoms: C_1  and  O_2
REMARK    2  A    between atoms: O_2  and  C_3
REMARK    3  A    between atoms: C_5  and  C_24
REMARK    4  A    between atoms: C_8  and  O_9
REMARK    5  A    between atoms: O_9  and  C_10
REMARK    6  A    between atoms: C_10  and  C_11
REMARK    7  A    between atoms: C_11  and  C_13
REMARK    8  A    between atoms: C_11  and  O_22
REMARK    9  A    between atoms: C_24  and  N_25
REMARK   10  A    between atoms: N_25  and  C_26
REMARK   11  A    between atoms: C_26  and  C_27
REMARK                            x       y       z     vdW  Elec       q    Type
REMARK                         _______ _______ _______ _____ _____    ______ ____
ROOT
ATOM      1  C   UNL     1       0.002  -0.004   0.002  0.00  0.00    +0.163 A 
ATOM      2  C   UNL     1       1.211  -0.682  -0.013  0.00  0.00    +0.051 A 
ATOM      3  C   UNL     1       1.228  -2.064  -0.020  0.00  0.00    -0.060 A 
ATOM      4  C   UNL     1       0.042  -2.774  -0.013  0.00  0.00    +0.021 A 
ATOM      5  C   UNL     1      -1.168  -2.104   0.001  0.00  0.00    +0.063 A 
ATOM      6  C   UNL     1      -1.192  -0.717   0.015  0.00  0.00    +0.176 A 
ATOM      7 BR   UNL     1      -2.789  -3.078   0.011  0.00  0.00    -0.046 Br
ENDROOT
BRANCH   1   9
ATOM      8  C   UNL     1       1.248   2.022   0.001  0.00  0.00    +0.277 C 
ATOM      9  O   UNL     1      -0.016   1.356   0.009  0.00  0.00    -0.491 OA
ENDBRANCH   1   9
BRANCH   6  10
ATOM     10  O   UNL     1      -2.381  -0.057   0.036  0.00  0.00    -0.484 OA
BRANCH  10  11
ATOM     11  C   UNL     1      -2.966   0.266  -1.227  0.00  0.00    +0.265 C 
BRANCH  11  12
ATOM     12  C   UNL     1      -4.288   1.002  -1.004  0.00  0.00    +0.182 C 
BRANCH  12  13
ATOM     13  C   UNL     1      -4.845   1.449  -2.331  0.00  0.00    -0.012 A 
ATOM     14  C   UNL     1      -5.604   0.578  -3.090  0.00  0.00    +0.010 A 
ATOM     15  C   UNL     1      -6.120   0.985  -4.306  0.00  0.00    +0.050 A 
ATOM     16  C   UNL     1      -5.869   2.265  -4.772  0.00  0.00    +0.166 A 
ATOM     17  C   UNL     1      -5.100   3.142  -4.010  0.00  0.00    +0.167 A 
ATOM     18  C   UNL     1      -4.590   2.728  -2.790  0.00  0.00    +0.055 A 
ATOM     19  O   UNL     1      -4.998   4.327  -4.678  0.00  0.00    -0.453 OA
ATOM     20  C   UNL     1      -6.049   4.305  -5.663  0.00  0.00    +0.466 C 
ATOM     21  O   UNL     1      -6.249   2.902  -5.918  0.00  0.00    -0.453 OA
ENDBRANCH  12  13
BRANCH  12  22
ATOM     22  O   UNL     1      -5.220   0.124  -0.368  0.00  0.00    -0.384 OA
ATOM     23  H   UNL     1      -6.233   0.479  -0.126  0.00  0.00    +0.210 HD
ENDBRANCH  12  22
ENDBRANCH  11  12
ENDBRANCH  10  11
ENDBRANCH   6  10
BRANCH   3  24
ATOM     24  C   UNL     1       2.544  -2.799  -0.037  0.00  0.00    -0.046 C 
BRANCH  24  25
ATOM     25  N   UNL     1       2.985  -3.045   1.343  0.00  0.00    +0.386 N 
ATOM     26  H   UNL     1       3.108  -2.085   1.865  0.00  0.00    -0.085 HD
ATOM     27  H   UNL     1       2.231  -3.653   1.866  0.00  0.00    -0.085 HD
BRANCH  25  28
ATOM     28  C   UNL     1       4.267  -3.762   1.366  0.00  0.00    -0.006 C 
BRANCH  28  29
ATOM     29  C   UNL     1       4.686  -3.995   2.794  0.00  0.00    +0.088 A 
ATOM     30  C   UNL     1       4.372  -5.070   3.540  0.00  0.00    +0.042 A 
ATOM     31  C   UNL     1       4.968  -4.877   4.808  0.00  0.00    +0.041 A 
ATOM     32  C   UNL     1       5.610  -3.696   4.761  0.00  0.00    +0.195 A 
ATOM     33  O   UNL     1       5.441  -3.169   3.537  0.00  0.00    -0.470 OA
ENDBRANCH  28  29
ENDBRANCH  25  28
ENDBRANCH  24  25
ENDBRANCH   3  24
TORSDOF 10
