REMARK  Name = ZINC39486229
REMARK  10 active torsions:
REMARK  status: ('A' for Active; 'I' for Inactive)
REMARK    1  A    between atoms: C_1  and  C_2
REMARK    2  A    between atoms: C_2  and  C_3
REMARK    3  A    between atoms: C_2  and  S_4
REMARK    4  A    between atoms: S_4  and  C_7
REMARK    5  A    between atoms: C_11  and  C_13
REMARK    6  A    between atoms: C_23  and  O_36
REMARK    7  A    between atoms: C_25  and  C_27
REMARK    8  A    between atoms: C_27  and  C_29
REMARK    9  A    between atoms: C_34  and  O_35
REMARK   10  A    between atoms: O_36  and  C_37
REMARK                            x       y       z     vdW  Elec       q    Type
REMARK                         _______ _______ _______ _____ _____    ______ ____
ROOT
ATOM      1  C   UNL     1      -1.336  -4.997   2.867  0.00  0.00    +0.063 C 
ATOM      2  C   UNL     1      -0.024  -5.714   3.035  0.00  0.00    -0.025 A 
ATOM      3  C   UNL     1       1.121  -5.151   2.506  0.00  0.00    +0.054 A 
ATOM      4  C   UNL     1       2.348  -5.784   2.647  0.00  0.00    +0.167 A 
ATOM      5  C   UNL     1       2.435  -7.001   3.328  0.00  0.00    +0.167 A 
ATOM      6  C   UNL     1       1.298  -7.573   3.860  0.00  0.00    +0.061 A 
ATOM      7  C   UNL     1       0.062  -6.933   3.714  0.00  0.00    +0.028 A 
ATOM      8  C   UNL     1      -1.151  -7.553   4.276  0.00  0.00    +0.193 C 
ATOM      9  O   UNL     1      -1.140  -8.695   4.683  0.00  0.00    -0.289 OA
ATOM     10  C   UNL     1      -2.411  -6.715   4.325  0.00  0.00    +0.200 C 
ATOM     11  C   UNL     1      -2.512  -5.961   2.993  0.00  0.00    +0.108 C 
ATOM     12  O   UNL     1       3.738  -7.409   3.326  0.00  0.00    -0.453 OA
ATOM     13  C   UNL     1       4.378  -6.641   2.290  0.00  0.00    +0.466 C 
ATOM     14  O   UNL     1       3.595  -5.435   2.223  0.00  0.00    -0.453 OA
ENDROOT
BRANCH   1  19
ATOM     15  C   UNL     1      -1.536  -2.381   0.152  0.00  0.00    +0.089 A 
ATOM     16  C   UNL     1      -1.442  -3.158  -0.987  0.00  0.00    +0.027 A 
ATOM     17  C   UNL     1      -1.313  -4.530  -0.879  0.00  0.00    +0.002 A 
ATOM     18  C   UNL     1      -1.279  -5.125   0.368  0.00  0.00    +0.004 A 
ATOM     19  C   UNL     1      -1.373  -4.348   1.507  0.00  0.00    -0.037 A 
ATOM     20  C   UNL     1      -1.497  -2.975   1.399  0.00  0.00    +0.031 A 
BRANCH  15  21
ATOM     21  S   UNL     1      -1.700  -0.632   0.015  0.00  0.00    -0.001 S 
ATOM     22  O   UNL     1      -2.359  -0.234   1.209  0.00  0.00    -0.169 OA
ATOM     23  O   UNL     1      -2.308  -0.423  -1.252  0.00  0.00    -0.169 OA
BRANCH  21  25
ATOM     24  C   UNL     1      -0.019   1.526   0.010  0.00  0.00    +0.032 C 
ATOM     25  C   UNL     1       0.002  -0.004   0.002  0.00  0.00    +0.130 C 
ATOM     26  C   UNL     1       0.742  -0.511   1.242  0.00  0.00    +0.032 C 
ENDBRANCH  21  25
ENDBRANCH  15  21
ENDBRANCH   1  19
BRANCH  11  27
ATOM     27  C   UNL     1      -3.804  -5.186   2.952  0.00  0.00    +0.173 C 
ATOM     28  O   UNL     1      -3.822  -4.020   3.284  0.00  0.00    -0.292 OA
BRANCH  27  29
ATOM     29  C   UNL     1      -5.040  -5.843   2.509  0.00  0.00    +0.059 A 
ATOM     30  C   UNL     1      -5.025  -7.191   2.130  0.00  0.00    +0.015 A 
ATOM     31  C   UNL     1      -6.188  -7.800   1.716  0.00  0.00    +0.001 A 
ATOM     32  C   UNL     1      -7.376  -7.085   1.673  0.00  0.00    +0.004 A 
ATOM     33  C   UNL     1      -7.406  -5.756   2.043  0.00  0.00    +0.046 A 
ATOM     34  C   UNL     1      -6.246  -5.125   2.469  0.00  0.00    +0.127 A 
BRANCH  34  35
ATOM     35  O   UNL     1      -6.276  -3.821   2.839  0.00  0.00    -0.506 OA
ATOM     36  H   UNL     1      -6.114  -3.203   2.113  0.00  0.00    +0.292 HD
ENDBRANCH  34  35
ENDBRANCH  27  29
ENDBRANCH  11  27
BRANCH  10  37
ATOM     37  O   UNL     1      -3.550  -7.561   4.494  0.00  0.00    -0.371 OA
ATOM     38  C   UNL     1      -3.896  -7.805   5.859  0.00  0.00    +0.195 C 
ENDBRANCH  10  37
TORSDOF 7
