REMARK  Name = ZINC20704117
REMARK  4 active torsions:
REMARK  status: ('A' for Active; 'I' for Inactive)
REMARK    1  A    between atoms: C_1  and  C_2
REMARK    2  A    between atoms: C_4  and  N_28
REMARK    3  A    between atoms: C_9  and  C_18
REMARK    4  A    between atoms: C_22  and  N_24
REMARK                            x       y       z     vdW  Elec       q    Type
REMARK                         _______ _______ _______ _____ _____    ______ ____
ROOT
ATOM      1  C   UNL     1       1.205   3.518  -0.016  0.00  0.00    +0.046 C 
ATOM      2  C   UNL     1       1.194   2.011  -0.016  0.00  0.00    -0.027 A 
ATOM      3  C   UNL     1       2.386   1.316  -0.033  0.00  0.00    +0.038 A 
ATOM      4  C   UNL     1       2.374  -0.067  -0.035  0.00  0.00    +0.127 A 
ATOM      5  C   UNL     1       1.174  -0.748  -0.018  0.00  0.00    +0.038 A 
ATOM      6  C   UNL     1      -0.031  -0.057   0.000  0.00  0.00    -0.017 A 
ATOM      7  C   UNL     1      -0.019   1.325   0.000  0.00  0.00    +0.034 A 
ATOM      8  N   UNL     1      -1.195   2.077   0.011  0.00  0.00    -0.336 N 
ATOM      9  C   UNL     1      -2.288   1.356   0.669  0.00  0.00    +0.105 C 
ATOM     10  C   UNL     1      -2.545   0.041  -0.049  0.00  0.00    +0.029 C 
ATOM     11  C   UNL     1      -1.300  -0.867   0.022  0.00  0.00    +0.049 C 
ATOM     12  C   UNL     1      -1.373  -1.658  -1.274  0.00  0.00    -0.023 C 
ATOM     13  C   UNL     1      -2.111  -1.031  -2.155  0.00  0.00    -0.030 C 
ATOM     14  C   UNL     1      -2.637   0.270  -1.577  0.00  0.00    +0.033 C 
ATOM     15  H   UNL     1      -1.367   3.084  -0.397  0.00  0.00    +0.147 HD
ENDROOT
BRANCH   9  16
ATOM     16  C   UNL     1      -1.918   1.080   2.103  0.00  0.00    -0.025 A 
ATOM     17  C   UNL     1      -1.096   1.957   2.786  0.00  0.00    +0.007 A 
ATOM     18  C   UNL     1      -0.756   1.704   4.101  0.00  0.00    +0.022 A 
ATOM     19  C   UNL     1      -1.238   0.572   4.735  0.00  0.00    +0.071 A 
ATOM     20  C   UNL     1      -2.061  -0.305   4.051  0.00  0.00    +0.145 A 
ATOM     21  C   UNL     1      -2.405  -0.048   2.737  0.00  0.00    +0.039 A 
ATOM     22 CL   UNL     1      -0.812   0.254   6.387  0.00  0.00    -0.081 Cl
BRANCH  20  23
ATOM     23  N   UNL     1      -2.577  -1.515   4.728  0.00  0.00    +0.058 N 
ATOM     24  O   UNL     1      -3.301  -2.288   4.126  0.00  0.00    -0.126 OA
ATOM     25  O   UNL     1      -2.279  -1.739   5.887  0.00  0.00    -0.126 OA
ENDBRANCH  20  23
ENDBRANCH   9  16
BRANCH   4  26
ATOM     26  N   UNL     1       3.650  -0.817  -0.054  0.00  0.00    +0.056 N 
ATOM     27  O   UNL     1       3.640  -2.035  -0.055  0.00  0.00    -0.126 OA
ATOM     28  O   UNL     1       4.709  -0.217  -0.069  0.00  0.00    -0.126 OA
ENDBRANCH   4  26
TORSDOF 3
