REMARK  Name = ZINC48469393
REMARK  5 active torsions:
REMARK  status: ('A' for Active; 'I' for Inactive)
REMARK    1  A    between atoms: C_1  and  C_2
REMARK    2  A    between atoms: C_5  and  C_7
REMARK    3  A    between atoms: C_7  and  C_9
REMARK    4  A    between atoms: C_7  and  N_10
REMARK    5  A    between atoms: N_13  and  C_14
REMARK                            x       y       z     vdW  Elec       q    Type
REMARK                         _______ _______ _______ _____ _____    ______ ____
ROOT
ATOM      1  N   UNL     1       2.823  -2.969   0.857  0.00  0.00    -0.290 N 
ATOM      2  C   UNL     1       3.506  -3.989   1.414  0.00  0.00    +0.304 C 
ATOM      3  O   UNL     1       3.179  -5.137   1.185  0.00  0.00    -0.252 OA
ATOM      4  N   UNL     1       4.551  -3.735   2.226  0.00  0.00    -0.269 N 
ATOM      5  H   UNL     1       3.084  -2.053   1.040  0.00  0.00    +0.151 HD
ATOM      6  H   UNL     1       4.854  -2.823   2.356  0.00  0.00    +0.156 HD
ENDROOT
BRANCH   4   7
ATOM      7  C   UNL     1       5.200  -4.788   2.881  0.00  0.00    +0.038 A 
ATOM      8  C   UNL     1       5.703  -4.605   4.163  0.00  0.00    +0.043 A 
ATOM      9  C   UNL     1       6.343  -5.647   4.808  0.00  0.00    +0.044 A 
ATOM     10  C   UNL     1       6.482  -6.871   4.178  0.00  0.00    +0.040 A 
ATOM     11  C   UNL     1       5.982  -7.056   2.901  0.00  0.00    +0.044 A 
ATOM     12  C   UNL     1       5.336  -6.019   2.254  0.00  0.00    +0.043 A 
ATOM     13 CL   UNL     1       6.160  -8.593   2.114  0.00  0.00    -0.083 Cl
ATOM     14 CL   UNL     1       6.973  -5.419   6.409  0.00  0.00    -0.083 Cl
ENDBRANCH   4   7
BRANCH   1  15
ATOM     15  C   UNL     1       1.686  -3.245  -0.026  0.00  0.00    +0.137 C 
ATOM     16  C   UNL     1       2.193  -3.490  -1.448  0.00  0.00    +0.036 C 
BRANCH  15  21
ATOM     17  C   UNL     1       0.007   1.511  -0.021  0.00  0.00    +0.086 C 
ATOM     18  C   UNL     1       0.020   0.004  -0.020  0.00  0.00    +0.102 A 
ATOM     19  C   UNL     1      -1.064  -0.792  -0.015  0.00  0.00    +0.045 A 
ATOM     20  C   UNL     1      -0.593  -2.125  -0.016  0.00  0.00    +0.047 A 
ATOM     21  C   UNL     1       0.750  -2.064  -0.023  0.00  0.00    +0.125 A 
ATOM     22  O   UNL     1       1.116  -0.771  -0.031  0.00  0.00    -0.463 OA
ENDBRANCH  15  21
ENDBRANCH   1  15
TORSDOF 3
