REMARK  Name = ZINC04852902
REMARK  8 active torsions:
REMARK  status: ('A' for Active; 'I' for Inactive)
REMARK    1  A    between atoms: C_1  and  C_2
REMARK    2  A    between atoms: C_2  and  C_3
REMARK    3  A    between atoms: C_2  and  C_4
REMARK    4  A    between atoms: C_7  and  N_10
REMARK    5  A    between atoms: C_17  and  C_29
REMARK    6  A    between atoms: C_22  and  C_25
REMARK    7  A    between atoms: C_25  and  O_27
REMARK    8  A    between atoms: O_27  and  C_28
REMARK                            x       y       z     vdW  Elec       q    Type
REMARK                         _______ _______ _______ _____ _____    ______ ____
ROOT
ATOM      1  N   UNL     1      -1.253   2.068   0.039  0.00  0.00    -0.216 N 
ATOM      2  C   UNL     1      -2.401   1.379  -0.059  0.00  0.00    +0.310 C 
ATOM      3  O   UNL     1      -2.355   0.164  -0.063  0.00  0.00    -0.252 OA
ATOM      4  N   UNL     1      -3.597   1.982  -0.150  0.00  0.00    -0.292 N 
ATOM      5  C   UNL     1      -3.671   3.451  -0.224  0.00  0.00    +0.114 C 
ATOM      6  C   UNL     1      -2.588   4.017   0.710  0.00  0.00    +0.096 C 
ATOM      7  C   UNL     1      -1.232   3.524   0.144  0.00  0.00    +0.185 C 
ATOM      8  O   UNL     1      -1.020   4.118  -1.139  0.00  0.00    -0.468 OA
ATOM      9  C   UNL     1      -2.047   4.146  -2.025  0.00  0.00    +0.128 A 
ATOM     10  C   UNL     1      -3.348   3.847  -1.647  0.00  0.00    +0.015 A 
ATOM     11  C   UNL     1      -4.370   3.905  -2.570  0.00  0.00    +0.024 A 
ATOM     12  C   UNL     1      -4.099   4.262  -3.893  0.00  0.00    +0.060 A 
ATOM     13  C   UNL     1      -2.787   4.558  -4.274  0.00  0.00    +0.018 A 
ATOM     14  C   UNL     1      -1.774   4.500  -3.346  0.00  0.00    +0.047 A 
ATOM     15  C   UNL     1      -0.113   3.947   1.099  0.00  0.00    +0.079 C 
ATOM     16  H   UNL     1      -4.410   1.452  -0.167  0.00  0.00    +0.151 HD
ENDROOT
BRANCH   1  20
ATOM     17  C   UNL     1       2.351  -0.022   0.055  0.00  0.00    -0.045 A 
ATOM     18  C   UNL     1       1.649   0.151   1.233  0.00  0.00    +0.006 A 
ATOM     19  C   UNL     1       0.455   0.845   1.232  0.00  0.00    +0.024 A 
ATOM     20  C   UNL     1      -0.041   1.369   0.045  0.00  0.00    +0.041 A 
ATOM     21  C   UNL     1       0.667   1.193  -1.137  0.00  0.00    +0.024 A 
ATOM     22  C   UNL     1       1.860   0.498  -1.129  0.00  0.00    +0.006 A 
BRANCH  17  24
ATOM     23  C   UNL     1       3.540  -1.996  -0.861  0.00  0.00    +0.012 C 
ATOM     24  C   UNL     1       3.654  -0.780   0.060  0.00  0.00    +0.013 C 
ATOM     25  C   UNL     1       4.777   0.133  -0.436  0.00  0.00    +0.012 C 
ENDBRANCH  17  24
ENDBRANCH   1  20
BRANCH  12  26
ATOM     26  C   UNL     1      -5.190   4.326  -4.883  0.00  0.00    +0.339 C 
ATOM     27  O   UNL     1      -6.329   4.067  -4.549  0.00  0.00    -0.245 OA
BRANCH  26  28
ATOM     28  O   UNL     1      -4.924   4.670  -6.159  0.00  0.00    -0.464 OA
ATOM     29  C   UNL     1      -6.047   4.712  -7.078  0.00  0.00    +0.280 C 
ENDBRANCH  26  28
ENDBRANCH  12  26
TORSDOF 4
