REMARK  Name = ZINC03379157
REMARK  11 active torsions:
REMARK  status: ('A' for Active; 'I' for Inactive)
REMARK    1  A    between atoms: C_1  and  C_2
REMARK    2  A    between atoms: C_3  and  C_31
REMARK    3  A    between atoms: C_7  and  N_18
REMARK    4  A    between atoms: C_9  and  C_11
REMARK    5  A    between atoms: C_11  and  N_63
REMARK    6  A    between atoms: C_14  and  C_17
REMARK    7  A    between atoms: N_18  and  C_19
REMARK    8  A    between atoms: C_19  and  C_20
REMARK    9  A    between atoms: C_20  and  C_21
REMARK   10  A    between atoms: C_24  and  S_27
REMARK   11  A    between atoms: S_27  and  N_30
REMARK                            x       y       z     vdW  Elec       q    Type
REMARK                         _______ _______ _______ _____ _____    ______ ____
ROOT
ATOM      1  C   UNL     1       0.904   8.383   2.221  0.00  0.00    +0.045 C 
ATOM      2  C   UNL     1      -0.157   7.644   1.447  0.00  0.00    -0.028 A 
ATOM      3  C   UNL     1      -0.895   8.283   0.528  0.00  0.00    -0.008 A 
ATOM      4  S   UNL     1      -1.980   7.012  -0.094  0.00  0.00    -0.074 S 
ATOM      5  C   UNL     1      -1.412   5.656   0.898  0.00  0.00    +0.114 A 
ATOM      6  C   UNL     1      -0.392   6.231   1.687  0.00  0.00    +0.051 A 
ATOM      7  C   UNL     1       0.250   5.344   2.595  0.00  0.00    +0.131 A 
ATOM      8  N   UNL     1      -0.139   4.080   2.645  0.00  0.00    -0.219 NA
ATOM      9  C   UNL     1      -1.100   3.608   1.871  0.00  0.00    +0.116 A 
ATOM     10  N   UNL     1      -1.732   4.382   1.010  0.00  0.00    -0.227 NA
ATOM     11  C   UNL     1      -0.824   9.732   0.117  0.00  0.00    +0.052 C 
ENDROOT
BRANCH   7  12
ATOM     12  N   UNL     1       1.264   5.797   3.418  0.00  0.00    -0.328 N 
ATOM     13  H   UNL     1       1.485   6.742   3.441  0.00  0.00    +0.147 HD
BRANCH  12  14
ATOM     14  C   UNL     1       2.005   4.852   4.257  0.00  0.00    +0.107 C 
BRANCH  14  15
ATOM     15  C   UNL     1       3.063   5.606   5.064  0.00  0.00    +0.054 C 
BRANCH  15  16
ATOM     16  C   UNL     1       3.826   4.633   5.926  0.00  0.00    -0.046 A 
ATOM     17  C   UNL     1       3.388   4.355   7.207  0.00  0.00    +0.005 A 
ATOM     18  C   UNL     1       4.085   3.459   7.996  0.00  0.00    +0.029 A 
ATOM     19  C   UNL     1       5.225   2.849   7.508  0.00  0.00    +0.105 A 
ATOM     20  C   UNL     1       5.666   3.131   6.228  0.00  0.00    +0.029 A 
ATOM     21  C   UNL     1       4.966   4.024   5.437  0.00  0.00    +0.005 A 
BRANCH  19  22
ATOM     22  S   UNL     1       6.116   1.710   8.515  0.00  0.00    +0.056 S 
ATOM     23  O   UNL     1       5.193   1.205   9.470  0.00  0.00    -0.153 OA
ATOM     24  O   UNL     1       6.837   0.864   7.631  0.00  0.00    -0.153 OA
BRANCH  22  25
ATOM     25  N   UNL     1       7.242   2.582   9.360  0.00  0.00    -0.204 NA
ATOM     26  H   UNL     1       7.304   3.542   9.238  0.00  0.00    +0.144 HD
ATOM     27  H   UNL     1       7.840   2.132   9.978  0.00  0.00    +0.144 HD
ENDBRANCH  22  25
ENDBRANCH  19  22
ENDBRANCH  15  16
ENDBRANCH  14  15
ENDBRANCH  12  14
ENDBRANCH   7  12
BRANCH   9  28
ATOM     28  C   UNL     1      -1.487   2.156   1.979  0.00  0.00    -0.001 C 
BRANCH  28  35
ATOM     29  C   UNL     1       0.736   1.744   1.113  0.00  0.00    -0.078 C 
ATOM     30  C   UNL     1       1.520   1.006   0.026  0.00  0.00    -0.016 C 
ATOM     31  C   UNL     1       1.367  -0.504   0.230  0.00  0.00    -0.018 C 
ATOM     32  C   UNL     1      -0.120  -0.868   0.199  0.00  0.00    -0.016 C 
ATOM     33  C   UNL     1      -0.857  -0.075   1.281  0.00  0.00    -0.078 C 
ATOM     34  C   UNL     1       2.099  -1.248  -0.889  0.00  0.00    +0.007 C 
ATOM     35  N   UNL     1      -0.691   1.370   1.014  0.00  0.00    +0.384 N 
ATOM     36  H   UNL     1      -1.023   1.573   0.064  0.00  0.00    -0.081 HD
ENDBRANCH  28  35
ENDBRANCH   9  28
TORSDOF 8
