REMARK  Name = ZINC14524409
REMARK  5 active torsions:
REMARK  status: ('A' for Active; 'I' for Inactive)
REMARK    1  A    between atoms: C_7  and  C_13
REMARK    2  A    between atoms: C_13  and  C_14
REMARK    3  A    between atoms: C_14  and  N_16
REMARK    4  A    between atoms: C_19  and  C_22
REMARK    5  A    between atoms: C_22  and  N_23
REMARK                            x       y       z     vdW  Elec       q    Type
REMARK                         _______ _______ _______ _____ _____    ______ ____
ROOT
ATOM      1  C   UNL     1       0.387  -4.425  -0.026  0.00  0.00    +0.244 C 
ATOM      2  O   UNL     1       1.553  -4.771  -0.040  0.00  0.00    -0.273 OA
ENDROOT
BRANCH   1   3
ATOM      3  N   UNL     1      -0.576  -5.338  -0.022  0.00  0.00    -0.156 NA
ATOM      4  C   UNL     1      -0.264  -6.636  -0.032  0.00  0.00    +0.163 A 
ATOM      5  N   UNL     1      -1.104  -7.706  -0.035  0.00  0.00    -0.341 N 
ATOM      6  C   UNL     1      -0.571  -8.957  -0.048  0.00  0.00    +0.008 A 
ATOM      7  C   UNL     1       0.763  -9.056  -0.056  0.00  0.00    +0.067 A 
ATOM      8  S   UNL     1       1.260  -7.344  -0.052  0.00  0.00    -0.061 S 
ATOM      9  H   UNL     1      -2.065  -7.579  -0.029  0.00  0.00    +0.167 HD
BRANCH   6  10
ATOM     10  C   UNL     1      -1.449 -10.183  -0.051  0.00  0.00    -0.024 C 
BRANCH  10  11
ATOM     11  N   UNL     1      -2.202 -10.249   1.208  0.00  0.00    +0.383 N 
ATOM     12  C   UNL     1      -1.269 -10.433   2.326  0.00  0.00    -0.078 C 
ATOM     13  C   UNL     1      -2.041 -10.421   3.647  0.00  0.00    -0.019 C 
ATOM     14  C   UNL     1      -3.065 -11.560   3.643  0.00  0.00    -0.004 C 
ATOM     15  C   UNL     1      -3.987 -11.399   2.431  0.00  0.00    -0.019 C 
ATOM     16  C   UNL     1      -3.143 -11.374   1.155  0.00  0.00    -0.078 C 
ATOM     17  H   UNL     1      -2.714  -9.389   1.338  0.00  0.00    -0.081 HD
ENDBRANCH  10  11
ENDBRANCH   6  10
ENDBRANCH   1   3
BRANCH   1  18
ATOM     18  C   UNL     1       0.036  -2.959  -0.014  0.00  0.00    +0.155 C 
BRANCH  18  25
ATOM     19  C   UNL     1      -0.017   1.363   0.009  0.00  0.00    +0.001 A 
ATOM     20  C   UNL     1       1.165   2.092   0.002  0.00  0.00    +0.001 A 
ATOM     21  C   UNL     1       2.386   1.454  -0.013  0.00  0.00    +0.014 A 
ATOM     22  C   UNL     1       2.429   0.060  -0.021  0.00  0.00    +0.050 A 
ATOM     23  C   UNL     1       1.224  -0.679  -0.013  0.00  0.00    +0.011 A 
ATOM     24  C   UNL     1       0.002  -0.004   0.002  0.00  0.00    +0.010 A 
ATOM     25  C   UNL     1       1.300  -2.140  -0.022  0.00  0.00    +0.078 A 
ATOM     26  N   UNL     1       2.458  -2.731  -0.037  0.00  0.00    -0.175 NA
ATOM     27  N   UNL     1       3.663  -2.028  -0.045  0.00  0.00    -0.242 N 
ATOM     28  H   UNL     1       4.497  -2.522  -0.056  0.00  0.00    +0.192 HD
ATOM     29  C   UNL     1       3.698  -0.679  -0.038  0.00  0.00    +0.272 A 
ATOM     30  O   UNL     1       4.762  -0.086  -0.046  0.00  0.00    -0.266 OA
ENDBRANCH  18  25
ENDBRANCH   1  18
TORSDOF 5
