REMARK  Name = ZINC21222637
REMARK  8 active torsions:
REMARK  status: ('A' for Active; 'I' for Inactive)
REMARK    1  A    between atoms: C_1  and  O_2
REMARK    2  A    between atoms: O_2  and  C_3
REMARK    3  A    between atoms: C_5  and  C_13
REMARK    4  A    between atoms: C_7  and  O_11
REMARK    5  A    between atoms: C_8  and  O_9
REMARK    6  A    between atoms: O_9  and  C_10
REMARK    7  A    between atoms: O_11  and  C_12
REMARK    8  A    between atoms: C_18  and  C_28
REMARK                            x       y       z     vdW  Elec       q    Type
REMARK                         _______ _______ _______ _____ _____    ______ ____
ROOT
ATOM      1  C   UNL     1      -0.094   6.125  -0.575  0.00  0.00    +0.032 C 
ATOM      2  C   UNL     1      -1.120   7.036  -1.248  0.00  0.00    +0.059 C 
ATOM      3  C   UNL     1      -0.424   7.946  -2.247  0.00  0.00    +0.017 C 
ATOM      4  C   UNL     1       0.823   8.384  -2.010  0.00  0.00    +0.036 C 
ATOM      5  C   UNL     1       1.621   9.311  -2.897  0.00  0.00    +0.136 C 
ATOM      6  N   UNL     1       1.045   9.521  -4.209  0.00  0.00    -0.331 N 
ATOM      7  C   UNL     1      -0.186  10.152  -4.360  0.00  0.00    +0.049 A 
ATOM      8  C   UNL     1      -0.289  11.399  -4.959  0.00  0.00    +0.025 A 
ATOM      9  C   UNL     1      -1.521  12.026  -5.020  0.00  0.00    +0.002 A 
ATOM     10  C   UNL     1      -2.644  11.418  -4.490  0.00  0.00    +0.002 A 
ATOM     11  C   UNL     1      -2.550  10.163  -3.912  0.00  0.00    +0.025 A 
ATOM     12  C   UNL     1      -1.322   9.528  -3.868  0.00  0.00    +0.052 A 
ATOM     13  N   UNL     1      -1.164   8.248  -3.345  0.00  0.00    -0.316 N 
ATOM     14  C   UNL     1       1.516   7.969  -0.849  0.00  0.00    +0.163 C 
ATOM     15  O   UNL     1       2.636   8.398  -0.651  0.00  0.00    -0.292 OA
ATOM     16  C   UNL     1       0.921   7.019   0.147  0.00  0.00    +0.088 C 
ATOM     17  H   UNL     1       1.583   9.180  -5.106  0.00  0.00    +0.147 HD
ATOM     18  H   UNL     1      -1.692   7.450  -3.888  0.00  0.00    +0.152 HD
ENDROOT
BRANCH   5  19
ATOM     19  C   UNL     1       1.742  10.646  -2.208  0.00  0.00    -0.022 A 
ATOM     20  C   UNL     1       2.997  11.098  -1.803  0.00  0.00    +0.006 A 
ATOM     21  C   UNL     1       3.142  12.300  -1.183  0.00  0.00    +0.009 A 
ATOM     22  C   UNL     1       2.010  13.096  -0.936  0.00  0.00    -0.018 A 
ATOM     23  C   UNL     1       2.119  14.341  -0.293  0.00  0.00    +0.008 A 
ATOM     24  C   UNL     1       1.001  15.085  -0.070  0.00  0.00    +0.001 A 
ATOM     25  C   UNL     1      -0.254  14.630  -0.470  0.00  0.00    +0.001 A 
ATOM     26  C   UNL     1      -0.398  13.430  -1.095  0.00  0.00    +0.008 A 
ATOM     27  C   UNL     1       0.733  12.634  -1.343  0.00  0.00    -0.018 A 
ATOM     28  C   UNL     1       0.624  11.389  -1.986  0.00  0.00    +0.014 A 
ENDBRANCH   5  19
BRANCH   1  31
ATOM     29  C   UNL     1      -1.349   3.026   1.187  0.00  0.00    +0.165 A 
ATOM     30  C   UNL     1      -0.717   3.855   0.273  0.00  0.00    +0.053 A 
ATOM     31  C   UNL     1      -0.783   5.228   0.421  0.00  0.00    -0.036 A 
ATOM     32  C   UNL     1      -1.479   5.780   1.480  0.00  0.00    +0.053 A 
ATOM     33  C   UNL     1      -2.114   4.958   2.398  0.00  0.00    +0.165 A 
ATOM     34  C   UNL     1      -2.054   3.577   2.250  0.00  0.00    +0.204 A 
BRANCH  29  36
ATOM     35  C   UNL     1      -0.548   1.179  -0.079  0.00  0.00    +0.277 C 
ATOM     36  O   UNL     1      -1.284   1.676   1.040  0.00  0.00    -0.491 OA
ENDBRANCH  29  36
BRANCH  34  37
ATOM     37  O   UNL     1      -2.681   2.767   3.147  0.00  0.00    -0.488 OA
ATOM     38  C   UNL     1      -1.925   2.355   4.287  0.00  0.00    +0.277 C 
ENDBRANCH  34  37
BRANCH  33  39
ATOM     39  O   UNL     1      -2.798   5.502   3.441  0.00  0.00    -0.491 OA
ATOM     40  C   UNL     1      -2.821   6.928   3.527  0.00  0.00    +0.277 C 
ENDBRANCH  33  39
ENDBRANCH   1  31
TORSDOF 5
