REMARK  Name = ZINC08915371
REMARK  8 active torsions:
REMARK  status: ('A' for Active; 'I' for Inactive)
REMARK    1  A    between atoms: C_1  and  O_2
REMARK    2  A    between atoms: O_2  and  C_3
REMARK    3  A    between atoms: C_3  and  C_5
REMARK    4  A    between atoms: C_8  and  C_11
REMARK    5  A    between atoms: C_13  and  C_25
REMARK    6  A    between atoms: C_15  and  C_20
REMARK    7  A    between atoms: C_15  and  O_24
REMARK    8  A    between atoms: C_25  and  C_27
REMARK                            x       y       z     vdW  Elec       q    Type
REMARK                         _______ _______ _______ _____ _____    ______ ____
ROOT
ATOM      1  C   UNL     1       0.372  -6.318   1.227  0.00  0.00    +0.120 C 
ATOM      2  C   UNL     1      -0.415  -7.175   2.224  0.00  0.00    +0.144 C 
ATOM      3  C   UNL     1       0.243  -8.556   2.307  0.00  0.00    +0.243 C 
ATOM      4  N   UNL     1       1.655  -8.395   2.655  0.00  0.00    -0.264 N 
ATOM      5  C   UNL     1       2.339  -7.295   2.306  0.00  0.00    +0.302 C 
ATOM      6  O   UNL     1       3.513  -7.215   2.611  0.00  0.00    -0.253 OA
ATOM      7  N   UNL     1       1.778  -6.278   1.632  0.00  0.00    -0.292 N 
ATOM      8  H   UNL     1       2.106  -9.098   3.148  0.00  0.00    +0.153 HD
ATOM      9  H   UNL     1       2.315  -5.501   1.411  0.00  0.00    +0.151 HD
ENDROOT
BRANCH   1  13
ATOM     10  C   UNL     1      -1.216  -2.348   1.186  0.00  0.00    +0.059 A 
ATOM     11  C   UNL     1      -1.661  -3.291   0.257  0.00  0.00    +0.015 A 
ATOM     12  C   UNL     1      -1.144  -4.570   0.276  0.00  0.00    +0.006 A 
ATOM     13  C   UNL     1      -0.187  -4.919   1.212  0.00  0.00    -0.026 A 
ATOM     14  C   UNL     1       0.258  -3.990   2.136  0.00  0.00    +0.006 A 
ATOM     15  C   UNL     1      -0.246  -2.705   2.124  0.00  0.00    +0.015 A 
BRANCH  10  16
ATOM     16  C   UNL     1      -1.765  -0.976   1.172  0.00  0.00    +0.339 C 
ATOM     17  O   UNL     1      -1.372  -0.157   1.978  0.00  0.00    -0.245 OA
BRANCH  16  19
ATOM     18  C   UNL     1      -3.187   0.708   0.309  0.00  0.00    +0.280 C 
ATOM     19  O   UNL     1      -2.701  -0.635   0.265  0.00  0.00    -0.464 OA
ENDBRANCH  16  19
ENDBRANCH  10  16
ENDBRANCH   1  13
BRANCH   3  20
ATOM     20  C   UNL     1      -0.457  -9.392   3.381  0.00  0.00    +0.436 C 
ATOM     21  F   UNL     1      -1.831  -9.428   3.122  0.00  0.00    -0.166 F 
ATOM     22  F   UNL     1       0.055 -10.694   3.365  0.00  0.00    -0.166 F 
ATOM     23  F   UNL     1      -0.233  -8.818   4.637  0.00  0.00    -0.166 F 
ENDBRANCH   3  20
BRANCH   3  24
ATOM     24  O   UNL     1       0.135  -9.213   1.042  0.00  0.00    -0.364 OA
ATOM     25  H   UNL     1       0.531 -10.095   1.022  0.00  0.00    +0.212 HD
ENDBRANCH   3  24
BRANCH   2  26
ATOM     26  C   UNL     1      -0.397  -6.519   3.580  0.00  0.00    +0.173 C 
ATOM     27  O   UNL     1       0.655  -6.359   4.162  0.00  0.00    -0.292 OA
BRANCH  26  28
ATOM     28  C   UNL     1      -1.654  -6.072   4.198  0.00  0.00    +0.018 A 
ATOM     29  C   UNL     1      -2.855  -6.150   3.484  0.00  0.00    +0.014 A 
ATOM     30  C   UNL     1      -4.029  -5.730   4.069  0.00  0.00    +0.039 A 
ATOM     31  C   UNL     1      -4.023  -5.231   5.363  0.00  0.00    +0.123 A 
ATOM     32  C   UNL     1      -2.836  -5.152   6.077  0.00  0.00    +0.039 A 
ATOM     33  C   UNL     1      -1.656  -5.574   5.506  0.00  0.00    +0.014 A 
ATOM     34  F   UNL     1      -5.178  -4.820   5.931  0.00  0.00    -0.205 F 
ENDBRANCH  26  28
ENDBRANCH   2  26
TORSDOF 7
