REMARK  Name = ZINC39198799
REMARK  10 active torsions:
REMARK  status: ('A' for Active; 'I' for Inactive)
REMARK    1  A    between atoms: C_1  and  C_2
REMARK    2  A    between atoms: C_4  and  N_17
REMARK    3  A    between atoms: N_8  and  C_11
REMARK    4  A    between atoms: N_9  and  C_10
REMARK    5  A    between atoms: C_18  and  C_20
REMARK    6  A    between atoms: C_20  and  N_21
REMARK    7  A    between atoms: N_21  and  C_22
REMARK    8  A    between atoms: N_21  and  C_23
REMARK    9  A    between atoms: C_23  and  C_24
REMARK   10  A    between atoms: C_24  and  C_25
REMARK                            x       y       z     vdW  Elec       q    Type
REMARK                         _______ _______ _______ _____ _____    ______ ____
ROOT
ATOM      1  N   UNL     1       0.681   0.759  -2.108  0.00  0.00    -0.304 N 
ATOM      2  C   UNL     1       0.901   0.600  -3.429  0.00  0.00    +0.197 C 
ATOM      3  O   UNL     1       1.190  -0.493  -3.868  0.00  0.00    -0.278 OA
ATOM      4  H   UNL     1       0.450   1.633  -1.757  0.00  0.00    +0.149 HD
ENDROOT
BRANCH   1   7
ATOM      5  C   UNL     1      -0.288   1.320   0.329  0.00  0.00    +0.028 C 
ATOM      6  C   UNL     1      -0.066  -0.171   0.067  0.00  0.00    +0.102 C 
ATOM      7  C   UNL     1       0.789  -0.388  -1.204  0.00  0.00    +0.179 C 
ATOM      8  C   UNL     1       2.192  -0.501  -0.633  0.00  0.00    +0.256 C 
ATOM      9  O   UNL     1       3.226  -0.426  -1.261  0.00  0.00    -0.272 OA
ATOM     10  N   UNL     1       2.083  -0.697   0.694  0.00  0.00    -0.201 N 
ATOM     11  N   UNL     1       0.788  -0.771   1.117  0.00  0.00    -0.218 NA
ATOM     12  C   UNL     1       0.399  -2.163   1.381  0.00  0.00    +0.128 C 
BRANCH  10  13
ATOM     13  C   UNL     1       3.184  -0.814   1.550  0.00  0.00    +0.053 A 
ATOM     14  C   UNL     1       4.245  -1.643   1.211  0.00  0.00    +0.025 A 
ATOM     15  C   UNL     1       5.330  -1.757   2.058  0.00  0.00    +0.002 A 
ATOM     16  C   UNL     1       5.360  -1.045   3.244  0.00  0.00    +0.000 A 
ATOM     17  C   UNL     1       4.305  -0.219   3.585  0.00  0.00    +0.002 A 
ATOM     18  C   UNL     1       3.220  -0.097   2.739  0.00  0.00    +0.025 A 
ENDBRANCH  10  13
ENDBRANCH   1   7
BRANCH   2  19
ATOM     19  C   UNL     1       0.790   1.780  -4.359  0.00  0.00    +0.018 C 
BRANCH  19  20
ATOM     20  N   UNL     1       1.074   1.349  -5.734  0.00  0.00    +0.384 N 
ATOM     21  C   UNL     1       0.038   0.406  -6.176  0.00  0.00    -0.096 C 
ATOM     22  H   UNL     1       1.976   0.896  -5.765  0.00  0.00    -0.082 HD
BRANCH  20  23
ATOM     23  C   UNL     1       1.083   2.519  -6.622  0.00  0.00    -0.074 C 
BRANCH  23  24
ATOM     24  C   UNL     1       1.502   2.087  -8.029  0.00  0.00    +0.019 C 
BRANCH  24  25
ATOM     25  C   UNL     1       1.511   3.288  -8.941  0.00  0.00    -0.024 A 
ATOM     26  C   UNL     1       2.610   4.240  -9.116  0.00  0.00    +0.003 A 
ATOM     27  C   UNL     1       3.888   4.359  -8.567  0.00  0.00    +0.010 A 
ATOM     28  C   UNL     1       4.697   5.391  -8.950  0.00  0.00    +0.001 A 
ATOM     29  C   UNL     1       4.259   6.323  -9.880  0.00  0.00    +0.002 A 
ATOM     30  C   UNL     1       3.002   6.225 -10.435  0.00  0.00    +0.026 A 
ATOM     31  C   UNL     1       2.161   5.182 -10.060  0.00  0.00    +0.047 A 
ATOM     32  N   UNL     1       0.884   4.817 -10.422  0.00  0.00    -0.360 N 
ATOM     33  C   UNL     1       0.515   3.683  -9.750  0.00  0.00    +0.087 A 
ATOM     34  H   UNL     1       0.329   5.290 -11.062  0.00  0.00    +0.165 HD
ENDBRANCH  24  25
ENDBRANCH  23  24
ENDBRANCH  20  23
ENDBRANCH  19  20
ENDBRANCH   2  19
TORSDOF 7
