REMARK  Name = ZINC10735694
REMARK  8 active torsions:
REMARK  status: ('A' for Active; 'I' for Inactive)
REMARK    1  A    between atoms: C_1  and  C_2
REMARK    2  A    between atoms: C_6  and  C_8
REMARK    3  A    between atoms: N_14  and  C_15
REMARK    4  A    between atoms: C_15  and  C_16
REMARK    5  A    between atoms: C_16  and  C_17
REMARK    6  A    between atoms: N_19  and  N_20
REMARK    7  A    between atoms: C_21  and  C_23
REMARK    8  A    between atoms: C_26  and  C_28
REMARK                            x       y       z     vdW  Elec       q    Type
REMARK                         _______ _______ _______ _____ _____    ______ ____
ROOT
ATOM      1  C   UNL     1       0.873   5.667  -2.141  0.00  0.00    +0.231 C 
ATOM      2  O   UNL     1       1.471   6.149  -1.202  0.00  0.00    -0.274 OA
ATOM      3  N   UNL     1       1.197   6.023  -3.401  0.00  0.00    -0.234 N 
ATOM      4  H   UNL     1       0.655   5.586  -4.252  0.00  0.00    +0.173 HD
ENDROOT
BRANCH   3   5
ATOM      5  N   UNL     1       2.224   6.949  -3.625  0.00  0.00    -0.230 N 
ATOM      6  C   UNL     1       2.547   7.305  -4.884  0.00  0.00    +0.267 C 
ATOM      7  O   UNL     1       1.947   6.821  -5.826  0.00  0.00    -0.268 OA
ATOM      8  H   UNL     1       2.766   7.386  -2.773  0.00  0.00    +0.173 HD
BRANCH   6   9
ATOM      9  C   UNL     1       3.621   8.273  -5.118  0.00  0.00    +0.076 A 
ATOM     10  C   UNL     1       4.106   8.762  -6.322  0.00  0.00    +0.021 A 
ATOM     11  C   UNL     1       5.124   9.673  -6.298  0.00  0.00    +0.017 A 
ATOM     12  C   UNL     1       5.638  10.066  -5.073  0.00  0.00    +0.020 A 
ATOM     13  S   UNL     1       4.646   9.121  -3.928  0.00  0.00    -0.084 S 
BRANCH  12  14
ATOM     14  C   UNL     1       6.729  11.021  -4.787  0.00  0.00    -0.011 A 
ATOM     15  C   UNL     1       7.393  11.660  -5.835  0.00  0.00    +0.012 A 
ATOM     16  C   UNL     1       8.406  12.555  -5.562  0.00  0.00    +0.039 A 
ATOM     17  C   UNL     1       8.774  12.811  -4.251  0.00  0.00    +0.123 A 
ATOM     18  C   UNL     1       8.121  12.175  -3.206  0.00  0.00    +0.039 A 
ATOM     19  C   UNL     1       7.103  11.283  -3.467  0.00  0.00    +0.012 A 
ATOM     20  F   UNL     1       9.771  13.684  -3.989  0.00  0.00    -0.205 F 
ENDBRANCH  12  14
ENDBRANCH   6   9
ENDBRANCH   3   5
BRANCH   1  21
ATOM     21  C   UNL     1      -0.232   4.671  -1.900  0.00  0.00    +0.119 C 
BRANCH  21  22
ATOM     22  C   UNL     1      -0.395   4.445  -0.396  0.00  0.00    +0.135 C 
BRANCH  22  29
ATOM     23  C   UNL     1      -1.307   2.116   0.014  0.00  0.00    +0.163 A 
ATOM     24  N   UNL     1      -2.480   1.580   0.203  0.00  0.00    -0.153 NA
ATOM     25  N   UNL     1      -3.438   2.602   0.146  0.00  0.00    -0.254 N 
ATOM     26  H   UNL     1      -4.504   2.365   0.282  0.00  0.00    +0.191 HD
ATOM     27  C   UNL     1      -2.784   3.759  -0.083  0.00  0.00    +0.176 A 
ATOM     28  S   UNL     1      -3.496   5.308  -0.239  0.00  0.00    -0.011 S 
ATOM     29  N   UNL     1      -1.469   3.476  -0.161  0.00  0.00    -0.303 N 
BRANCH  23  35
ATOM     30  C   UNL     1       3.501   1.884  -1.303  0.00  0.00    +0.044 C 
ATOM     31  C   UNL     1       2.297   1.275  -0.633  0.00  0.00    -0.050 A 
ATOM     32  C   UNL     1       2.397   0.035  -0.027  0.00  0.00    +0.003 A 
ATOM     33  C   UNL     1       1.296  -0.531   0.589  0.00  0.00    +0.001 A 
ATOM     34  C   UNL     1       0.089   0.139   0.604  0.00  0.00    +0.011 A 
ATOM     35  C   UNL     1      -0.018   1.389  -0.004  0.00  0.00    +0.019 A 
ATOM     36  C   UNL     1       1.096   1.955  -0.625  0.00  0.00    +0.015 A 
ENDBRANCH  23  35
ENDBRANCH  22  29
ENDBRANCH  21  22
ENDBRANCH   1  21
TORSDOF 7
