REMARK  Name = ZINC20990591
REMARK  9 active torsions:
REMARK  status: ('A' for Active; 'I' for Inactive)
REMARK    1  A    between atoms: C_1  and  C_2
REMARK    2  A    between atoms: C_2  and  C_3
REMARK    3  A    between atoms: C_8  and  S_9
REMARK    4  A    between atoms: S_9  and  N_12
REMARK    5  A    between atoms: N_12  and  C_13
REMARK    6  A    between atoms: C_14  and  O_22
REMARK    7  A    between atoms: C_16  and  O_20
REMARK    8  A    between atoms: O_20  and  C_21
REMARK    9  A    between atoms: O_22  and  C_23
REMARK                            x       y       z     vdW  Elec       q    Type
REMARK                         _______ _______ _______ _____ _____    ______ ____
ROOT
ATOM      1  C   UNL     1      -2.840  -2.413   1.842  0.00  0.00    -0.020 A 
ATOM      2  C   UNL     1      -2.712  -2.758   3.170  0.00  0.00    +0.016 A 
ATOM      3  C   UNL     1      -3.762  -2.516   4.052  0.00  0.00    +0.011 A 
ATOM      4  C   UNL     1      -4.947  -1.917   3.585  0.00  0.00    +0.049 A 
ATOM      5  C   UNL     1      -5.053  -1.572   2.243  0.00  0.00    +0.055 A 
ATOM      6  C   UNL     1      -4.005  -1.817   1.382  0.00  0.00    +0.114 A 
ATOM      7  N   UNL     1      -5.812  -1.797   4.658  0.00  0.00    -0.357 N 
ATOM      8  H   UNL     1      -6.806  -1.347   4.515  0.00  0.00    +0.166 HD
ATOM      9  C   UNL     1      -5.253  -2.284   5.773  0.00  0.00    +0.028 A 
ATOM     10  C   UNL     1      -3.978  -2.746   5.482  0.00  0.00    +0.046 A 
ATOM     11  C   UNL     1      -3.129  -3.315   6.462  0.00  0.00    +0.165 C 
ATOM     12  O   UNL     1      -2.032  -3.745   6.170  0.00  0.00    -0.292 OA
ATOM     13  C   UNL     1      -3.638  -3.367   7.886  0.00  0.00    +0.080 C 
ATOM     14  C   UNL     1      -5.158  -3.535   7.893  0.00  0.00    +0.014 C 
ATOM     15  C   UNL     1      -5.832  -2.366   7.166  0.00  0.00    +0.054 C 
ENDROOT
BRANCH   6  16
ATOM     16  S   UNL     1      -4.148  -1.377  -0.318  0.00  0.00    +0.073 S 
ATOM     17  O   UNL     1      -2.966  -0.664  -0.654  0.00  0.00    -0.150 OA
ATOM     18  O   UNL     1      -5.446  -0.823  -0.485  0.00  0.00    -0.150 OA
BRANCH  16  19
ATOM     19  N   UNL     1      -4.117  -2.783  -1.192  0.00  0.00    -0.211 N 
ATOM     20  H   UNL     1      -3.280  -2.987  -1.876  0.00  0.00    +0.174 HD
BRANCH  19  21
ATOM     21  C   UNL     1      -5.159  -3.714  -1.060  0.00  0.00    +0.108 A 
ATOM     22  C   UNL     1      -6.462  -3.355  -1.397  0.00  0.00    +0.147 A 
ATOM     23  C   UNL     1      -7.486  -4.278  -1.271  0.00  0.00    +0.093 A 
ATOM     24  C   UNL     1      -7.215  -5.557  -0.805  0.00  0.00    +0.125 A 
ATOM     25  C   UNL     1      -5.919  -5.912  -0.465  0.00  0.00    +0.067 A 
ATOM     26  C   UNL     1      -4.892  -4.992  -0.590  0.00  0.00    +0.070 A 
ATOM     27 CL   UNL     1      -3.270  -5.439  -0.164  0.00  0.00    -0.081 Cl
BRANCH  24  28
ATOM     28  O   UNL     1      -8.222  -6.462  -0.681  0.00  0.00    -0.495 OA
ATOM     29  C   UNL     1      -7.871  -7.760  -0.196  0.00  0.00    +0.277 C 
ENDBRANCH  24  28
BRANCH  22  30
ATOM     30  O   UNL     1      -6.726  -2.102  -1.853  0.00  0.00    -0.493 OA
ATOM     31  C   UNL     1      -8.084  -1.806  -2.185  0.00  0.00    +0.277 C 
ENDBRANCH  22  30
ENDBRANCH  19  21
ENDBRANCH  16  19
ENDBRANCH   6  16
BRANCH   1  33
ATOM     32  C   UNL     1      -0.718  -1.512   0.928  0.00  0.00    +0.009 C 
ATOM     33  C   UNL     1      -1.706  -2.680   0.886  0.00  0.00    +0.034 C 
ENDBRANCH   1  33
TORSDOF 6
