REMARK  Name = ZINC12888031
REMARK  10 active torsions:
REMARK  status: ('A' for Active; 'I' for Inactive)
REMARK    1  A    between atoms: C_1  and  C_2
REMARK    2  A    between atoms: C_2  and  C_3
REMARK    3  A    between atoms: C_3  and  C_5
REMARK    4  A    between atoms: C_3  and  C_6
REMARK    5  A    between atoms: C_6  and  C_8
REMARK    6  A    between atoms: C_6  and  N_14
REMARK    7  A    between atoms: N_10  and  C_11
REMARK    8  A    between atoms: C_11  and  C_12
REMARK    9  A    between atoms: C_11  and  C_13
REMARK   10  A    between atoms: C_15  and  C_17
REMARK                            x       y       z     vdW  Elec       q    Type
REMARK                         _______ _______ _______ _____ _____    ______ ____
ROOT
ATOM      1  C   UNL     1      -3.825   7.038   2.745  0.00  0.00    +0.167 C 
ATOM      2  C   UNL     1      -2.852   7.913   1.942  0.00  0.00    +0.069 C 
ATOM      3  C   UNL     1      -1.883   8.602   2.869  0.00  0.00    -0.015 A 
ATOM      4  C   UNL     1      -0.641   9.261   2.509  0.00  0.00    +0.003 A 
ATOM      5  C   UNL     1       0.008   9.447   1.284  0.00  0.00    +0.010 A 
ATOM      6  C   UNL     1       1.196  10.135   1.311  0.00  0.00    +0.001 A 
ATOM      7  C   UNL     1       1.736  10.627   2.488  0.00  0.00    +0.002 A 
ATOM      8  C   UNL     1       1.115  10.457   3.713  0.00  0.00    +0.026 A 
ATOM      9  C   UNL     1      -0.093   9.762   3.717  0.00  0.00    +0.047 A 
ATOM     10  N   UNL     1      -0.951   9.423   4.722  0.00  0.00    -0.356 N 
ATOM     11  H   UNL     1      -0.828   9.642   5.659  0.00  0.00    +0.166 HD
ATOM     12  C   UNL     1      -2.012   8.727   4.209  0.00  0.00    +0.046 A 
ATOM     13  C   UNL     1      -3.177   8.156   4.980  0.00  0.00    +0.155 C 
ATOM     14  N   UNL     1      -4.186   7.771   3.964  0.00  0.00    -0.273 N 
ATOM     15  C   UNL     1      -5.383   8.270   4.367  0.00  0.00    +0.248 C 
ATOM     16  O   UNL     1      -6.456   7.978   3.877  0.00  0.00    -0.270 OA
ATOM     17  C   UNL     1      -5.189   9.196   5.488  0.00  0.00    +0.042 A 
ATOM     18  C   UNL     1      -3.830   9.166   5.861  0.00  0.00    -0.009 A 
ATOM     19  C   UNL     1      -3.340   9.971   6.865  0.00  0.00    +0.006 A 
ATOM     20  C   UNL     1      -4.249  10.807   7.506  0.00  0.00    +0.000 A 
ATOM     21  C   UNL     1      -5.585  10.834   7.157  0.00  0.00    +0.001 A 
ATOM     22  C   UNL     1      -6.093  10.035   6.144  0.00  0.00    +0.013 A 
ENDROOT
BRANCH   1  24
ATOM     23  N   UNL     1      -2.728   4.905   2.142  0.00  0.00    -0.302 N 
ATOM     24  C   UNL     1      -3.160   5.737   3.111  0.00  0.00    +0.235 C 
ATOM     25  O   UNL     1      -3.013   5.437   4.277  0.00  0.00    -0.274 OA
ATOM     26  H   UNL     1      -2.846   5.145   1.209  0.00  0.00    +0.150 HD
BRANCH  23  27
ATOM     27  C   UNL     1      -2.081   3.640   2.497  0.00  0.00    +0.162 C 
BRANCH  27  28
ATOM     28  C   UNL     1      -1.177   3.205   1.373  0.00  0.00    +0.234 C 
ATOM     29  O   UNL     1      -1.410   3.558   0.236  0.00  0.00    -0.274 OA
ATOM     30  N   UNL     1      -0.109   2.424   1.630  0.00  0.00    -0.311 N 
ATOM     31  H   UNL     1       0.116   2.196   2.546  0.00  0.00    +0.149 HD
BRANCH  30  32
ATOM     32  C   UNL     1       0.711   1.918   0.527  0.00  0.00    +0.067 C 
ATOM     33  C   UNL     1       1.416   0.632   0.964  0.00  0.00    +0.027 C 
ATOM     34  C   UNL     1       1.756   2.968   0.145  0.00  0.00    +0.027 C 
ENDBRANCH  30  32
ENDBRANCH  27  28
BRANCH  27  35
ATOM     35  C   UNL     1      -3.149   2.570   2.736  0.00  0.00    +0.015 C 
ATOM     36  C   UNL     1      -2.482   1.286   3.233  0.00  0.00    +0.010 C 
BRANCH  35  38
ATOM     37  C   UNL     1      -5.037   1.311   1.691  0.00  0.00    +0.004 C 
ATOM     38  C   UNL     1      -3.889   2.287   1.427  0.00  0.00    +0.002 C 
ENDBRANCH  35  38
ENDBRANCH  27  35
ENDBRANCH  23  27
ENDBRANCH   1  24
TORSDOF 6
