REMARK  Name = ZINC21265526
REMARK  8 active torsions:
REMARK  status: ('A' for Active; 'I' for Inactive)
REMARK    1  A    between atoms: C_3  and  S_25
REMARK    2  A    between atoms: C_6  and  N_7
REMARK    3  A    between atoms: C_8  and  C_10
REMARK    4  A    between atoms: C_10  and  N_11
REMARK    5  A    between atoms: N_11  and  C_12
REMARK    6  A    between atoms: C_12  and  C_13
REMARK    7  A    between atoms: C_13  and  C_14
REMARK    8  A    between atoms: S_25  and  N_28
REMARK                            x       y       z     vdW  Elec       q    Type
REMARK                         _______ _______ _______ _____ _____    ______ ____
ROOT
ATOM      1  N   UNL     1      -3.077   3.043   4.819  0.00  0.00    -0.287 N 
ATOM      2  C   UNL     1      -2.806   4.216   5.426  0.00  0.00    +0.200 C 
ATOM      3  O   UNL     1      -2.000   4.979   4.938  0.00  0.00    -0.278 OA
ATOM      4  H   UNL     1      -3.870   2.390   5.214  0.00  0.00    +0.155 HD
ENDROOT
BRANCH   1  10
ATOM      5  C   UNL     1      -1.014   3.011   3.565  0.00  0.00    +0.025 A 
ATOM      6  C   UNL     1      -0.299   2.627   2.447  0.00  0.00    +0.030 A 
ATOM      7  C   UNL     1      -0.914   1.891   1.451  0.00  0.00    +0.106 A 
ATOM      8  C   UNL     1      -2.247   1.541   1.568  0.00  0.00    +0.030 A 
ATOM      9  C   UNL     1      -2.965   1.917   2.686  0.00  0.00    +0.025 A 
ATOM     10  C   UNL     1      -2.351   2.656   3.688  0.00  0.00    +0.033 A 
BRANCH   7  11
ATOM     11  S   UNL     1       0.001   1.403   0.026  0.00  0.00    +0.061 S 
ATOM     12  O   UNL     1       1.076   2.324  -0.101  0.00  0.00    -0.153 OA
ATOM     13  O   UNL     1      -0.946   1.190  -1.011  0.00  0.00    -0.153 OA
BRANCH  11  14
ATOM     14  N   UNL     1       0.678  -0.071   0.360  0.00  0.00    -0.177 NA
ATOM     15  C   UNL     1       2.001  -0.290   0.963  0.00  0.00    +0.109 C 
ATOM     16  C   UNL     1       2.214  -1.815   1.060  0.00  0.00    +0.018 C 
ATOM     17  C   UNL     1       1.245  -2.368  -0.019  0.00  0.00    +0.018 C 
ATOM     18  C   UNL     1       0.057  -1.381   0.095  0.00  0.00    +0.109 C 
ENDBRANCH  11  14
ENDBRANCH   7  11
ENDBRANCH   1  10
BRANCH   2  19
ATOM     19  C   UNL     1      -3.504   4.578   6.712  0.00  0.00    +0.015 C 
BRANCH  19  20
ATOM     20  N   UNL     1      -3.039   5.895   7.167  0.00  0.00    +0.385 N 
ATOM     21  H   UNL     1      -1.952   5.861   7.337  0.00  0.00    -0.085 HD
ATOM     22  H   UNL     1      -3.267   6.650   6.401  0.00  0.00    -0.085 HD
BRANCH  20  23
ATOM     23  C   UNL     1      -3.699   6.282   8.421  0.00  0.00    -0.077 C 
BRANCH  23  24
ATOM     24  C   UNL     1      -3.190   7.655   8.863  0.00  0.00    +0.018 C 
BRANCH  24  25
ATOM     25  C   UNL     1      -3.868   8.053  10.149  0.00  0.00    -0.024 A 
ATOM     26  C   UNL     1      -4.966   8.816  10.270  0.00  0.00    +0.087 A 
ATOM     27  N   UNL     1      -5.289   8.961  11.591  0.00  0.00    -0.360 N 
ATOM     28  H   UNL     1      -6.166   9.559  11.880  0.00  0.00    +0.165 HD
ATOM     29  C   UNL     1      -4.384   8.278  12.373  0.00  0.00    +0.047 A 
ATOM     30  C   UNL     1      -3.458   7.674  11.503  0.00  0.00    +0.004 A 
ATOM     31  C   UNL     1      -2.409   6.912  12.021  0.00  0.00    +0.030 A 
ATOM     32  C   UNL     1      -2.294   6.748  13.384  0.00  0.00    +0.042 A 
ATOM     33  C   UNL     1      -3.212   7.340  14.242  0.00  0.00    +0.022 A 
ATOM     34  C   UNL     1      -4.250   8.099  13.746  0.00  0.00    +0.027 A 
ATOM     35 CL   UNL     1      -0.996   5.796  14.033  0.00  0.00    -0.084 Cl
ENDBRANCH  24  25
ENDBRANCH  23  24
ENDBRANCH  20  23
ENDBRANCH  19  20
ENDBRANCH   2  19
TORSDOF 8
