REMARK  Name = ZINC10217188
REMARK  7 active torsions:
REMARK  status: ('A' for Active; 'I' for Inactive)
REMARK    1  A    between atoms: C_1  and  C_2
REMARK    2  A    between atoms: C_2  and  C_4
REMARK    3  A    between atoms: C_2  and  S_19
REMARK    4  A    between atoms: N_6  and  C_7
REMARK    5  A    between atoms: C_8  and  C_17
REMARK    6  A    between atoms: S_19  and  C_20
REMARK    7  A    between atoms: C_24  and  C_26
REMARK                            x       y       z     vdW  Elec       q    Type
REMARK                         _______ _______ _______ _____ _____    ______ ____
ROOT
ATOM      1  C   UNL     1      -1.412  -0.526   0.013  0.00  0.00    +0.231 C 
ATOM      2  O   UNL     1      -1.939  -0.827   1.063  0.00  0.00    -0.274 OA
ATOM      3  N   UNL     1      -2.090  -0.657  -1.144  0.00  0.00    -0.278 N 
ATOM      4  H   UNL     1      -1.669  -0.416  -1.984  0.00  0.00    +0.155 HD
ENDROOT
BRANCH   3   5
ATOM      5  C   UNL     1      -3.392  -1.138  -1.135  0.00  0.00    +0.090 A 
ATOM      6  C   UNL     1      -4.232  -1.342  -2.215  0.00  0.00    +0.084 A 
ATOM      7  C   UNL     1      -5.565  -1.859  -1.940  0.00  0.00    -0.018 A 
ATOM      8  C   UNL     1      -5.810  -2.070  -0.629  0.00  0.00    -0.004 A 
ATOM      9  S   UNL     1      -4.308  -1.611   0.190  0.00  0.00    -0.077 S 
ATOM     10  C   UNL     1      -7.074  -2.573  -0.004  0.00  0.00    +0.043 C 
ATOM     11  C   UNL     1      -7.542  -3.827  -0.755  0.00  0.00    +0.005 C 
ATOM     12  C   UNL     1      -8.450  -3.396  -1.903  0.00  0.00    +0.001 C 
ATOM     13  C   UNL     1      -7.996  -2.046  -2.456  0.00  0.00    +0.005 C 
ATOM     14  C   UNL     1      -6.586  -2.151  -3.029  0.00  0.00    +0.037 C 
BRANCH   6  15
ATOM     15  C   UNL     1      -3.807  -1.056  -3.552  0.00  0.00    +0.102 C 
ATOM     16  N   UNL     1      -3.469  -0.830  -4.613  0.00  0.00    -0.191 NA
ENDBRANCH   6  15
ENDBRANCH   3   5
BRANCH   1  18
ATOM     17  C   UNL     1      -0.019   1.526   0.010  0.00  0.00    +0.029 C 
ATOM     18  C   UNL     1       0.002  -0.004   0.002  0.00  0.00    +0.137 C 
BRANCH  18  19
ATOM     19  S   UNL     1       0.879  -0.605   1.472  0.00  0.00    -0.074 S 
BRANCH  19  20
ATOM     20  C   UNL     1       2.533  -0.042   1.241  0.00  0.00    +0.185 A 
ATOM     21  N   UNL     1       3.568  -0.254   2.083  0.00  0.00    -0.253 N 
ATOM     22  H   UNL     1       3.543  -0.740   2.923  0.00  0.00    +0.191 HD
ATOM     23  N   UNL     1       4.687   0.367   1.506  0.00  0.00    -0.151 NA
ATOM     24  C   UNL     1       4.284   0.907   0.376  0.00  0.00    +0.189 A 
ATOM     25  N   UNL     1       2.976   0.652   0.216  0.00  0.00    -0.200 NA
BRANCH  24  26
ATOM     26  C   UNL     1       5.134   1.667  -0.566  0.00  0.00    +0.058 A 
ATOM     27  C   UNL     1       6.469   1.958  -0.480  0.00  0.00    +0.019 A 
ATOM     28  C   UNL     1       7.053   2.689  -1.492  0.00  0.00    +0.008 A 
ATOM     29  C   UNL     1       6.292   3.096  -2.539  0.00  0.00    +0.046 A 
ATOM     30  S   UNL     1       4.689   2.435  -2.115  0.00  0.00    -0.093 S 
ENDBRANCH  24  26
ENDBRANCH  19  20
ENDBRANCH  18  19
ENDBRANCH   1  18
TORSDOF 6
