REMARK  Name = ZINC16684961
REMARK  9 active torsions:
REMARK  status: ('A' for Active; 'I' for Inactive)
REMARK    1  A    between atoms: C_1  and  C_2
REMARK    2  A    between atoms: C_5  and  C_8
REMARK    3  A    between atoms: C_8  and  N_9
REMARK    4  A    between atoms: C_11  and  C_15
REMARK    5  A    between atoms: C_12  and  C_14
REMARK    6  A    between atoms: C_16  and  C_17
REMARK    7  A    between atoms: C_17  and  O_19
REMARK    8  A    between atoms: O_19  and  C_20
REMARK    9  A    between atoms: C_20  and  C_21
REMARK                            x       y       z     vdW  Elec       q    Type
REMARK                         _______ _______ _______ _____ _____    ______ ____
ROOT
ATOM      1  C   UNL     1       5.482  -7.031  -3.387  0.00  0.00    +0.332 C 
ATOM      2  O   UNL     1       6.582  -6.553  -3.183  0.00  0.00    -0.246 OA
ENDROOT
BRANCH   1   4
ATOM      3  C   UNL     1       4.567  -5.789  -1.552  0.00  0.00    +0.020 C 
ATOM      4  C   UNL     1       4.389  -6.668  -2.566  0.00  0.00    +0.092 C 
BRANCH   3   7
ATOM      5  N   UNL     1       1.447  -4.746  -0.032  0.00  0.00    -0.248 N 
ATOM      6  C   UNL     1       2.186  -4.987  -1.129  0.00  0.00    +0.135 A 
ATOM      7  C   UNL     1       3.433  -5.413  -0.700  0.00  0.00    +0.034 A 
ATOM      8  C   UNL     1       3.407  -5.416   0.715  0.00  0.00    +0.069 A 
ATOM      9  N   UNL     1       2.227  -5.014   1.098  0.00  0.00    -0.174 NA
ATOM     10  C   UNL     1       4.546  -5.809   1.620  0.00  0.00    +0.068 C 
ATOM     11 CL   UNL     1       1.673  -4.800  -2.776  0.00  0.00    -0.062 Cl
BRANCH   5  12
ATOM     12  C   UNL     1       0.059  -4.275  -0.021  0.00  0.00    +0.180 C 
BRANCH  12  17
ATOM     13  C   UNL     1      -0.018   1.503   0.010  0.00  0.00    +0.044 C 
ATOM     14  C   UNL     1       0.002  -0.004   0.002  0.00  0.00    -0.050 A 
ATOM     15  C   UNL     1       0.006  -0.689  -1.199  0.00  0.00    +0.004 A 
ATOM     16  C   UNL     1       0.025  -2.071  -1.206  0.00  0.00    +0.006 A 
ATOM     17  C   UNL     1       0.040  -2.768  -0.013  0.00  0.00    -0.026 A 
ATOM     18  C   UNL     1       0.037  -2.084   1.188  0.00  0.00    +0.006 A 
ATOM     19  C   UNL     1       0.023  -0.702   1.195  0.00  0.00    +0.004 A 
ENDBRANCH  12  17
ENDBRANCH   5  12
ENDBRANCH   3   7
ENDBRANCH   1   4
BRANCH   1  20
ATOM     20  O   UNL     1       5.304  -7.907  -4.398  0.00  0.00    -0.454 OA
BRANCH  20  21
ATOM     21  C   UNL     1       6.452  -8.228  -5.187  0.00  0.00    +0.306 C 
BRANCH  21  22
ATOM     22  C   UNL     1       6.064  -9.214  -6.259  0.00  0.00    +0.149 A 
ATOM     23  N   UNL     1       7.012  -9.658  -7.121  0.00  0.00    -0.305 N 
ATOM     24  H   UNL     1       7.924  -9.339  -7.039  0.00  0.00    +0.170 HD
ATOM     25  C   UNL     1       6.696 -10.542  -8.092  0.00  0.00    +0.295 A 
ATOM     26  O   UNL     1       7.545 -10.945  -8.869  0.00  0.00    -0.264 OA
ATOM     27  C   UNL     1       5.358 -10.989  -8.187  0.00  0.00    +0.218 A 
ATOM     28  C   UNL     1       4.435 -10.493  -7.271  0.00  0.00    +0.124 A 
ATOM     29  N   UNL     1       4.827  -9.620  -6.329  0.00  0.00    -0.226 NA
ATOM     30  C   UNL     1       3.154 -11.128  -7.614  0.00  0.00    +0.046 A 
ATOM     31  C   UNL     1       1.864 -11.055  -7.091  0.00  0.00    +0.014 A 
ATOM     32  C   UNL     1       0.854 -11.799  -7.659  0.00  0.00    +0.001 A 
ATOM     33  C   UNL     1       1.117 -12.619  -8.747  0.00  0.00    +0.004 A 
ATOM     34  C   UNL     1       2.388 -12.700  -9.274  0.00  0.00    +0.047 A 
ATOM     35  C   UNL     1       3.422 -11.957  -8.715  0.00  0.00    +0.138 A 
ATOM     36  O   UNL     1       4.732 -11.845  -9.020  0.00  0.00    -0.448 OA
ENDBRANCH  21  22
ENDBRANCH  20  21
ENDBRANCH   1  20
TORSDOF 7
