REMARK  Name = ZINC03292088
REMARK  11 active torsions:
REMARK  status: ('A' for Active; 'I' for Inactive)
REMARK    1  A    between atoms: C_1  and  C_2
REMARK    2  A    between atoms: C_2  and  C_3
REMARK    3  A    between atoms: C_2  and  N_4
REMARK    4  A    between atoms: N_4  and  C_5
REMARK    5  A    between atoms: N_4  and  C_11
REMARK    6  A    between atoms: C_14  and  N_17
REMARK    7  A    between atoms: C_18  and  C_20
REMARK    8  A    between atoms: C_20  and  S_21
REMARK    9  A    between atoms: S_21  and  C_22
REMARK   10  A    between atoms: N_35  and  C_36
REMARK   11  A    between atoms: C_36  and  C_37
REMARK                            x       y       z     vdW  Elec       q    Type
REMARK                         _______ _______ _______ _____ _____    ______ ____
ROOT
ATOM      1  N   UNL     1       2.234  -4.371  -1.594  0.00  0.00    -0.285 N 
ATOM      2  C   UNL     1       3.363  -5.102  -1.506  0.00  0.00    +0.227 C 
ATOM      3  O   UNL     1       4.374  -4.604  -1.058  0.00  0.00    -0.275 OA
ATOM      4  H   UNL     1       1.407  -4.789  -1.879  0.00  0.00    +0.155 HD
ENDROOT
BRANCH   1   8
ATOM      5  C   UNL     1       2.300  -0.310  -0.646  0.00  0.00    +0.034 A 
ATOM      6  C   UNL     1       1.173  -1.071  -0.364  0.00  0.00    +0.025 A 
ATOM      7  C   UNL     1       1.150  -2.414  -0.682  0.00  0.00    +0.025 A 
ATOM      8  C   UNL     1       2.257  -3.006  -1.276  0.00  0.00    +0.034 A 
ATOM      9  C   UNL     1       3.385  -2.247  -1.554  0.00  0.00    +0.025 A 
ATOM     10  C   UNL     1       3.407  -0.902  -1.240  0.00  0.00    +0.025 A 
BRANCH   5  11
ATOM     11  N   UNL     1       2.322   1.052  -0.328  0.00  0.00    -0.297 N 
BRANCH  11  12
ATOM     12  C   UNL     1       1.724   1.980  -1.184  0.00  0.00    +0.034 A 
ATOM     13  C   UNL     1       1.206   1.567  -2.406  0.00  0.00    +0.023 A 
ATOM     14  C   UNL     1       0.621   2.487  -3.252  0.00  0.00    +0.002 A 
ATOM     15  C   UNL     1       0.539   3.817  -2.881  0.00  0.00    +0.000 A 
ATOM     16  C   UNL     1       1.053   4.231  -1.666  0.00  0.00    +0.002 A 
ATOM     17  C   UNL     1       1.645   3.317  -0.817  0.00  0.00    +0.023 A 
ENDBRANCH  11  12
BRANCH  11  19
ATOM     18  C   UNL     1       2.379   0.761   2.100  0.00  0.00    +0.028 C 
ATOM     19  C   UNL     1       2.974   1.506   0.903  0.00  0.00    +0.073 C 
ATOM     20  C   UNL     1       4.475   1.223   0.821  0.00  0.00    +0.028 C 
ENDBRANCH  11  19
ENDBRANCH   5  11
ENDBRANCH   1   8
BRANCH   2  21
ATOM     21  C   UNL     1       3.369  -6.538  -1.964  0.00  0.00    +0.173 C 
BRANCH  21  22
ATOM     22  S   UNL     1       5.021  -7.244  -1.718  0.00  0.00    -0.076 S 
BRANCH  22  23
ATOM     23  C   UNL     1       4.865  -8.903  -2.293  0.00  0.00    +0.198 A 
ATOM     24  N   UNL     1       3.779  -9.451  -2.779  0.00  0.00    -0.120 NA
ATOM     25  N   UNL     1       4.075 -10.776  -3.118  0.00  0.00    -0.109 NA
ATOM     26  C   UNL     1       5.338 -10.999  -2.828  0.00  0.00    +0.240 A 
ATOM     27  N   UNL     1       5.859  -9.843  -2.315  0.00  0.00    -0.256 N 
ATOM     28  C   UNL     1       7.195  -9.782  -1.922  0.00  0.00    +0.064 A 
ATOM     29  C   UNL     1       7.732  -8.616  -1.398  0.00  0.00    +0.027 A 
ATOM     30  C   UNL     1       9.059  -8.582  -1.017  0.00  0.00    +0.002 A 
ATOM     31  C   UNL     1       9.861  -9.705  -1.152  0.00  0.00    +0.001 A 
ATOM     32  C   UNL     1       9.342 -10.873  -1.671  0.00  0.00    +0.015 A 
ATOM     33  C   UNL     1       8.005 -10.919  -2.060  0.00  0.00    +0.064 A 
ATOM     34  C   UNL     1       7.413 -12.148  -2.620  0.00  0.00    +0.263 A 
ATOM     35  O   UNL     1       8.085 -13.153  -2.754  0.00  0.00    -0.267 OA
ATOM     36  N   UNL     1       6.111 -12.141  -2.971  0.00  0.00    -0.273 N 
BRANCH  36  37
ATOM     37  C   UNL     1       5.509 -13.354  -3.531  0.00  0.00    +0.155 C 
BRANCH  37  38
ATOM     38  C   UNL     1       5.677 -13.353  -5.029  0.00  0.00    -0.013 C 
ATOM     39  C   UNL     1       6.251 -14.368  -5.624  0.00  0.00    +0.005 C 
ENDBRANCH  37  38
ENDBRANCH  36  37
ENDBRANCH  22  23
ENDBRANCH  21  22
ENDBRANCH   2  21
TORSDOF 9
