REMARK  Name = ZINC00821741
REMARK  8 active torsions:
REMARK  status: ('A' for Active; 'I' for Inactive)
REMARK    1  A    between atoms: C_1  and  C_2
REMARK    2  A    between atoms: C_2  and  O_3
REMARK    3  A    between atoms: O_3  and  C_4
REMARK    4  A    between atoms: C_9  and  C_15
REMARK    5  A    between atoms: N_16  and  N_17
REMARK    6  A    between atoms: C_18  and  C_20
REMARK    7  A    between atoms: C_20  and  C_21
REMARK    8  A    between atoms: C_24  and  N_27
REMARK                            x       y       z     vdW  Elec       q    Type
REMARK                         _______ _______ _______ _____ _____    ______ ____
ROOT
ATOM      1  C   UNL     1       1.245  -5.741  -3.263  0.00  0.00    +0.141 C 
ATOM      2  N   UNL     1       1.230  -4.466  -3.019  0.00  0.00    -0.188 NA
ENDROOT
BRANCH   1   8
ATOM      3  C   UNL     1       1.231  -8.770  -8.932  0.00  0.00    +0.123 A 
ATOM      4  C   UNL     1       1.254  -9.732  -7.917  0.00  0.00    +0.046 A 
ATOM      5  C   UNL     1       1.262  -9.363  -6.609  0.00  0.00    +0.013 A 
ATOM      6  C   UNL     1       1.246  -8.000  -6.266  0.00  0.00    +0.001 A 
ATOM      7  C   UNL     1       1.254  -7.590  -4.922  0.00  0.00    +0.022 A 
ATOM      8  C   UNL     1       1.238  -6.226  -4.655  0.00  0.00    +0.032 A 
ATOM      9  C   UNL     1       1.209  -5.311  -5.725  0.00  0.00    +0.139 A 
ATOM     10  N   UNL     1       1.209  -5.716  -6.970  0.00  0.00    -0.234 NA
ATOM     11  C   UNL     1       1.223  -7.016  -7.287  0.00  0.00    +0.076 A 
ATOM     12  C   UNL     1       1.215  -7.427  -8.630  0.00  0.00    +0.074 A 
ATOM     13 CL   UNL     1       1.182  -3.608  -5.386  0.00  0.00    -0.061 Cl
BRANCH   3  14
ATOM     14  O   UNL     1       1.223  -9.165 -10.231  0.00  0.00    -0.492 OA
BRANCH  14  16
ATOM     15  C   UNL     1       1.229 -10.821 -11.991  0.00  0.00    +0.048 C 
ATOM     16  C   UNL     1       1.240 -10.572 -10.482  0.00  0.00    +0.225 C 
ENDBRANCH  14  16
ENDBRANCH   3  14
ENDBRANCH   1   8
BRANCH   2  17
ATOM     17  N   UNL     1       1.237  -4.005  -1.696  0.00  0.00    -0.207 N 
ATOM     18  C   UNL     1       1.222  -2.681  -1.444  0.00  0.00    +0.237 C 
ATOM     19  O   UNL     1       1.202  -1.889  -2.362  0.00  0.00    -0.274 OA
ATOM     20  H   UNL     1       1.253  -4.639  -0.962  0.00  0.00    +0.177 HD
BRANCH  18  21
ATOM     21  C   UNL     1       1.229  -2.186  -0.021  0.00  0.00    +0.132 C 
BRANCH  21  22
ATOM     22  C   UNL     1       1.208  -0.679  -0.013  0.00  0.00    -0.038 A 
ATOM     23  C   UNL     1       0.002  -0.004   0.002  0.00  0.00    +0.006 A 
ATOM     24  C   UNL     1      -0.017   1.378   0.010  0.00  0.00    +0.033 A 
ATOM     25  C   UNL     1       1.171   2.086   0.002  0.00  0.00    +0.126 A 
ATOM     26  C   UNL     1       2.377   1.411  -0.015  0.00  0.00    +0.033 A 
ATOM     27  C   UNL     1       2.396   0.029  -0.021  0.00  0.00    +0.006 A 
BRANCH  25  28
ATOM     28  N   UNL     1       1.151   3.566   0.010  0.00  0.00    +0.056 N 
ATOM     29  O   UNL     1       0.088   4.160   0.023  0.00  0.00    -0.126 OA
ATOM     30  O   UNL     1       2.197   4.189   0.003  0.00  0.00    -0.126 OA
ENDBRANCH  25  28
ENDBRANCH  21  22
ENDBRANCH  18  21
ENDBRANCH   2  17
TORSDOF 7
