REMARK  Name = ZINC10052769
REMARK  8 active torsions:
REMARK  status: ('A' for Active; 'I' for Inactive)
REMARK    1  A    between atoms: C_1  and  C_2
REMARK    2  A    between atoms: C_2  and  C_3
REMARK    3  A    between atoms: C_3  and  C_4
REMARK    4  A    between atoms: C_4  and  N_5
REMARK    5  A    between atoms: C_18  and  S_19
REMARK    6  A    between atoms: S_19  and  C_20
REMARK    7  A    between atoms: C_20  and  C_21
REMARK    8  A    between atoms: N_23  and  C_24
REMARK                            x       y       z     vdW  Elec       q    Type
REMARK                         _______ _______ _______ _____ _____    ______ ____
ROOT
ATOM      1  N   UNL     1      -0.723   1.581   3.674  0.00  0.00    -0.277 N 
ATOM      2  C   UNL     1      -0.367   2.761   4.222  0.00  0.00    +0.263 A 
ATOM      3  O   UNL     1       0.511   3.436   3.719  0.00  0.00    -0.267 OA
ATOM      4  C   UNL     1      -1.064   3.220   5.437  0.00  0.00    +0.064 A 
ATOM      5  C   UNL     1      -0.740   4.434   6.042  0.00  0.00    +0.015 A 
ATOM      6  C   UNL     1      -1.411   4.827   7.180  0.00  0.00    +0.001 A 
ATOM      7  C   UNL     1      -2.402   4.024   7.723  0.00  0.00    +0.002 A 
ATOM      8  C   UNL     1      -2.731   2.819   7.133  0.00  0.00    +0.027 A 
ATOM      9  C   UNL     1      -2.066   2.408   5.988  0.00  0.00    +0.064 A 
ATOM     10  N   UNL     1      -2.379   1.198   5.373  0.00  0.00    -0.256 N 
ATOM     11  C   UNL     1      -1.719   0.801   4.242  0.00  0.00    +0.240 A 
ATOM     12  N   UNL     1      -2.208  -0.364   3.879  0.00  0.00    -0.109 NA
ATOM     13  N   UNL     1      -3.204  -0.722   4.795  0.00  0.00    -0.120 NA
ATOM     14  C   UNL     1      -3.295   0.231   5.690  0.00  0.00    +0.198 A 
ENDROOT
BRANCH   1  15
ATOM     15  C   UNL     1      -0.044   1.114   2.463  0.00  0.00    +0.128 C 
BRANCH  15  16
ATOM     16  C   UNL     1      -0.795   1.619   1.230  0.00  0.00    +0.021 C 
BRANCH  16  18
ATOM     17  C   UNL     1      -0.836   1.637  -1.268  0.00  0.00    +0.004 C 
ATOM     18  C   UNL     1      -0.085   1.131  -0.035  0.00  0.00    -0.002 C 
ENDBRANCH  16  18
ENDBRANCH  15  16
ENDBRANCH   1  15
BRANCH  14  19
ATOM     19  S   UNL     1      -4.402   0.263   7.061  0.00  0.00    -0.076 S 
BRANCH  19  20
ATOM     20  C   UNL     1      -5.330  -1.288   6.912  0.00  0.00    +0.173 C 
BRANCH  20  21
ATOM     21  C   UNL     1      -6.325  -1.388   8.039  0.00  0.00    +0.228 C 
ATOM     22  O   UNL     1      -6.401  -0.500   8.862  0.00  0.00    -0.275 OA
ATOM     23  N   UNL     1      -7.131  -2.465   8.133  0.00  0.00    -0.283 N 
ATOM     24  H   UNL     1      -7.116  -3.144   7.440  0.00  0.00    +0.155 HD
BRANCH  23  25
ATOM     25  C   UNL     1      -7.991  -2.603   9.231  0.00  0.00    +0.069 A 
ATOM     26  C   UNL     1      -8.573  -1.480   9.804  0.00  0.00    +0.029 A 
ATOM     27  C   UNL     1      -9.420  -1.618  10.886  0.00  0.00    +0.040 A 
ATOM     28  C   UNL     1      -9.691  -2.875  11.400  0.00  0.00    +0.126 A 
ATOM     29  C   UNL     1      -9.112  -3.997  10.832  0.00  0.00    +0.078 A 
ATOM     30  C   UNL     1      -8.267  -3.865   9.745  0.00  0.00    +0.147 A 
ATOM     31  F   UNL     1      -7.706  -4.960   9.186  0.00  0.00    -0.203 F 
ATOM     32  F   UNL     1     -10.520  -3.007  12.458  0.00  0.00    -0.205 F 
ENDBRANCH  23  25
ENDBRANCH  20  21
ENDBRANCH  19  20
ENDBRANCH  14  19
TORSDOF 7
