REMARK  Name = ZINC36379894
REMARK  1 active torsions:
REMARK  status: ('A' for Active; 'I' for Inactive)
REMARK    1  A    between atoms: C_8  and  C_10
REMARK                            x       y       z     vdW  Elec       q    Type
REMARK                         _______ _______ _______ _____ _____    ______ ____
ROOT
ATOM      1  C   UNL     1      -0.019   1.543   0.011  0.00  0.00    +0.035 C 
ATOM      2  C   UNL     1       1.492   1.889  -0.002  0.00  0.00    +0.160 C 
ATOM      3  O   UNL     1       2.078   0.869   0.834  0.00  0.00    -0.375 OA
ATOM      4  C   UNL     1       1.407  -0.364   0.524  0.00  0.00    +0.136 C 
ATOM      5  C   UNL     1       0.002  -0.004   0.002  0.00  0.00    +0.037 C 
ATOM      6  C   UNL     1       0.190  -0.754   1.367  0.00  0.00    +0.137 C 
ENDROOT
BRANCH   6   7
ATOM      7  C   UNL     1      -0.044   0.012   2.644  0.00  0.00    +0.362 C 
ATOM      8  O   UNL     1       0.858   0.138   3.453  0.00  0.00    -0.246 OA
ATOM      9  O   UNL     1      -1.137   0.505   2.867  0.00  0.00    -0.246 OA
ENDBRANCH   6   7
TORSDOF 1
