REMARK  Name = ZINC49741027
REMARK  3 active torsions:
REMARK  status: ('A' for Active; 'I' for Inactive)
REMARK    1  A    between atoms: C_3  and  S_8
REMARK    2  A    between atoms: S_8  and  N_11
REMARK    3  A    between atoms: N_11  and  C_12
REMARK                            x       y       z     vdW  Elec       q    Type
REMARK                         _______ _______ _______ _____ _____    ______ ____
ROOT
ATOM      1  C   UNL     1       4.640   1.281   2.298  0.00  0.00    +0.048 A 
ATOM      2  C   UNL     1       3.967   0.085   2.082  0.00  0.00    +0.026 A 
ATOM      3  C   UNL     1       4.318  -1.047   2.786  0.00  0.00    +0.025 A 
ATOM      4  C   UNL     1       5.351  -1.001   3.721  0.00  0.00    +0.038 A 
ATOM      5  C   UNL     1       6.019   0.200   3.930  0.00  0.00    -0.009 A 
ATOM      6  C   UNL     1       5.675   1.331   3.225  0.00  0.00    +0.031 A 
ATOM      7  C   UNL     1       7.062  -0.078   4.983  0.00  0.00    +0.074 C 
ATOM      8  C   UNL     1       6.813   0.781   6.219  0.00  0.00    +0.021 C 
ATOM      9  C   UNL     1       7.863   0.462   7.286  0.00  0.00    +0.001 C 
ATOM     10  C   UNL     1       9.259   0.742   6.725  0.00  0.00    +0.000 C 
ATOM     11  C   UNL     1       9.504  -0.142   5.500  0.00  0.00    +0.001 C 
ATOM     12  C   UNL     1       8.460   0.175   4.427  0.00  0.00    +0.021 C 
ATOM     13  C   UNL     1       6.885  -1.540   5.314  0.00  0.00    +0.228 C 
ATOM     14  O   UNL     1       7.526  -2.181   6.120  0.00  0.00    -0.274 OA
ATOM     15  N   UNL     1       5.881  -1.998   4.545  0.00  0.00    -0.284 N 
ATOM     16  H   UNL     1       5.561  -2.914   4.561  0.00  0.00    +0.155 HD
ENDROOT
BRANCH   1  17
ATOM     17  N   UNL     1       4.282   2.429   1.582  0.00  0.00    -0.216 N 
ATOM     18  H   UNL     1       3.779   3.134   2.017  0.00  0.00    +0.174 HD
BRANCH  17  19
ATOM     19  S   UNL     1       4.718   2.582  -0.008  0.00  0.00    +0.072 S 
ATOM     20  O   UNL     1       4.289   3.871  -0.424  0.00  0.00    -0.150 OA
ATOM     21  O   UNL     1       4.298   1.391  -0.661  0.00  0.00    -0.150 OA
BRANCH  19  24
ATOM     22  C   UNL     1       8.551   1.431  -0.360  0.00  0.00    +0.040 A 
ATOM     23  C   UNL     1       7.170   1.422  -0.314  0.00  0.00    +0.031 A 
ATOM     24  C   UNL     1       6.479   2.594  -0.067  0.00  0.00    +0.109 A 
ATOM     25  C   UNL     1       7.169   3.775   0.134  0.00  0.00    +0.031 A 
ATOM     26  C   UNL     1       8.550   3.786   0.088  0.00  0.00    +0.040 A 
ATOM     27  C   UNL     1       9.243   2.613  -0.159  0.00  0.00    +0.124 A 
ATOM     28  F   UNL     1      10.593   2.623  -0.204  0.00  0.00    -0.205 F 
ENDBRANCH  19  24
ENDBRANCH  17  19
ENDBRANCH   1  17
TORSDOF 3
