REMARK  Name = ZINC00948815
REMARK  2 active torsions:
REMARK  status: ('A' for Active; 'I' for Inactive)
REMARK    1  A    between atoms: C_4  and  C_7
REMARK    2  A    between atoms: N_25  and  N_26
REMARK                            x       y       z     vdW  Elec       q    Type
REMARK                         _______ _______ _______ _____ _____    ______ ____
ROOT
ATOM      1  C   UNL     1       3.659   2.163  -0.022  0.00  0.00    +0.004 A 
ATOM      2  C   UNL     1       4.641   1.869   0.864  0.00  0.00    +0.056 A 
ATOM      3  S   UNL     1       5.932   3.026   0.451  0.00  0.00    -0.076 S 
ATOM      4  C   UNL     1       5.130   3.878  -0.882  0.00  0.00    +0.116 A 
ATOM      5  C   UNL     1       3.877   3.241  -0.981  0.00  0.00    +0.082 A 
ATOM      6  C   UNL     1       3.006   3.735  -1.994  0.00  0.00    +0.284 A 
ATOM      7  O   UNL     1       1.901   3.240  -2.147  0.00  0.00    -0.265 OA
ATOM      8  N   UNL     1       3.407   4.753  -2.784  0.00  0.00    -0.175 N 
ATOM      9  C   UNL     1       4.644   5.312  -2.616  0.00  0.00    +0.167 A 
ATOM     10  N   UNL     1       5.471   4.873  -1.683  0.00  0.00    -0.220 NA
ATOM     11  C   UNL     1       5.052   6.420  -3.492  0.00  0.00    +0.030 A 
ATOM     12  C   UNL     1       6.299   7.031  -3.371  0.00  0.00    +0.012 A 
ATOM     13  C   UNL     1       6.633   8.066  -4.217  0.00  0.00    +0.001 A 
ATOM     14  C   UNL     1       5.740   8.504  -5.186  0.00  0.00    +0.001 A 
ATOM     15  C   UNL     1       4.503   7.913  -5.323  0.00  0.00    +0.012 A 
ATOM     16  C   UNL     1       4.144   6.864  -4.478  0.00  0.00    +0.028 A 
ATOM     17  C   UNL     1       2.839   6.200  -4.580  0.00  0.00    +0.161 A 
ATOM     18  N   UNL     1       2.534   5.222  -3.773  0.00  0.00    -0.145 NA
ATOM     19  N   UNL     1       1.925   6.615  -5.538  0.00  0.00    -0.266 N 
ATOM     20  H   UNL     1       2.150   7.342  -6.140  0.00  0.00    +0.168 HD
ENDROOT
BRANCH   1  24
ATOM     21  C   UNL     1       0.002  -0.004   0.002  0.00  0.00    +0.000 A 
ATOM     22  C   UNL     1      -0.017   1.379   0.010  0.00  0.00    +0.001 A 
ATOM     23  C   UNL     1       1.167   2.088   0.002  0.00  0.00    +0.008 A 
ATOM     24  C   UNL     1       2.384   1.407  -0.013  0.00  0.00    -0.017 A 
ATOM     25  C   UNL     1       2.397   0.013  -0.021  0.00  0.00    +0.008 A 
ATOM     26  C   UNL     1       1.206  -0.685  -0.013  0.00  0.00    +0.001 A 
ENDBRANCH   1  24
BRANCH  19  27
ATOM     27  N   UNL     1       0.710   5.998  -5.636  0.00  0.00    -0.255 NA
ATOM     28  H   UNL     1       0.218   6.029  -4.756  0.00  0.00    +0.140 HD
ATOM     29  H   UNL     1       0.157   6.406  -6.374  0.00  0.00    +0.140 HD
ENDBRANCH  19  27
TORSDOF 2
