REMARK  Name = ZINC36848787
REMARK  7 active torsions:
REMARK  status: ('A' for Active; 'I' for Inactive)
REMARK    1  A    between atoms: C_1  and  C_2
REMARK    2  A    between atoms: C_6  and  N_8
REMARK    3  A    between atoms: C_9  and  C_24
REMARK    4  A    between atoms: C_12  and  S_13
REMARK    5  A    between atoms: S_13  and  C_14
REMARK    6  A    between atoms: C_14  and  C_15
REMARK    7  A    between atoms: C_20  and  C_23
REMARK                            x       y       z     vdW  Elec       q    Type
REMARK                         _______ _______ _______ _____ _____    ______ ____
ROOT
ATOM      1  N   UNL     1       0.053  -2.798   2.395  0.00  0.00    -0.270 N 
ATOM      2  C   UNL     1      -0.926  -3.638   2.882  0.00  0.00    +0.171 A 
ATOM      3  N   UNL     1      -0.503  -4.089   4.041  0.00  0.00    -0.128 NA
ATOM      4  N   UNL     1       0.653  -3.598   4.309  0.00  0.00    -0.122 NA
ATOM      5  C   UNL     1       1.047  -2.807   3.338  0.00  0.00    +0.197 A 
ENDROOT
BRANCH   2   6
ATOM      6  C   UNL     1      -2.206  -3.967   2.225  0.00  0.00    +0.045 A 
ATOM      7  C   UNL     1      -2.645  -3.507   1.025  0.00  0.00    +0.095 A 
ATOM      8  N   UNL     1      -3.874  -4.033   0.751  0.00  0.00    -0.360 N 
ATOM      9  H   UNL     1      -4.390  -3.851  -0.050  0.00  0.00    +0.165 HD
ATOM     10  C   UNL     1      -4.277  -4.861   1.777  0.00  0.00    +0.047 A 
ATOM     11  C   UNL     1      -3.255  -4.864   2.741  0.00  0.00    +0.010 A 
ATOM     12  C   UNL     1      -3.389  -5.628   3.899  0.00  0.00    +0.011 A 
ATOM     13  C   UNL     1      -4.526  -6.381   4.090  0.00  0.00    +0.001 A 
ATOM     14  C   UNL     1      -5.535  -6.382   3.137  0.00  0.00    +0.002 A 
ATOM     15  C   UNL     1      -5.420  -5.625   1.992  0.00  0.00    +0.026 A 
ENDBRANCH   2   6
BRANCH   1  21
ATOM     16  C   UNL     1      -0.018   1.503   0.010  0.00  0.00    +0.044 C 
ATOM     17  C   UNL     1       0.002  -0.004   0.002  0.00  0.00    -0.048 A 
ATOM     18  C   UNL     1       0.006  -0.688  -1.200  0.00  0.00    +0.003 A 
ATOM     19  C   UNL     1       0.025  -2.071  -1.212  0.00  0.00    +0.002 A 
ATOM     20  C   UNL     1       0.040  -2.773  -0.022  0.00  0.00    +0.026 A 
ATOM     21  C   UNL     1       0.037  -2.089   1.186  0.00  0.00    +0.051 A 
ATOM     22  C   UNL     1       0.023  -0.700   1.194  0.00  0.00    +0.029 A 
ENDBRANCH   1  21
BRANCH   5  23
ATOM     23  S   UNL     1       2.567  -1.919   3.264  0.00  0.00    -0.076 S 
BRANCH  23  24
ATOM     24  C   UNL     1       3.412  -2.366   4.805  0.00  0.00    +0.173 C 
BRANCH  24  25
ATOM     25  C   UNL     1       4.745  -1.665   4.869  0.00  0.00    +0.229 C 
ATOM     26  O   UNL     1       5.090  -0.935   3.963  0.00  0.00    -0.275 OA
ATOM     27  N   UNL     1       5.553  -1.848   5.932  0.00  0.00    -0.264 N 
ATOM     28  C   UNL     1       6.781  -1.201   5.990  0.00  0.00    +0.165 A 
ATOM     29  N   UNL     1       7.694  -1.264   6.936  0.00  0.00    -0.230 NA
ATOM     30  C   UNL     1       8.821  -0.582   6.843  0.00  0.00    +0.047 A 
ATOM     31  C   UNL     1       8.991   0.179   5.735  0.00  0.00    +0.071 A 
ATOM     32  S   UNL     1       7.467  -0.153   4.866  0.00  0.00    -0.060 S 
ATOM     33  C   UNL     1       9.871  -0.647   7.922  0.00  0.00    +0.066 C 
ATOM     34  H   UNL     1       5.277  -2.432   6.656  0.00  0.00    +0.157 HD
ENDBRANCH  24  25
ENDBRANCH  23  24
ENDBRANCH   5  23
TORSDOF 5
