REMARK  Name = ZINC13125008
REMARK  8 active torsions:
REMARK  status: ('A' for Active; 'I' for Inactive)
REMARK    1  A    between atoms: C_1  and  C_2
REMARK    2  A    between atoms: C_6  and  O_30
REMARK    3  A    between atoms: C_7  and  O_28
REMARK    4  A    between atoms: C_10  and  C_21
REMARK    5  A    between atoms: N_13  and  C_15
REMARK    6  A    between atoms: C_26  and  O_27
REMARK    7  A    between atoms: O_28  and  C_29
REMARK    8  A    between atoms: O_30  and  C_31
REMARK                            x       y       z     vdW  Elec       q    Type
REMARK                         _______ _______ _______ _____ _____    ______ ____
ROOT
ATOM      1  C   UNL     1      -0.026   1.503   0.011  0.00  0.00    +0.068 C 
ATOM      2  C   UNL     1       0.012  -0.004   0.001  0.00  0.00    +0.070 A 
ATOM      3  C   UNL     1      -0.090  -0.821  -1.141  0.00  0.00    +0.050 A 
ATOM      4  C   UNL     1      -0.252  -0.548  -2.570  0.00  0.00    +0.000 A 
ATOM      5  C   UNL     1      -0.341   0.747  -3.080  0.00  0.00    +0.058 A 
ATOM      6  C   UNL     1      -0.491   0.930  -4.439  0.00  0.00    +0.162 A 
ATOM      7  C   UNL     1      -0.556  -0.170  -5.304  0.00  0.00    +0.162 A 
ATOM      8  C   UNL     1      -0.471  -1.446  -4.821  0.00  0.00    +0.060 A 
ATOM      9  C   UNL     1      -0.317  -1.658  -3.447  0.00  0.00    +0.013 A 
ATOM     10  C   UNL     1      -0.220  -3.000  -2.877  0.00  0.00    +0.085 A 
ATOM     11  N   UNL     1      -0.075  -3.165  -1.577  0.00  0.00    -0.226 NA
ATOM     12  C   UNL     1      -0.008  -2.154  -0.712  0.00  0.00    +0.165 A 
ATOM     13  N   UNL     1       0.139  -2.111   0.653  0.00  0.00    -0.214 N 
ATOM     14  N   UNL     1       0.152  -0.769   1.048  0.00  0.00    -0.169 NA
ENDROOT
BRANCH  13  15
ATOM     15  C   UNL     1       0.261  -3.219   1.501  0.00  0.00    +0.068 A 
ATOM     16  C   UNL     1      -0.428  -4.391   1.218  0.00  0.00    +0.028 A 
ATOM     17  C   UNL     1      -0.306  -5.481   2.056  0.00  0.00    +0.002 A 
ATOM     18  C   UNL     1       0.500  -5.407   3.177  0.00  0.00    +0.000 A 
ATOM     19  C   UNL     1       1.187  -4.241   3.462  0.00  0.00    +0.002 A 
ATOM     20  C   UNL     1       1.074  -3.149   2.624  0.00  0.00    +0.028 A 
ENDBRANCH  13  15
BRANCH  10  21
ATOM     21  C   UNL     1      -0.284  -4.181  -3.764  0.00  0.00    +0.042 A 
ATOM     22  C   UNL     1       0.546  -4.265  -4.882  0.00  0.00    +0.013 A 
ATOM     23  C   UNL     1       0.481  -5.369  -5.705  0.00  0.00    +0.001 A 
ATOM     24  C   UNL     1      -0.406  -6.396  -5.428  0.00  0.00    +0.004 A 
ATOM     25  C   UNL     1      -1.233  -6.324  -4.324  0.00  0.00    +0.046 A 
ATOM     26  C   UNL     1      -1.175  -5.224  -3.482  0.00  0.00    +0.126 A 
BRANCH  26  27
ATOM     27  O   UNL     1      -1.983  -5.156  -2.393  0.00  0.00    -0.506 OA
ATOM     28  H   UNL     1      -2.838  -4.737  -2.563  0.00  0.00    +0.292 HD
ENDBRANCH  26  27
ENDBRANCH  10  21
BRANCH   7  29
ATOM     29  O   UNL     1      -0.705   0.034  -6.640  0.00  0.00    -0.491 OA
ATOM     30  C   UNL     1      -0.764  -1.127  -7.471  0.00  0.00    +0.277 C 
ENDBRANCH   7  29
BRANCH   6  31
ATOM     31  O   UNL     1      -0.579   2.189  -4.943  0.00  0.00    -0.491 OA
ATOM     32  C   UNL     1      -0.507   3.268  -4.009  0.00  0.00    +0.277 C 
ENDBRANCH   6  31
TORSDOF 5
