REMARK  Name = ZINC36659014
REMARK  9 active torsions:
REMARK  status: ('A' for Active; 'I' for Inactive)
REMARK    1  A    between atoms: C_1  and  C_2
REMARK    2  A    between atoms: C_2  and  C_3
REMARK    3  A    between atoms: C_2  and  S_4
REMARK    4  A    between atoms: S_4  and  C_5
REMARK    5  A    between atoms: C_8  and  C_11
REMARK    6  A    between atoms: C_11  and  C_12
REMARK    7  A    between atoms: C_18  and  C_20
REMARK    8  A    between atoms: N_26  and  S_27
REMARK    9  A    between atoms: S_27  and  C_30
REMARK                            x       y       z     vdW  Elec       q    Type
REMARK                         _______ _______ _______ _____ _____    ______ ____
ROOT
ATOM      1  C   UNL     1      -4.741  -0.424  -6.335  0.00  0.00    +0.223 A 
ATOM      2  N   UNL     1      -5.450  -1.514  -6.314  0.00  0.00    -0.111 NA
ATOM      3  N   UNL     1      -4.955  -2.366  -7.142  0.00  0.00    -0.092 NA
ATOM      4  C   UNL     1      -3.904  -1.843  -7.724  0.00  0.00    +0.314 A 
ATOM      5  O   UNL     1      -3.750  -0.601  -7.229  0.00  0.00    -0.409 OA
ATOM      6  N   UNL     1      -3.102  -2.454  -8.676  0.00  0.00    -0.237 N 
ATOM      7  C   UNL     1      -3.378  -3.708  -9.085  0.00  0.00    +0.239 C 
ATOM      8  O   UNL     1      -4.328  -4.302  -8.621  0.00  0.00    -0.274 OA
ATOM      9  H   UNL     1      -2.342  -1.979  -9.048  0.00  0.00    +0.159 HD
ENDROOT
BRANCH   7  10
ATOM     10  C   UNL     1      -2.507  -4.372 -10.120  0.00  0.00    +0.166 C 
ATOM     11  C   UNL     1      -3.333  -4.663 -11.377  0.00  0.00    +0.030 C 
ATOM     12  C   UNL     1      -2.483  -5.460 -12.369  0.00  0.00    +0.003 C 
ATOM     13  C   UNL     1      -2.077  -6.794 -11.738  0.00  0.00    +0.017 C 
ATOM     14  C   UNL     1      -1.237  -6.528 -10.485  0.00  0.00    +0.110 C 
ATOM     15  N   UNL     1      -1.989  -5.640  -9.588  0.00  0.00    -0.164 NA
BRANCH  15  16
ATOM     16  S   UNL     1      -2.252  -6.062  -8.008  0.00  0.00    +0.068 S 
ATOM     17  O   UNL     1      -1.208  -6.955  -7.647  0.00  0.00    -0.152 OA
ATOM     18  O   UNL     1      -2.500  -4.854  -7.301  0.00  0.00    -0.152 OA
BRANCH  16  19
ATOM     19  C   UNL     1      -3.748  -6.991  -7.959  0.00  0.00    +0.143 A 
ATOM     20  C   UNL     1      -3.926  -8.329  -8.076  0.00  0.00    +0.036 A 
ATOM     21  C   UNL     1      -5.207  -8.844  -8.005  0.00  0.00    +0.010 A 
ATOM     22  C   UNL     1      -6.248  -7.995  -7.821  0.00  0.00    +0.047 A 
ATOM     23  S   UNL     1      -5.423  -6.414  -7.735  0.00  0.00    -0.077 S 
ENDBRANCH  16  19
ENDBRANCH  15  16
ENDBRANCH   7  10
BRANCH   1  24
ATOM     24  C   UNL     1      -4.988   0.815  -5.513  0.00  0.00    +0.132 C 
BRANCH  24  28
ATOM     25  C   UNL     1      -2.854   0.524  -1.821  0.00  0.00    +0.008 A 
ATOM     26  C   UNL     1      -2.249   1.100  -2.932  0.00  0.00    +0.015 A 
ATOM     27  C   UNL     1      -2.941   1.192  -4.123  0.00  0.00    +0.005 A 
ATOM     28  C   UNL     1      -4.236   0.713  -4.211  0.00  0.00    -0.038 A 
ATOM     29  C   UNL     1      -4.841   0.140  -3.108  0.00  0.00    +0.005 A 
ATOM     30  C   UNL     1      -4.153   0.039  -1.915  0.00  0.00    +0.015 A 
BRANCH  25  31
ATOM     31  S   UNL     1      -1.974   0.405  -0.299  0.00  0.00    -0.122 S 
BRANCH  31  33
ATOM     32  C   UNL     1      -0.756   2.818  -0.713  0.00  0.00    +0.019 C 
ATOM     33  C   UNL     1      -0.442   1.325  -0.605  0.00  0.00    +0.045 C 
ATOM     34  C   UNL     1       0.532   1.092   0.552  0.00  0.00    +0.019 C 
ENDBRANCH  31  33
ENDBRANCH  25  31
ENDBRANCH  24  28
ENDBRANCH   1  24
TORSDOF 7
