REMARK  Name = ZINC35401558
REMARK  10 active torsions:
REMARK  status: ('A' for Active; 'I' for Inactive)
REMARK    1  A    between atoms: C_1  and  C_2
REMARK    2  A    between atoms: C_5  and  C_33
REMARK    3  A    between atoms: N_8  and  C_10
REMARK    4  A    between atoms: C_10  and  C_11
REMARK    5  A    between atoms: C_11  and  N_12
REMARK    6  A    between atoms: N_12  and  C_13
REMARK    7  A    between atoms: N_12  and  S_23
REMARK    8  A    between atoms: C_13  and  C_14
REMARK    9  A    between atoms: C_14  and  C_15
REMARK   10  A    between atoms: S_23  and  C_26
REMARK                            x       y       z     vdW  Elec       q    Type
REMARK                         _______ _______ _______ _____ _____    ______ ____
ROOT
ATOM      1  N   UNL     1       2.927  -0.202   4.830  0.00  0.00    -0.178 NA
ENDROOT
BRANCH   1   2
ATOM      2  S   UNL     1       2.897   0.722   6.204  0.00  0.00    +0.061 S 
ATOM      3  O   UNL     1       4.144   0.522   6.855  0.00  0.00    -0.153 OA
ATOM      4  O   UNL     1       2.437   2.010   5.817  0.00  0.00    -0.153 OA
BRANCH   2   5
ATOM      5  C   UNL     1       1.661   0.044   7.261  0.00  0.00    +0.108 A 
ATOM      6  C   UNL     1       0.355   0.489   7.173  0.00  0.00    +0.029 A 
ATOM      7  C   UNL     1      -0.615  -0.043   8.002  0.00  0.00    +0.005 A 
ATOM      8  C   UNL     1      -0.280  -1.020   8.920  0.00  0.00    +0.038 A 
ATOM      9  C   UNL     1       1.028  -1.466   9.010  0.00  0.00    +0.125 A 
ATOM     10  C   UNL     1       1.997  -0.937   8.174  0.00  0.00    +0.066 A 
ATOM     11  F   UNL     1       1.356  -2.421   9.907  0.00  0.00    -0.205 F 
ENDBRANCH   2   5
ENDBRANCH   1   2
BRANCH   1  12
ATOM     12  C   UNL     1       2.174   0.221   3.646  0.00  0.00    +0.091 C 
BRANCH  12  13
ATOM     13  C   UNL     1       0.807  -0.464   3.639  0.00  0.00    -0.061 C 
BRANCH  13  19
ATOM     14  C   UNL     1      -0.019   1.526   0.010  0.00  0.00    +0.005 C 
ATOM     15  C   UNL     1       0.002  -0.004   0.002  0.00  0.00    -0.031 C 
ATOM     16  C   UNL     1      -1.434  -0.535   0.015  0.00  0.00    +0.003 C 
ATOM     17  C   UNL     1      -2.117  -0.099   1.315  0.00  0.00    -0.031 C 
ATOM     18  C   UNL     1      -1.302  -0.604   2.507  0.00  0.00    -0.076 C 
ATOM     19  N   UNL     1       0.052  -0.040   2.452  0.00  0.00    +0.381 N 
ATOM     20  C   UNL     1       0.740  -0.512   1.242  0.00  0.00    -0.076 C 
ATOM     21  C   UNL     1      -3.528  -0.689   1.373  0.00  0.00    +0.005 C 
ATOM     22  H   UNL     1      -0.004   0.967   2.434  0.00  0.00    -0.082 HD
ENDBRANCH  13  19
ENDBRANCH  12  13
ENDBRANCH   1  12
BRANCH   1  23
ATOM     23  C   UNL     1       3.705  -1.442   4.798  0.00  0.00    +0.118 C 
BRANCH  23  24
ATOM     24  C   UNL     1       5.086  -1.163   4.202  0.00  0.00    +0.113 C 
BRANCH  24  25
ATOM     25  C   UNL     1       5.887  -2.439   4.169  0.00  0.00    +0.217 C 
ATOM     26  O   UNL     1       5.401  -3.470   4.582  0.00  0.00    -0.276 OA
ATOM     27  N   UNL     1       7.143  -2.433   3.681  0.00  0.00    -0.305 N 
ATOM     28  C   UNL     1       7.755  -1.193   3.180  0.00  0.00    +0.088 C 
ATOM     29  C   UNL     1       9.130  -1.030   3.837  0.00  0.00    -0.063 C 
ATOM     30  N   UNL     1       9.930  -2.238   3.602  0.00  0.00    +0.381 N 
ATOM     31  C   UNL     1       9.307  -3.388   4.269  0.00  0.00    -0.063 C 
ATOM     32  C   UNL     1       7.944  -3.667   3.639  0.00  0.00    +0.088 C 
ATOM     33  H   UNL     1       9.986  -2.416   2.610  0.00  0.00    -0.086 HD
ATOM     34  H   UNL     1      10.860  -2.100   3.969  0.00  0.00    -0.086 HD
ENDBRANCH  24  25
ENDBRANCH  23  24
ENDBRANCH   1  23
TORSDOF 8
