REMARK  Name = ZINC36493121
REMARK  13 active torsions:
REMARK  status: ('A' for Active; 'I' for Inactive)
REMARK    1  A    between atoms: C_1  and  C_2
REMARK    2  A    between atoms: C_2  and  C_3
REMARK    3  A    between atoms: N_5  and  C_6
REMARK    4  A    between atoms: N_5  and  C_12
REMARK    5  A    between atoms: C_12  and  C_14
REMARK    6  A    between atoms: C_12  and  C_23
REMARK    7  A    between atoms: C_15  and  O_22
REMARK    8  A    between atoms: C_17  and  O_21
REMARK    9  A    between atoms: C_19  and  O_20
REMARK   10  A    between atoms: N_25  and  C_26
REMARK   11  A    between atoms: C_26  and  S_27
REMARK   12  A    between atoms: S_27  and  C_30
REMARK   13  A    between atoms: C_33  and  C_36
REMARK                            x       y       z     vdW  Elec       q    Type
REMARK                         _______ _______ _______ _____ _____    ______ ____
ROOT
ATOM      1  C   UNL     1       0.666  -3.083  -0.772  0.00  0.00    +0.199 C 
ENDROOT
BRANCH   1   2
ATOM      2  C   UNL     1      -0.711  -2.628  -0.361  0.00  0.00    +0.065 A 
ATOM      3  C   UNL     1      -0.951  -1.286  -0.111  0.00  0.00    +0.129 A 
ATOM      4  C   UNL     1      -2.218  -0.867   0.267  0.00  0.00    +0.091 A 
ATOM      5  C   UNL     1      -3.245  -1.791   0.393  0.00  0.00    +0.124 A 
ATOM      6  C   UNL     1      -3.005  -3.133   0.141  0.00  0.00    +0.091 A 
ATOM      7  C   UNL     1      -1.739  -3.551  -0.240  0.00  0.00    +0.129 A 
BRANCH   7   8
ATOM      8  O   UNL     1      -1.504  -4.866  -0.492  0.00  0.00    -0.506 OA
ATOM      9  H   UNL     1      -1.225  -5.371   0.284  0.00  0.00    +0.292 HD
ENDBRANCH   7   8
BRANCH   5  10
ATOM     10  O   UNL     1      -4.486  -1.381   0.764  0.00  0.00    -0.507 OA
ATOM     11  H   UNL     1      -5.059  -1.141   0.023  0.00  0.00    +0.292 HD
ENDBRANCH   5  10
BRANCH   3  12
ATOM     12  O   UNL     1       0.055  -0.381  -0.234  0.00  0.00    -0.506 OA
ATOM     13  H   UNL     1       0.089   0.054  -1.097  0.00  0.00    +0.292 HD
ENDBRANCH   3  12
ENDBRANCH   1   2
BRANCH   1  14
ATOM     14  C   UNL     1       1.599  -2.989   0.408  0.00  0.00    +0.240 C 
ATOM     15  O   UNL     1       2.219  -1.966   0.610  0.00  0.00    -0.273 OA
ATOM     16  N   UNL     1       1.744  -4.040   1.238  0.00  0.00    -0.294 N 
ATOM     17  H   UNL     1       1.248  -4.858   1.077  0.00  0.00    +0.150 HD
BRANCH  16  18
ATOM     18  C   UNL     1       2.651  -3.947   2.385  0.00  0.00    +0.278 C 
BRANCH  18  19
ATOM     19  S   UNL     1       1.713  -3.465   3.861  0.00  0.00    +0.013 S 
ATOM     20  O   UNL     1       2.568  -3.432   4.995  0.00  0.00    -0.168 OA
ATOM     21  O   UNL     1       0.863  -2.366   3.562  0.00  0.00    -0.168 OA
BRANCH  19  22
ATOM     22  C   UNL     1       0.617  -4.812   4.162  0.00  0.00    +0.090 A 
ATOM     23  C   UNL     1      -0.637  -4.826   3.580  0.00  0.00    +0.027 A 
ATOM     24  C   UNL     1      -1.496  -5.882   3.816  0.00  0.00    +0.005 A 
ATOM     25  C   UNL     1      -1.101  -6.925   4.633  0.00  0.00    -0.050 A 
ATOM     26  C   UNL     1       0.153  -6.912   5.214  0.00  0.00    +0.005 A 
ATOM     27  C   UNL     1       1.014  -5.857   4.974  0.00  0.00    +0.027 A 
ATOM     28  C   UNL     1      -2.039  -8.077   4.891  0.00  0.00    +0.044 C 
ENDBRANCH  19  22
ENDBRANCH  18  19
ENDBRANCH  16  18
ENDBRANCH   1  14
BRANCH   1  31
ATOM     29  C   UNL     1       0.302  -1.744  -2.775  0.00  0.00    +0.216 C 
ATOM     30  O   UNL     1       0.712  -1.038  -3.671  0.00  0.00    -0.276 OA
ATOM     31  N   UNL     1       1.160  -2.230  -1.855  0.00  0.00    -0.283 N 
BRANCH  31  32
ATOM     32  C   UNL     1       2.586  -1.903  -1.938  0.00  0.00    +0.077 C 
ATOM     33  C   UNL     1       2.751  -0.452  -2.394  0.00  0.00    +0.022 C 
ATOM     34  C   UNL     1       4.240  -0.112  -2.481  0.00  0.00    +0.002 C 
ATOM     35  C   UNL     1       4.918  -1.043  -3.488  0.00  0.00    +0.000 C 
ATOM     36  C   UNL     1       4.753  -2.494  -3.032  0.00  0.00    +0.002 C 
ATOM     37  C   UNL     1       3.264  -2.834  -2.945  0.00  0.00    +0.022 C 
ENDBRANCH  31  32
BRANCH  29  39
ATOM     38  C   UNL     1      -1.836  -1.776  -4.029  0.00  0.00    +0.013 C 
ATOM     39  C   UNL     1      -1.164  -2.079  -2.689  0.00  0.00    +0.092 C 
ENDBRANCH  29  39
ENDBRANCH   1  31
TORSDOF 11
