REMARK  Name = ZINC12908091
REMARK  12 active torsions:
REMARK  status: ('A' for Active; 'I' for Inactive)
REMARK    1  A    between atoms: C_1  and  C_2
REMARK    2  A    between atoms: C_2  and  C_3
REMARK    3  A    between atoms: C_2  and  C_4
REMARK    4  A    between atoms: C_4  and  C_6
REMARK    5  A    between atoms: C_4  and  O_12
REMARK    6  A    between atoms: O_12  and  C_13
REMARK    7  A    between atoms: C_13  and  C_15
REMARK    8  A    between atoms: C_15  and  C_17
REMARK    9  A    between atoms: C_15  and  N_24
REMARK   10  A    between atoms: C_17  and  C_18
REMARK   11  A    between atoms: N_24  and  S_25
REMARK   12  A    between atoms: S_25  and  C_28
REMARK                            x       y       z     vdW  Elec       q    Type
REMARK                         _______ _______ _______ _____ _____    ______ ____
ROOT
ATOM      1  C   UNL     1      -2.603  -2.563  -0.753  0.00  0.00    +0.189 C 
ENDROOT
BRANCH   1   2
ATOM      2  C   UNL     1      -2.696  -1.198  -0.122  0.00  0.00    +0.327 C 
ATOM      3  O   UNL     1      -3.611  -0.462  -0.406  0.00  0.00    -0.249 OA
BRANCH   2   4
ATOM      4  O   UNL     1      -1.762  -0.800   0.756  0.00  0.00    -0.450 OA
BRANCH   4   5
ATOM      5  C   UNL     1      -1.915   0.527   1.325  0.00  0.00    +0.265 C 
BRANCH   5   6
ATOM      6  C   UNL     1      -0.557   1.095   1.648  0.00  0.00    +0.261 C 
ATOM      7  O   UNL     1      -0.450   2.255   1.985  0.00  0.00    -0.271 OA
ATOM      8  N   UNL     1       0.538   0.314   1.562  0.00  0.00    -0.237 N 
ATOM      9  C   UNL     1       1.737   0.790   1.952  0.00  0.00    +0.303 C 
ATOM     10  O   UNL     1       1.831   1.923   2.380  0.00  0.00    -0.253 OA
ATOM     11  N   UNL     1       2.832   0.009   1.866  0.00  0.00    -0.313 N 
ATOM     12  H   UNL     1       0.463  -0.590   1.220  0.00  0.00    +0.159 HD
ATOM     13  H   UNL     1       2.757  -0.895   1.524  0.00  0.00    +0.146 HD
ATOM     14  H   UNL     1       3.695   0.351   2.146  0.00  0.00    +0.146 HD
ENDBRANCH   5   6
BRANCH   5  16
ATOM     15  C   UNL     1      -3.033   1.851   3.126  0.00  0.00    +0.011 C 
ATOM     16  C   UNL     1      -2.749   0.441   2.605  0.00  0.00    +0.033 C 
ATOM     17  C   UNL     1      -4.072  -0.268   2.305  0.00  0.00    +0.011 C 
ENDBRANCH   5  16
ENDBRANCH   4   5
ENDBRANCH   2   4
ENDBRANCH   1   2
BRANCH   1  18
ATOM     18  N   UNL     1      -3.731  -2.756  -1.667  0.00  0.00    -0.176 NA
ATOM     19  H   UNL     1      -4.587  -3.059  -1.325  0.00  0.00    +0.149 HD
BRANCH  18  20
ATOM     20  S   UNL     1      -3.546  -2.458  -3.286  0.00  0.00    +0.062 S 
ATOM     21  O   UNL     1      -4.805  -2.714  -3.892  0.00  0.00    -0.153 OA
ATOM     22  O   UNL     1      -2.889  -1.203  -3.395  0.00  0.00    -0.153 OA
BRANCH  20  23
ATOM     23  C   UNL     1      -2.429  -3.668  -3.914  0.00  0.00    +0.140 A 
ATOM     24  C   UNL     1      -2.899  -4.696  -4.709  0.00  0.00    +0.031 A 
ATOM     25  C   UNL     1      -2.023  -5.642  -5.206  0.00  0.00    +0.002 A 
ATOM     26  C   UNL     1      -0.676  -5.567  -4.900  0.00  0.00    +0.003 A 
ATOM     27  C   UNL     1      -0.205  -4.543  -4.101  0.00  0.00    +0.040 A 
ATOM     28  C   UNL     1      -1.081  -3.591  -3.607  0.00  0.00    +0.150 A 
ATOM     29  F   UNL     1      -0.622  -2.590  -2.825  0.00  0.00    -0.203 F 
ENDBRANCH  20  23
ENDBRANCH  18  20
ENDBRANCH   1  18
BRANCH   1  30
ATOM     30  C   UNL     1      -2.642  -3.634   0.339  0.00  0.00    +0.067 C 
BRANCH  30  31
ATOM     31  C   UNL     1      -2.512  -4.997  -0.290  0.00  0.00    -0.045 A 
ATOM     32  C   UNL     1      -3.636  -5.651  -0.760  0.00  0.00    +0.004 A 
ATOM     33  C   UNL     1      -3.517  -6.900  -1.341  0.00  0.00    +0.000 A 
ATOM     34  C   UNL     1      -2.276  -7.499  -1.443  0.00  0.00    +0.000 A 
ATOM     35  C   UNL     1      -1.153  -6.848  -0.969  0.00  0.00    +0.000 A 
ATOM     36  C   UNL     1      -1.271  -5.597  -0.392  0.00  0.00    +0.004 A 
ENDBRANCH  30  31
ENDBRANCH   1  30
TORSDOF 10
