REMARK  Name = ZINC38931459
REMARK  5 active torsions:
REMARK  status: ('A' for Active; 'I' for Inactive)
REMARK    1  A    between atoms: C_3  and  C_9
REMARK    2  A    between atoms: C_4  and  O_8
REMARK    3  A    between atoms: C_6  and  O_7
REMARK    4  A    between atoms: N_10  and  N_11
REMARK    5  A    between atoms: C_12  and  C_18
REMARK                            x       y       z     vdW  Elec       q    Type
REMARK                         _______ _______ _______ _____ _____    ______ ____
ROOT
ATOM      1  N   UNL     1       5.984   2.252  -0.150  0.00  0.00    -0.172 N 
ATOM      2  C   UNL     1       7.348   1.709  -0.290  0.00  0.00    +0.265 C 
ATOM      3  N   UNL     1       8.199   2.907  -0.365  0.00  0.00    -0.189 NA
ATOM      4  N   UNL     1       7.470   3.899  -0.284  0.00  0.00    -0.219 N 
ATOM      5  C   UNL     1       6.151   3.593  -0.161  0.00  0.00    +0.174 C 
ATOM      6  S   UNL     1       4.886   4.739  -0.034  0.00  0.00    -0.015 S 
ATOM      7  H   UNL     1       7.806   4.809  -0.310  0.00  0.00    +0.176 HD
ENDROOT
BRANCH   2   8
ATOM      8  C   UNL     1       7.466   0.893  -1.552  0.00  0.00    +0.016 A 
ATOM      9  C   UNL     1       6.340   0.317  -2.109  0.00  0.00    +0.010 A 
ATOM     10  C   UNL     1       6.446  -0.431  -3.267  0.00  0.00    +0.020 A 
ATOM     11  C   UNL     1       7.681  -0.603  -3.869  0.00  0.00    +0.042 A 
ATOM     12  C   UNL     1       8.807  -0.025  -3.312  0.00  0.00    +0.040 A 
ATOM     13  C   UNL     1       8.699   0.727  -2.156  0.00  0.00    +0.049 A 
ATOM     14 CL   UNL     1      10.112   1.458  -1.460  0.00  0.00    -0.083 Cl
ATOM     15 CL   UNL     1       7.814  -1.542  -5.322  0.00  0.00    -0.083 Cl
ENDBRANCH   2   8
BRANCH   1  17
ATOM     16  C   UNL     1       3.672   2.169   0.191  0.00  0.00    +0.142 C 
ATOM     17  N   UNL     1       4.785   1.538  -0.036  0.00  0.00    -0.183 NA
BRANCH  16  20
ATOM     18  C   UNL     1       0.005   1.420   0.433  0.00  0.00    +0.046 A 
ATOM     19  C   UNL     1       1.197   2.111   0.434  0.00  0.00    +0.016 A 
ATOM     20  C   UNL     1       2.396   1.435   0.191  0.00  0.00    +0.036 A 
ATOM     21  C   UNL     1       2.378   0.053  -0.053  0.00  0.00    +0.129 A 
ATOM     22  C   UNL     1       1.175  -0.630  -0.051  0.00  0.00    +0.091 A 
ATOM     23  C   UNL     1      -0.010   0.051   0.191  0.00  0.00    +0.120 A 
BRANCH  23  24
ATOM     24  O   UNL     1      -1.190  -0.623   0.192  0.00  0.00    -0.507 OA
ATOM     25  H   UNL     1      -1.620  -0.664  -0.673  0.00  0.00    +0.292 HD
ENDBRANCH  23  24
BRANCH  21  26
ATOM     26  O   UNL     1       3.538  -0.612  -0.291  0.00  0.00    -0.506 OA
ATOM     27  H   UNL     1       3.963  -0.958   0.506  0.00  0.00    +0.292 HD
ENDBRANCH  21  26
ENDBRANCH  16  20
ENDBRANCH   1  17
TORSDOF 5
