REMARK  Name = ZINC36259967
REMARK  9 active torsions:
REMARK  status: ('A' for Active; 'I' for Inactive)
REMARK    1  A    between atoms: C_1  and  C_2
REMARK    2  A    between atoms: C_2  and  O_3
REMARK    3  A    between atoms: O_3  and  C_4
REMARK    4  A    between atoms: C_4  and  C_6
REMARK    5  A    between atoms: C_7  and  C_21
REMARK    6  A    between atoms: C_12  and  C_14
REMARK    7  A    between atoms: C_21  and  O_22
REMARK    8  A    between atoms: O_22  and  C_23
REMARK    9  A    between atoms: C_26  and  C_29
REMARK                            x       y       z     vdW  Elec       q    Type
REMARK                         _______ _______ _______ _____ _____    ______ ____
ROOT
ATOM      1  C   UNL     1      -2.795  -2.411   0.129  0.00  0.00    +0.081 C 
ATOM      2  C   UNL     1      -2.985  -3.731  -0.085  0.00  0.00    +0.061 C 
ATOM      3  N   UNL     1      -4.241  -4.255  -0.189  0.00  0.00    -0.269 N 
ATOM      4  C   UNL     1      -5.360  -3.526  -0.092  0.00  0.00    +0.304 C 
ATOM      5  O   UNL     1      -6.436  -4.082  -0.198  0.00  0.00    -0.252 OA
ATOM      6  N   UNL     1      -5.333  -2.195   0.120  0.00  0.00    -0.288 N 
ATOM      7  C   UNL     1      -4.024  -1.533   0.254  0.00  0.00    +0.144 C 
ATOM      8  H   UNL     1      -4.328  -5.209  -0.342  0.00  0.00    +0.156 HD
ATOM      9  H   UNL     1      -6.156  -1.686   0.187  0.00  0.00    +0.151 HD
ENDROOT
BRANCH   7  10
ATOM     10  C   UNL     1      -3.976  -0.855   1.599  0.00  0.00    -0.022 A 
ATOM     11  C   UNL     1      -4.364  -1.543   2.733  0.00  0.00    +0.007 A 
ATOM     12  C   UNL     1      -4.320  -0.922   3.967  0.00  0.00    +0.020 A 
ATOM     13  C   UNL     1      -3.888   0.388   4.067  0.00  0.00    +0.041 A 
ATOM     14  C   UNL     1      -3.500   1.076   2.931  0.00  0.00    +0.020 A 
ATOM     15  C   UNL     1      -3.539   0.452   1.698  0.00  0.00    +0.007 A 
ATOM     16 CL   UNL     1      -3.833   1.169   5.616  0.00  0.00    -0.084 Cl
ENDBRANCH   7  10
BRANCH   1  17
ATOM     17  C   UNL     1      -1.494  -1.867   0.237  0.00  0.00    +0.339 C 
ATOM     18  O   UNL     1      -0.999  -1.280  -0.707  0.00  0.00    -0.245 OA
BRANCH  17  19
ATOM     19  O   UNL     1      -0.802  -1.998   1.388  0.00  0.00    -0.462 OA
BRANCH  19  21
ATOM     20  C   UNL     1       1.131  -1.672   2.802  0.00  0.00    +0.048 C 
ATOM     21  C   UNL     1       0.506  -1.424   1.428  0.00  0.00    +0.229 C 
ENDBRANCH  19  21
ENDBRANCH  17  19
ENDBRANCH   1  17
BRANCH   2  22
ATOM     22  C   UNL     1      -1.789  -4.640  -0.210  0.00  0.00    +0.280 C 
BRANCH  22  23
ATOM     23  O   UNL     1      -1.771  -5.556   0.886  0.00  0.00    -0.486 OA
BRANCH  23  24
ATOM     24  C   UNL     1      -0.751  -6.452   0.925  0.00  0.00    +0.121 A 
ATOM     25  C   UNL     1       0.216  -6.442  -0.073  0.00  0.00    +0.047 A 
ATOM     26  C   UNL     1       1.253  -7.349  -0.038  0.00  0.00    +0.022 A 
ATOM     27  C   UNL     1       1.331  -8.278   1.003  0.00  0.00    +0.052 A 
ATOM     28  C   UNL     1       0.356  -8.284   2.004  0.00  0.00    +0.022 A 
ATOM     29  C   UNL     1      -0.674  -7.371   1.964  0.00  0.00    +0.047 A 
BRANCH  27  30
ATOM     30  C   UNL     1       2.407  -9.222   1.043  0.00  0.00    +0.099 C 
ATOM     31  N   UNL     1       3.260  -9.972   1.075  0.00  0.00    -0.191 NA
ENDBRANCH  27  30
ENDBRANCH  23  24
ENDBRANCH  22  23
ENDBRANCH   2  22
TORSDOF 8
