REMARK  Name = ZINC20710096
REMARK  6 active torsions:
REMARK  status: ('A' for Active; 'I' for Inactive)
REMARK    1  A    between atoms: C_5  and  O_7
REMARK    2  A    between atoms: O_7  and  C_8
REMARK    3  A    between atoms: C_8  and  C_9
REMARK    4  A    between atoms: C_16  and  C_25
REMARK    5  A    between atoms: C_27  and  N_32
REMARK    6  A    between atoms: C_30  and  O_31
REMARK                            x       y       z     vdW  Elec       q    Type
REMARK                         _______ _______ _______ _____ _____    ______ ____
ROOT
ATOM      1  C   UNL     1       7.593  -2.749  -0.467  0.00  0.00    +0.004 A 
ATOM      2  C   UNL     1       6.588  -3.494  -1.053  0.00  0.00    +0.006 A 
ATOM      3  C   UNL     1       5.265  -3.258  -0.740  0.00  0.00    -0.016 A 
ATOM      4  C   UNL     1       4.919  -2.253   0.165  0.00  0.00    +0.074 A 
ATOM      5  C   UNL     1       5.948  -1.510   0.756  0.00  0.00    +0.142 A 
ATOM      6  C   UNL     1       7.269  -1.759   0.442  0.00  0.00    +0.047 A 
ATOM      7  N   UNL     1       3.607  -1.935   0.517  0.00  0.00    -0.334 N 
ATOM      8  C   UNL     1       2.547  -2.793  -0.037  0.00  0.00    +0.109 C 
ATOM      9  C   UNL     1       2.938  -3.120  -1.462  0.00  0.00    +0.029 C 
ATOM     10  C   UNL     1       4.172  -4.065  -1.326  0.00  0.00    +0.049 C 
ATOM     11  C   UNL     1       4.261  -4.667  -2.680  0.00  0.00    -0.023 C 
ATOM     12  C   UNL     1       3.043  -4.702  -3.208  0.00  0.00    -0.030 C 
ATOM     13  C   UNL     1       2.036  -4.079  -2.238  0.00  0.00    +0.033 C 
ATOM     14  H   UNL     1       3.345  -1.092   1.174  0.00  0.00    +0.147 HD
ENDROOT
BRANCH   8  15
ATOM     15  C   UNL     1       1.231  -2.059  -0.021  0.00  0.00    +0.017 A 
ATOM     16  C   UNL     1       1.209  -0.678  -0.013  0.00  0.00    +0.041 A 
ATOM     17  C   UNL     1       0.002  -0.004   0.002  0.00  0.00    +0.127 A 
ATOM     18  C   UNL     1      -1.187  -0.711   0.015  0.00  0.00    +0.036 A 
ATOM     19  C   UNL     1      -1.171  -2.092   0.002  0.00  0.00    +0.048 A 
ATOM     20  C   UNL     1       0.040  -2.770  -0.013  0.00  0.00    +0.122 A 
BRANCH  17  21
ATOM     21  N   UNL     1      -0.018   1.476   0.010  0.00  0.00    +0.056 N 
ATOM     22  O   UNL     1       1.028   2.099   0.004  0.00  0.00    -0.126 OA
ATOM     23  O   UNL     1      -1.081   2.070   0.018  0.00  0.00    -0.126 OA
ENDBRANCH  17  21
BRANCH  20  24
ATOM     24  O   UNL     1       0.058  -4.129  -0.020  0.00  0.00    -0.506 OA
ATOM     25  H   UNL     1      -0.887  -4.692  -0.014  0.00  0.00    +0.292 HD
ENDBRANCH  20  24
ENDBRANCH   8  15
BRANCH   5  26
ATOM     26  O   UNL     1       5.642  -0.531   1.650  0.00  0.00    -0.488 OA
BRANCH  26  27
ATOM     27  C   UNL     1       6.735   0.192   2.220  0.00  0.00    +0.260 C 
BRANCH  27  28
ATOM     28  C   UNL     1       6.198   1.243   3.194  0.00  0.00    +0.156 C 
ATOM     29  C   UNL     1       7.357   2.095   3.757  0.00  0.00    +0.037 C 
ATOM     30  C   UNL     1       6.957   2.348   5.228  0.00  0.00    +0.031 C 
ATOM     31  C   UNL     1       5.604   1.618   5.380  0.00  0.00    +0.160 C 
ATOM     32  O   UNL     1       5.612   0.605   4.349  0.00  0.00    -0.373 OA
ENDBRANCH  27  28
ENDBRANCH  26  27
ENDBRANCH   5  26
TORSDOF 6
