REMARK  Name = ZINC35781316
REMARK  13 active torsions:
REMARK  status: ('A' for Active; 'I' for Inactive)
REMARK    1  A    between atoms: C_1  and  C_2
REMARK    2  A    between atoms: C_2  and  C_3
REMARK    3  A    between atoms: C_2  and  C_4
REMARK    4  A    between atoms: C_4  and  O_5
REMARK    5  A    between atoms: O_5  and  C_6
REMARK    6  A    between atoms: C_6  and  C_7
REMARK    7  A    between atoms: C_7  and  C_9
REMARK    8  A    between atoms: C_7  and  O_35
REMARK    9  A    between atoms: C_9  and  N_10
REMARK   10  A    between atoms: N_10  and  C_11
REMARK   11  A    between atoms: N_10  and  C_18
REMARK   12  A    between atoms: C_11  and  C_12
REMARK   13  A    between atoms: C_18  and  C_19
REMARK                            x       y       z     vdW  Elec       q    Type
REMARK                         _______ _______ _______ _____ _____    ______ ____
ROOT
ATOM      1  N   UNL     1       6.231  -0.086  -3.015  0.00  0.00    +0.389 N 
ATOM      2  H   UNL     1       6.209   0.871  -2.695  0.00  0.00    -0.081 HD
ENDROOT
BRANCH   1   3
ATOM      3  C   UNL     1       4.895  -0.476  -3.486  0.00  0.00    -0.044 C 
BRANCH   3   4
ATOM      4  C   UNL     1       3.871  -0.227  -2.378  0.00  0.00    +0.124 C 
BRANCH   4   5
ATOM      5  O   UNL     1       3.785   1.175  -2.115  0.00  0.00    -0.391 OA
ATOM      6  H   UNL     1       3.513   1.703  -2.878  0.00  0.00    +0.210 HD
ENDBRANCH   4   5
BRANCH   4   7
ATOM      7  C   UNL     1       2.502  -0.747  -2.821  0.00  0.00    +0.189 C 
BRANCH   7   8
ATOM      8  O   UNL     1       1.572  -0.621  -1.744  0.00  0.00    -0.377 OA
BRANCH   8   9
ATOM      9  C   UNL     1       0.256  -1.081  -2.055  0.00  0.00    +0.163 C 
BRANCH   9  11
ATOM     10  C   UNL     1      -0.804   0.592  -0.533  0.00  0.00    +0.009 C 
ATOM     11  C   UNL     1      -0.650  -0.899  -0.836  0.00  0.00    +0.009 C 
ATOM     12  C   UNL     1      -2.024  -1.505  -1.126  0.00  0.00    +0.009 C 
ENDBRANCH   9  11
ENDBRANCH   8   9
ENDBRANCH   7   8
ENDBRANCH   4   7
ENDBRANCH   3   4
ENDBRANCH   1   3
BRANCH   1  13
ATOM     13  C   UNL     1       6.635  -0.963  -1.909  0.00  0.00    -0.042 C 
BRANCH  13  14
ATOM     14  C   UNL     1       7.950  -0.489  -1.346  0.00  0.00    -0.064 A 
ATOM     15  C   UNL     1       9.133  -1.058  -1.778  0.00  0.00    +0.002 A 
ATOM     16  C   UNL     1      10.339  -0.622  -1.262  0.00  0.00    +0.000 A 
ATOM     17  C   UNL     1      10.362   0.383  -0.313  0.00  0.00    +0.000 A 
ATOM     18  C   UNL     1       9.179   0.953   0.119  0.00  0.00    +0.000 A 
ATOM     19  C   UNL     1       7.973   0.520  -0.400  0.00  0.00    +0.002 A 
ENDBRANCH  13  14
ENDBRANCH   1  13
BRANCH   1  20
ATOM     20  C   UNL     1       7.195  -0.212  -4.117  0.00  0.00    -0.003 C 
BRANCH  20  21
ATOM     21  C   UNL     1       6.879   0.809  -5.180  0.00  0.00    +0.094 A 
ATOM     22  N   UNL     1       7.566   0.787  -6.351  0.00  0.00    -0.312 N 
ATOM     23  H   UNL     1       8.250   0.113  -6.487  0.00  0.00    +0.170 HD
ATOM     24  C   UNL     1       7.316   1.680  -7.326  0.00  0.00    +0.260 A 
ATOM     25  O   UNL     1       7.941   1.647  -8.372  0.00  0.00    -0.267 OA
ATOM     26  C   UNL     1       6.303   2.671  -7.114  0.00  0.00    +0.075 A 
ATOM     27  C   UNL     1       5.867   3.732  -8.027  0.00  0.00    -0.023 A 
ATOM     28  C   UNL     1       4.888   4.548  -7.586  0.00  0.00    -0.004 A 
ATOM     29  S   UNL     1       4.488   3.955  -5.962  0.00  0.00    -0.073 S 
ATOM     30  C   UNL     1       5.647   2.615  -5.875  0.00  0.00    +0.116 A 
ATOM     31  N   UNL     1       5.946   1.696  -4.960  0.00  0.00    -0.229 NA
ATOM     32  C   UNL     1       4.273   5.713  -8.297  0.00  0.00    +0.043 C 
ATOM     33  C   UNL     1       3.883   5.289  -9.719  0.00  0.00    +0.005 C 
ATOM     34  C   UNL     1       5.072   5.545 -10.640  0.00  0.00    +0.001 C 
ATOM     35  C   UNL     1       6.378   5.329  -9.879  0.00  0.00    +0.005 C 
ATOM     36  C   UNL     1       6.493   3.884  -9.411  0.00  0.00    +0.037 C 
ENDBRANCH  20  21
ENDBRANCH   1  20
TORSDOF 11
