REMARK  Name = ZINC34923405
REMARK  11 active torsions:
REMARK  status: ('A' for Active; 'I' for Inactive)
REMARK    1  A    between atoms: C_1  and  C_2
REMARK    2  A    between atoms: C_5  and  C_8
REMARK    3  A    between atoms: C_10  and  C_30
REMARK    4  A    between atoms: C_11  and  C_29
REMARK    5  A    between atoms: C_15  and  C_18
REMARK    6  A    between atoms: C_19  and  N_21
REMARK    7  A    between atoms: N_25  and  C_28
REMARK    8  A    between atoms: C_30  and  O_32
REMARK    9  A    between atoms: O_32  and  C_33
REMARK   10  A    between atoms: C_33  and  C_34
REMARK   11  A    between atoms: C_33  and  C_35
REMARK                            x       y       z     vdW  Elec       q    Type
REMARK                         _______ _______ _______ _____ _____    ______ ____
ROOT
ATOM      1  C   UNL     1       0.197  -4.123  -0.255  0.00  0.00    +0.150 C 
ATOM      2  C   UNL     1       1.407  -4.998  -0.014  0.00  0.00    +0.082 C 
ATOM      3  C   UNL     1       1.312  -5.975   0.959  0.00  0.00    +0.053 C 
ATOM      4  N   UNL     1       0.194  -6.128   1.649  0.00  0.00    -0.230 NA
ATOM      5  C   UNL     1      -0.893  -5.401   1.489  0.00  0.00    +0.166 C 
ATOM      6  N   UNL     1      -1.005  -4.386   0.582  0.00  0.00    -0.267 N 
ATOM      7  C   UNL     1      -2.212  -3.717   0.536  0.00  0.00    +0.048 C 
ATOM      8  C   UNL     1      -3.182  -4.116   1.388  0.00  0.00    +0.072 C 
ATOM      9  S   UNL     1      -2.384  -5.446   2.260  0.00  0.00    -0.060 S 
ATOM     10  C   UNL     1       2.491  -6.872   1.235  0.00  0.00    +0.066 C 
ENDROOT
BRANCH   1  15
ATOM     11  C   UNL     1       1.777   1.372   0.584  0.00  0.00    +0.044 C 
ATOM     12  C   UNL     1       1.365  -0.061   0.365  0.00  0.00    -0.050 A 
ATOM     13  C   UNL     1       1.267  -0.564  -0.919  0.00  0.00    +0.004 A 
ATOM     14  C   UNL     1       0.889  -1.878  -1.119  0.00  0.00    +0.006 A 
ATOM     15  C   UNL     1       0.610  -2.690  -0.036  0.00  0.00    -0.022 A 
ATOM     16  C   UNL     1       0.709  -2.188   1.248  0.00  0.00    +0.006 A 
ATOM     17  C   UNL     1       1.091  -0.874   1.449  0.00  0.00    +0.004 A 
ENDBRANCH   1  15
BRANCH   7  18
ATOM     18  C   UNL     1      -2.433  -2.610  -0.406  0.00  0.00    +0.091 C 
ATOM     19  C   UNL     1      -3.556  -1.870  -0.323  0.00  0.00    +0.241 C 
ATOM     20  O   UNL     1      -4.410  -2.049   0.714  0.00  0.00    -0.271 OA
BRANCH  19  21
ATOM     21  N   UNL     1      -3.837  -0.927  -1.298  0.00  0.00    -0.300 N 
ATOM     22  C   UNL     1      -3.344  -1.155  -2.671  0.00  0.00    +0.106 C 
ATOM     23  C   UNL     1      -4.412  -0.772  -3.712  0.00  0.00    +0.000 C 
ATOM     24  C   UNL     1      -5.773  -1.213  -3.223  0.00  0.00    -0.078 C 
ATOM     25  N   UNL     1      -6.413  -0.106  -2.514  0.00  0.00    +0.379 N 
ATOM     26  C   UNL     1      -6.111  -0.029  -1.136  0.00  0.00    -0.060 C 
ATOM     27  C   UNL     1      -4.608   0.244  -0.934  0.00  0.00    +0.089 C 
ATOM     28  C   UNL     1      -7.868  -0.239  -2.664  0.00  0.00    -0.096 C 
ATOM     29  H   UNL     1      -6.129   0.758  -2.951  0.00  0.00    -0.082 HD
ENDBRANCH  19  21
ENDBRANCH   7  18
BRANCH   2  30
ATOM     30  C   UNL     1       2.583  -4.825  -0.754  0.00  0.00    +0.339 C 
ATOM     31  O   UNL     1       3.583  -5.459  -0.466  0.00  0.00    -0.245 OA
BRANCH  30  32
ATOM     32  O   UNL     1       2.610  -3.954  -1.786  0.00  0.00    -0.459 OA
BRANCH  32  33
ATOM     33  C   UNL     1       3.843  -3.827  -2.497  0.00  0.00    +0.171 C 
ATOM     34  C   UNL     1       3.874  -4.834  -3.648  0.00  0.00    +0.052 C 
ATOM     35  C   UNL     1       3.966  -2.409  -3.056  0.00  0.00    +0.052 C 
ENDBRANCH  32  33
ENDBRANCH  30  32
ENDBRANCH   2  30
TORSDOF 6
