REMARK  Name = ZINC17211072
REMARK  12 active torsions:
REMARK  status: ('A' for Active; 'I' for Inactive)
REMARK    1  A    between atoms: C_1  and  C_2
REMARK    2  A    between atoms: C_7  and  C_40
REMARK    3  A    between atoms: C_12  and  C_39
REMARK    4  A    between atoms: C_17  and  C_36
REMARK    5  A    between atoms: C_22  and  C_35
REMARK    6  A    between atoms: C_27  and  C_32
REMARK    7  A    between atoms: C_32  and  C_33
REMARK    8  A    between atoms: C_32  and  C_34
REMARK    9  A    between atoms: C_36  and  C_37
REMARK   10  A    between atoms: C_36  and  C_38
REMARK   11  A    between atoms: C_40  and  C_41
REMARK   12  A    between atoms: C_40  and  C_42
REMARK                            x       y       z     vdW  Elec       q    Type
REMARK                         _______ _______ _______ _____ _____    ______ ____
ROOT
ATOM      1  C   UNL     1       1.241   3.168   0.701  0.00  0.00    +0.062 C 
ATOM      2  C   UNL     1       1.417   1.889  -0.118  0.00  0.00    +0.259 C 
ATOM      3  C   UNL     1       0.122   1.124  -0.189  0.00  0.00    +0.254 C 
ATOM      4  O   UNL     1       0.105  -0.071   0.025  0.00  0.00    -0.272 OA
ATOM      5  N   UNL     1      -1.030   1.774  -0.517  0.00  0.00    -0.299 N 
ATOM      6  C   UNL     1      -2.239   0.937  -0.660  0.00  0.00    +0.185 C 
ATOM      7  C   UNL     1      -2.644   0.413   0.698  0.00  0.00    +0.329 C 
ATOM      8  O   UNL     1      -1.938   0.638   1.651  0.00  0.00    -0.249 OA
ATOM      9  O   UNL     1      -3.776  -0.289   0.816  0.00  0.00    -0.451 OA
ATOM     10  C   UNL     1      -4.168  -0.830   2.098  0.00  0.00    +0.259 C 
ATOM     11  C   UNL     1      -3.068  -1.691   2.659  0.00  0.00    +0.254 C 
ATOM     12  O   UNL     1      -2.116  -1.995   1.969  0.00  0.00    -0.272 OA
ATOM     13  N   UNL     1      -3.154  -2.146   3.941  0.00  0.00    -0.299 N 
ATOM     14  C   UNL     1      -2.080  -3.054   4.390  0.00  0.00    +0.185 C 
ATOM     15  C   UNL     1      -0.788  -2.280   4.500  0.00  0.00    +0.329 C 
ATOM     16  O   UNL     1      -0.759  -1.128   4.139  0.00  0.00    -0.249 OA
ATOM     17  O   UNL     1       0.297  -2.886   4.994  0.00  0.00    -0.451 OA
ATOM     18  C   UNL     1       1.555  -2.177   5.069  0.00  0.00    +0.259 C 
ATOM     19  C   UNL     1       1.937  -1.646   3.714  0.00  0.00    +0.254 C 
ATOM     20  O   UNL     1       1.321  -1.991   2.726  0.00  0.00    -0.272 OA
ATOM     21  N   UNL     1       2.992  -0.792   3.595  0.00  0.00    -0.299 N 
ATOM     22  C   UNL     1       3.360  -0.389   2.222  0.00  0.00    +0.185 C 
ATOM     23  C   UNL     1       2.277   0.499   1.658  0.00  0.00    +0.329 C 
ATOM     24  O   UNL     1       1.270   0.681   2.299  0.00  0.00    -0.249 OA
ATOM     25  O   UNL     1       2.455   1.064   0.459  0.00  0.00    -0.451 OA
ATOM     26  C   UNL     1       1.461  -1.039   6.085  0.00  0.00    +0.062 C 
ATOM     27  C   UNL     1      -4.511   0.302   3.066  0.00  0.00    +0.062 C 
ATOM     28  H   UNL     1      -1.065   2.733  -0.662  0.00  0.00    +0.150 HD
ATOM     29  H   UNL     1      -3.884  -1.901   4.533  0.00  0.00    +0.150 HD
ATOM     30  H   UNL     1       3.488  -0.467   4.363  0.00  0.00    +0.150 HD
ENDROOT
BRANCH  22  31
ATOM     31  C   UNL     1       4.683   0.379   2.252  0.00  0.00    +0.014 C 
ATOM     32  C   UNL     1       4.569   1.554   3.225  0.00  0.00    +0.009 C 
ATOM     33  C   UNL     1       5.805  -0.555   2.709  0.00  0.00    +0.009 C 
ENDBRANCH  22  31
BRANCH  14  34
ATOM     34  C   UNL     1      -2.441  -3.636   5.759  0.00  0.00    +0.014 C 
ATOM     35  C   UNL     1      -2.722  -2.497   6.740  0.00  0.00    +0.009 C 
ATOM     36  C   UNL     1      -3.687  -4.515   5.627  0.00  0.00    +0.009 C 
ENDBRANCH  14  34
BRANCH   6  37
ATOM     37  C   UNL     1      -3.378   1.778  -1.240  0.00  0.00    +0.014 C 
ATOM     38  C   UNL     1      -3.629   2.988  -0.339  0.00  0.00    +0.009 C 
ATOM     39  C   UNL     1      -2.995   2.257  -2.642  0.00  0.00    +0.009 C 
ENDBRANCH   6  37
TORSDOF 3
