REMARK  Name = ZINC08845265
REMARK  9 active torsions:
REMARK  status: ('A' for Active; 'I' for Inactive)
REMARK    1  A    between atoms: C_1  and  C_2
REMARK    2  A    between atoms: C_4  and  O_36
REMARK    3  A    between atoms: C_5  and  C_9
REMARK    4  A    between atoms: N_17  and  C_27
REMARK    5  A    between atoms: C_18  and  C_20
REMARK    6  A    between atoms: C_24  and  O_26
REMARK    7  A    between atoms: C_27  and  C_28
REMARK    8  A    between atoms: C_31  and  O_34
REMARK    9  A    between atoms: O_34  and  C_35
REMARK                            x       y       z     vdW  Elec       q    Type
REMARK                         _______ _______ _______ _____ _____    ______ ____
ROOT
ATOM      1  C   UNL     1      -0.070  -4.531  -0.155  0.00  0.00    +0.075 A 
ATOM      2  C   UNL     1       1.065  -5.209  -0.465  0.00  0.00    +0.035 A 
ATOM      3  C   UNL     1       0.756  -6.579  -0.307  0.00  0.00    +0.153 A 
ATOM      4  N   UNL     1      -0.504  -6.646   0.075  0.00  0.00    -0.168 NA
ATOM      5  N   UNL     1      -1.007  -5.468   0.177  0.00  0.00    -0.276 N 
ATOM      6  H   UNL     1      -1.918  -5.272   0.448  0.00  0.00    +0.189 HD
ATOM      7  C   UNL     1       1.964  -7.356  -0.635  0.00  0.00    +0.268 C 
ATOM      8  O   UNL     1       2.039  -8.569  -0.601  0.00  0.00    -0.268 OA
ATOM      9  N   UNL     1       2.972  -6.536  -0.977  0.00  0.00    -0.281 N 
ATOM     10  C   UNL     1       2.504  -5.147  -0.901  0.00  0.00    +0.142 C 
ENDROOT
BRANCH   1  15
ATOM     11  C   UNL     1      -0.787   1.183  -0.211  0.00  0.00    +0.045 C 
ATOM     12  C   UNL     1      -0.598  -0.311  -0.194  0.00  0.00    -0.029 A 
ATOM     13  C   UNL     1       0.278  -0.884   0.710  0.00  0.00    +0.050 A 
ATOM     14  C   UNL     1       0.456  -2.257   0.729  0.00  0.00    +0.126 A 
ATOM     15  C   UNL     1      -0.254  -3.063  -0.168  0.00  0.00    +0.043 A 
ATOM     16  C   UNL     1      -1.135  -2.476  -1.075  0.00  0.00    +0.034 A 
ATOM     17  C   UNL     1      -1.307  -1.105  -1.079  0.00  0.00    +0.045 A 
ATOM     18 CL   UNL     1      -2.410  -0.375  -2.204  0.00  0.00    -0.083 Cl
BRANCH  14  19
ATOM     19  O   UNL     1       1.317  -2.820   1.617  0.00  0.00    -0.506 OA
ATOM     20  H   UNL     1       0.931  -2.990   2.487  0.00  0.00    +0.292 HD
ENDBRANCH  14  19
ENDBRANCH   1  15
BRANCH  10  21
ATOM     21  C   UNL     1       2.607  -4.491  -2.254  0.00  0.00    -0.019 A 
ATOM     22  C   UNL     1       2.095  -5.127  -3.370  0.00  0.00    +0.006 A 
ATOM     23  C   UNL     1       2.187  -4.528  -4.613  0.00  0.00    +0.004 A 
ATOM     24  C   UNL     1       2.792  -3.293  -4.742  0.00  0.00    +0.045 A 
ATOM     25  C   UNL     1       3.307  -2.653  -3.624  0.00  0.00    +0.117 A 
ATOM     26  C   UNL     1       3.207  -3.254  -2.377  0.00  0.00    +0.051 A 
BRANCH  25  27
ATOM     27  O   UNL     1       3.902  -1.438  -3.748  0.00  0.00    -0.507 OA
ATOM     28  H   UNL     1       3.295  -0.691  -3.652  0.00  0.00    +0.292 HD
ENDBRANCH  25  27
ENDBRANCH  10  21
BRANCH   9  29
ATOM     29  C   UNL     1       4.321  -6.959  -1.363  0.00  0.00    +0.144 C 
BRANCH  29  30
ATOM     30  C   UNL     1       4.374  -7.167  -2.854  0.00  0.00    -0.030 A 
ATOM     31  C   UNL     1       4.076  -8.407  -3.389  0.00  0.00    +0.009 A 
ATOM     32  C   UNL     1       4.125  -8.600  -4.756  0.00  0.00    +0.046 A 
ATOM     33  C   UNL     1       4.473  -7.549  -5.592  0.00  0.00    +0.120 A 
ATOM     34  C   UNL     1       4.771  -6.306  -5.053  0.00  0.00    +0.046 A 
ATOM     35  C   UNL     1       4.716  -6.117  -3.686  0.00  0.00    +0.009 A 
BRANCH  33  36
ATOM     36  O   UNL     1       4.522  -7.737  -6.937  0.00  0.00    -0.495 OA
ATOM     37  C   UNL     1       4.888  -6.610  -7.737  0.00  0.00    +0.277 C 
ENDBRANCH  33  36
ENDBRANCH  29  30
ENDBRANCH   9  29
TORSDOF 7
