REMARK  Name = ZINC16590081
REMARK  9 active torsions:
REMARK  status: ('A' for Active; 'I' for Inactive)
REMARK    1  A    between atoms: C_1  and  C_2
REMARK    2  A    between atoms: C_2  and  C_3
REMARK    3  A    between atoms: C_3  and  N_55
REMARK    4  A    between atoms: C_4  and  C_5
REMARK    5  A    between atoms: C_4  and  N_55
REMARK    6  A    between atoms: C_11  and  C_16
REMARK    7  A    between atoms: C_22  and  C_23
REMARK    8  A    between atoms: C_22  and  N_55
REMARK    9  A    between atoms: N_25  and  C_26
REMARK                            x       y       z     vdW  Elec       q    Type
REMARK                         _______ _______ _______ _____ _____    ______ ____
ROOT
ATOM      1  N   UNL     1      -2.435   1.317  -0.060  0.00  0.00    +0.390 N 
ATOM      2  H   UNL     1      -2.330   0.630  -0.816  0.00  0.00    -0.081 HD
ENDROOT
BRANCH   1   3
ATOM      3  C   UNL     1      -2.591   0.600   1.222  0.00  0.00    -0.078 C 
BRANCH   3   5
ATOM      4  C   UNL     1      -2.857   0.834   3.696  0.00  0.00    +0.002 C 
ATOM      5  C   UNL     1      -2.825   1.589   2.366  0.00  0.00    -0.022 C 
ENDBRANCH   3   5
ENDBRANCH   1   3
BRANCH   1   6
ATOM      6  C   UNL     1      -3.631   2.144  -0.326  0.00  0.00    -0.003 C 
BRANCH   6   7
ATOM      7  C   UNL     1      -4.764   1.239  -0.734  0.00  0.00    +0.094 A 
ATOM      8  N   UNL     1      -5.944   1.783  -1.127  0.00  0.00    -0.312 N 
ATOM      9  H   UNL     1      -6.042   2.748  -1.140  0.00  0.00    +0.170 HD
ATOM     10  C   UNL     1      -6.979   1.009  -1.504  0.00  0.00    +0.260 A 
ATOM     11  O   UNL     1      -8.031   1.513  -1.860  0.00  0.00    -0.267 OA
ATOM     12  C   UNL     1      -6.828  -0.414  -1.477  0.00  0.00    +0.080 A 
ATOM     13  C   UNL     1      -7.791  -1.451  -1.829  0.00  0.00    +0.004 A 
ATOM     14  C   UNL     1      -7.418  -2.749  -1.722  0.00  0.00    +0.056 A 
ATOM     15  S   UNL     1      -5.737  -2.649  -1.138  0.00  0.00    -0.076 S 
ATOM     16  C   UNL     1      -5.576  -0.884  -1.052  0.00  0.00    +0.116 A 
ATOM     17  N   UNL     1      -4.596  -0.056  -0.698  0.00  0.00    -0.229 NA
BRANCH  13  18
ATOM     18  C   UNL     1      -9.152  -1.091  -2.294  0.00  0.00    -0.017 A 
ATOM     19  C   UNL     1      -9.926  -0.190  -1.564  0.00  0.00    +0.008 A 
ATOM     20  C   UNL     1     -11.190   0.145  -2.005  0.00  0.00    +0.001 A 
ATOM     21  C   UNL     1     -11.694  -0.421  -3.162  0.00  0.00    +0.000 A 
ATOM     22  C   UNL     1     -10.933  -1.320  -3.887  0.00  0.00    +0.001 A 
ATOM     23  C   UNL     1      -9.666  -1.658  -3.459  0.00  0.00    +0.008 A 
ENDBRANCH  13  18
ENDBRANCH   6   7
ENDBRANCH   1   6
BRANCH   1  24
ATOM     24  C   UNL     1      -1.230   2.172  -0.018  0.00  0.00    +0.019 C 
BRANCH  24  25
ATOM     25  C   UNL     1      -0.009   1.289   0.032  0.00  0.00    +0.201 C 
ATOM     26  O   UNL     1      -0.134   0.082   0.049  0.00  0.00    -0.278 OA
ATOM     27  N   UNL     1       1.221   1.840   0.054  0.00  0.00    -0.285 N 
ATOM     28  H   UNL     1       1.323   2.801  -0.021  0.00  0.00    +0.155 HD
BRANCH  27  29
ATOM     29  C   UNL     1       2.352   1.023   0.183  0.00  0.00    +0.072 A 
ATOM     30  C   UNL     1       2.368  -0.239  -0.395  0.00  0.00    +0.029 A 
ATOM     31  C   UNL     1       3.485  -1.042  -0.270  0.00  0.00    +0.043 A 
ATOM     32  C   UNL     1       4.587  -0.595   0.438  0.00  0.00    +0.161 A 
ATOM     33  C   UNL     1       4.574   0.663   1.021  0.00  0.00    +0.195 A 
ATOM     34  C   UNL     1       3.458   1.473   0.895  0.00  0.00    +0.182 A 
ATOM     35  F   UNL     1       3.443   2.699   1.462  0.00  0.00    -0.200 F 
ATOM     36  F   UNL     1       5.649   1.098   1.713  0.00  0.00    -0.199 F 
ATOM     37  F   UNL     1       5.676  -1.384   0.562  0.00  0.00    -0.202 F 
ENDBRANCH  27  29
ENDBRANCH  24  25
ENDBRANCH   1  24
TORSDOF 8
