REMARK  Name = ZINC23065672
REMARK  12 active torsions:
REMARK  status: ('A' for Active; 'I' for Inactive)
REMARK    1  A    between atoms: C_1  and  O_2
REMARK    2  A    between atoms: O_2  and  C_3
REMARK    3  A    between atoms: C_7  and  O_9
REMARK    4  A    between atoms: O_9  and  C_10
REMARK    5  A    between atoms: C_10  and  C_11
REMARK    6  A    between atoms: C_14  and  S_17
REMARK    7  A    between atoms: N_15  and  N_16
REMARK    8  A    between atoms: S_17  and  C_18
REMARK    9  A    between atoms: C_18  and  C_19
REMARK   10  A    between atoms: N_21  and  C_22
REMARK   11  A    between atoms: C_22  and  C_23
REMARK   12  A    between atoms: C_26  and  C_28
REMARK                            x       y       z     vdW  Elec       q    Type
REMARK                         _______ _______ _______ _____ _____    ______ ____
ROOT
ATOM      1  S   UNL     1       3.822   2.115  -0.023  0.00  0.00    -0.075 S 
ENDROOT
BRANCH   1   5
ATOM      2  C   UNL     1       7.211   0.185  -0.066  0.00  0.00    +0.189 A 
ATOM      3  N   UNL     1       6.337  -0.781  -0.063  0.00  0.00    -0.128 NA
ATOM      4  N   UNL     1       5.146  -0.299  -0.049  0.00  0.00    -0.121 NA
ATOM      5  C   UNL     1       5.197   1.013  -0.042  0.00  0.00    +0.209 A 
ATOM      6  N   UNL     1       6.517   1.363  -0.058  0.00  0.00    -0.225 N 
BRANCH   6   7
ATOM      7  N   UNL     1       7.035   2.626  -0.063  0.00  0.00    -0.295 N 
ATOM      8  H   UNL     1       6.363   3.497  -0.056  0.00  0.00    +0.163 HD
ATOM      9  H   UNL     1       8.125   2.773  -0.074  0.00  0.00    +0.163 HD
ENDBRANCH   6   7
BRANCH   2  10
ATOM     10  C   UNL     1       8.711   0.032  -0.080  0.00  0.00    +0.306 C 
BRANCH  10  11
ATOM     11  O   UNL     1       9.172  -0.009  -1.432  0.00  0.00    -0.484 OA
BRANCH  11  16
ATOM     12  C   UNL     1      12.392  -0.328  -3.101  0.00  0.00    +0.124 A 
ATOM     13  C   UNL     1      13.240  -0.419  -2.006  0.00  0.00    +0.046 A 
ATOM     14  C   UNL     1      12.724  -0.372  -0.726  0.00  0.00    +0.007 A 
ATOM     15  C   UNL     1      11.363  -0.230  -0.532  0.00  0.00    +0.046 A 
ATOM     16  C   UNL     1      10.511  -0.144  -1.623  0.00  0.00    +0.125 A 
ATOM     17  C   UNL     1      11.027  -0.191  -2.909  0.00  0.00    +0.091 A 
BRANCH  12  19
ATOM     18  C   UNL     1      14.318  -0.517  -4.483  0.00  0.00    +0.277 C 
ATOM     19  O   UNL     1      12.901  -0.374  -4.361  0.00  0.00    -0.495 OA
ENDBRANCH  12  19
ENDBRANCH  11  16
ENDBRANCH  10  11
ENDBRANCH   2  10
ENDBRANCH   1   5
BRANCH   1  20
ATOM     20  C   UNL     1       2.462   0.920  -0.017  0.00  0.00    +0.173 C 
BRANCH  20  21
ATOM     21  C   UNL     1       1.147   1.655   0.000  0.00  0.00    +0.224 C 
ATOM     22  O   UNL     1       1.130   2.868   0.007  0.00  0.00    -0.275 OA
ATOM     23  N   UNL     1      -0.011   0.966   0.007  0.00  0.00    -0.308 N 
ATOM     24  H   UNL     1       0.004  -0.134   0.006  0.00  0.00    +0.149 HD
BRANCH  23  25
ATOM     25  C   UNL     1      -1.290   1.681   0.017  0.00  0.00    +0.178 C 
BRANCH  25  26
ATOM     26  C   UNL     1      -2.422   0.686   0.017  0.00  0.00    +0.123 A 
ATOM     27  C   UNL     1      -3.006   0.162   1.112  0.00  0.00    +0.047 A 
ATOM     28  C   UNL     1      -4.012  -0.717   0.661  0.00  0.00    +0.050 A 
ATOM     29  C   UNL     1      -3.985  -0.680  -0.697  0.00  0.00    +0.135 A 
ATOM     30  O   UNL     1      -3.019   0.180  -1.074  0.00  0.00    -0.458 OA
BRANCH  29  31
ATOM     31  C   UNL     1      -4.866  -1.446  -1.603  0.00  0.00    +0.017 A 
ATOM     32  C   UNL     1      -5.832  -2.307  -1.080  0.00  0.00    +0.013 A 
ATOM     33  C   UNL     1      -6.654  -3.015  -1.931  0.00  0.00    +0.021 A 
ATOM     34  C   UNL     1      -6.517  -2.881  -3.302  0.00  0.00    +0.041 A 
ATOM     35  C   UNL     1      -5.558  -2.032  -3.828  0.00  0.00    +0.021 A 
ATOM     36  C   UNL     1      -4.732  -1.315  -2.987  0.00  0.00    +0.013 A 
ATOM     37 CL   UNL     1      -7.551  -3.781  -4.367  0.00  0.00    -0.084 Cl
ENDBRANCH  29  31
ENDBRANCH  25  26
ENDBRANCH  23  25
ENDBRANCH  20  21
ENDBRANCH   1  20
TORSDOF 11
