REMARK  Name = ZINC39608296
REMARK  12 active torsions:
REMARK  status: ('A' for Active; 'I' for Inactive)
REMARK    1  A    between atoms: C_1  and  C_2
REMARK    2  A    between atoms: C_2  and  C_4
REMARK    3  A    between atoms: C_2  and  N_7
REMARK    4  A    between atoms: C_4  and  C_5
REMARK    5  A    between atoms: C_4  and  C_6
REMARK    6  A    between atoms: C_8  and  C_10
REMARK    7  A    between atoms: C_21  and  C_23
REMARK    8  A    between atoms: C_23  and  C_25
REMARK    9  A    between atoms: C_23  and  O_28
REMARK   10  A    between atoms: C_25  and  C_26
REMARK   11  A    between atoms: C_25  and  C_27
REMARK   12  A    between atoms: O_28  and  C_29
REMARK                            x       y       z     vdW  Elec       q    Type
REMARK                         _______ _______ _______ _____ _____    ______ ____
ROOT
ATOM      1  C   UNL     1       0.650  -1.136  -3.690  0.00  0.00    +0.100 C 
ATOM      2  C   UNL     1       1.698  -0.087  -4.125  0.00  0.00    +0.121 C 
ATOM      3  N   UNL     1       1.634  -0.084  -5.605  0.00  0.00    -0.297 N 
ATOM      4  C   UNL     1       0.189  -0.215  -5.912  0.00  0.00    +0.115 C 
ATOM      5  C   UNL     1      -0.339  -1.217  -4.865  0.00  0.00    -0.004 C 
ATOM      6  C   UNL     1      -1.737  -0.813  -4.408  0.00  0.00    -0.010 C 
ATOM      7  C   UNL     1      -2.714  -0.957  -5.578  0.00  0.00    -0.082 C 
ATOM      8  N   UNL     1      -2.714  -2.347  -6.050  0.00  0.00    +0.379 N 
ATOM      9  C   UNL     1      -1.389  -2.697  -6.575  0.00  0.00    -0.082 C 
ATOM     10  C   UNL     1      -0.356  -2.627  -5.446  0.00  0.00    -0.010 C 
ATOM     11  C   UNL     1       2.657   0.015  -6.476  0.00  0.00    +0.257 C 
ATOM     12  O   UNL     1       2.441   0.002  -7.670  0.00  0.00    -0.272 OA
ATOM     13  H   UNL     1      -2.944  -2.961  -5.283  0.00  0.00    -0.086 HD
ATOM     14  H   UNL     1      -3.402  -2.453  -6.780  0.00  0.00    -0.086 HD
ENDROOT
BRANCH   1  16
ATOM     15  N   UNL     1      -0.673  -1.587  -1.650  0.00  0.00    -0.312 N 
ATOM     16  C   UNL     1      -0.057  -0.684  -2.439  0.00  0.00    +0.218 C 
ATOM     17  O   UNL     1      -0.072   0.491  -2.142  0.00  0.00    -0.275 OA
ATOM     18  H   UNL     1      -0.661  -2.527  -1.888  0.00  0.00    +0.149 HD
BRANCH  15  20
ATOM     19  C   UNL     1      -0.354  -1.050   0.715  0.00  0.00    +0.028 C 
ATOM     20  C   UNL     1      -1.361  -1.148  -0.433  0.00  0.00    +0.072 C 
BRANCH  20  21
ATOM     21  C   UNL     1      -2.451  -2.158  -0.071  0.00  0.00    +0.003 C 
ATOM     22  C   UNL     1      -1.806  -3.497   0.290  0.00  0.00    +0.009 C 
ATOM     23  C   UNL     1      -3.251  -1.638   1.126  0.00  0.00    +0.009 C 
ENDBRANCH  20  21
ENDBRANCH  15  20
ENDBRANCH   1  16
BRANCH  11  24
ATOM     24  C   UNL     1       4.070   0.140  -5.968  0.00  0.00    +0.261 C 
BRANCH  24  25
ATOM     25  C   UNL     1       4.225   1.462  -5.213  0.00  0.00    +0.033 C 
ATOM     26  C   UNL     1       5.660   1.589  -4.697  0.00  0.00    +0.011 C 
ATOM     27  C   UNL     1       3.918   2.627  -6.157  0.00  0.00    +0.011 C 
ENDBRANCH  24  25
BRANCH  24  28
ATOM     28  O   UNL     1       4.978   0.112  -7.071  0.00  0.00    -0.479 OA
BRANCH  28  29
ATOM     29  C   UNL     1       6.191  -0.463  -6.857  0.00  0.00    +0.122 A 
ATOM     30  C   UNL     1       6.471  -1.062  -5.638  0.00  0.00    +0.045 A 
ATOM     31  C   UNL     1       7.705  -1.646  -5.423  0.00  0.00    +0.004 A 
ATOM     32  C   UNL     1       8.660  -1.632  -6.422  0.00  0.00    +0.000 A 
ATOM     33  C   UNL     1       8.384  -1.034  -7.638  0.00  0.00    +0.004 A 
ATOM     34  C   UNL     1       7.150  -0.455  -7.860  0.00  0.00    +0.045 A 
ENDBRANCH  28  29
ENDBRANCH  24  28
ENDBRANCH  11  24
TORSDOF 7
