REMARK  Name = ZINC13942059
REMARK  7 active torsions:
REMARK  status: ('A' for Active; 'I' for Inactive)
REMARK    1  A    between atoms: C_1  and  C_2
REMARK    2  A    between atoms: C_8  and  C_10
REMARK    3  A    between atoms: N_12  and  CA_13
REMARK    4  A    between atoms: CA_13  and  CB_15
REMARK    5  A    between atoms: CA_13  and  C_18
REMARK    6  A    between atoms: CB_15  and  CG1_16
REMARK    7  A    between atoms: CB_15  and  CG2_17
REMARK                            x       y       z     vdW  Elec       q    Type
REMARK                         _______ _______ _______ _____ _____    ______ ____
ROOT
ATOM      1  C   UNK A   0      -2.864   0.445   1.181  0.00  0.00    +0.217 C 
ATOM      2  O   UNK A   0      -2.343   0.771   2.227  0.00  0.00    -0.275 OA
ATOM      3  N   VAL A   1      -2.430   0.973   0.019  0.00  0.00    -0.302 N 
ATOM      4  H   VAL A   1      -2.847   0.712  -0.817  0.00  0.00    +0.150 HD
ENDROOT
BRANCH   1  11
ATOM      5  C   UNK A   0      -4.682   0.231   3.453  0.00  0.00    +0.008 C 
ATOM      6  C   UNK A   0      -4.289  -0.989   2.617  0.00  0.00    -0.002 C 
ATOM      7  C   UNK A   0      -5.438  -1.998   2.617  0.00  0.00    +0.004 C 
ATOM      8  C   UNK A   0      -5.045  -3.218   1.781  0.00  0.00    +0.000 C 
ATOM      9  C   UNK A   0      -4.752  -2.779   0.345  0.00  0.00    +0.001 C 
ATOM     10  C   UNK A   0      -3.603  -1.769   0.345  0.00  0.00    +0.013 C 
ATOM     11  C   UNK A   0      -3.996  -0.550   1.181  0.00  0.00    +0.078 C 
ENDBRANCH   1  11
BRANCH   3  12
ATOM     12  CA  VAL A   1      -1.329   1.940   0.019  0.00  0.00    +0.189 C 
BRANCH  12  13
ATOM     13  CB  VAL A   1      -1.428   2.825  -1.225  0.00  0.00    +0.014 C 
ATOM     14  CG1 VAL A   1      -2.764   3.572  -1.215  0.00  0.00    +0.009 C 
ATOM     15  CG2 VAL A   1      -0.279   3.835  -1.225  0.00  0.00    +0.009 C 
ENDBRANCH  12  13
BRANCH  12  16
ATOM     16  C   VAL A   1      -0.014   1.204   0.009  0.00  0.00    +0.376 C 
ATOM     17  O   VAL A   1       0.002  -0.004   0.002  0.00  0.00    -0.244 OA
ATOM     18  OXT VAL A   1       1.139   1.891   0.001  0.00  0.00    -0.244 OA
ENDBRANCH  12  16
ENDBRANCH   3  12
TORSDOF 4
