REMARK  Name = ZINC03230004
REMARK  7 active torsions:
REMARK  status: ('A' for Active; 'I' for Inactive)
REMARK    1  A    between atoms: C_1  and  C_2
REMARK    2  A    between atoms: C_2  and  O_3
REMARK    3  A    between atoms: O_3  and  C_4
REMARK    4  A    between atoms: C_6  and  C_11
REMARK    5  A    between atoms: C_9  and  O_10
REMARK    6  A    between atoms: C_23  and  N_27
REMARK    7  A    between atoms: C_24  and  C_25
REMARK                            x       y       z     vdW  Elec       q    Type
REMARK                         _______ _______ _______ _____ _____    ______ ____
ROOT
ATOM      1  C   UNL     1       0.002  -0.004   0.002  0.00  0.00    +0.105 C 
ATOM      2  C   UNL     1       0.701  -0.494  -1.226  0.00  0.00    +0.046 A 
ATOM      3  C   UNL     1       1.938  -1.049  -1.266  0.00  0.00    +0.149 A 
ATOM      4  C   UNL     1       2.432  -1.460  -2.571  0.00  0.00    +0.032 A 
ATOM      5  C   UNL     1       3.686  -2.059  -2.849  0.00  0.00    +0.013 A 
ATOM      6  C   UNL     1       3.961  -2.372  -4.152  0.00  0.00    +0.001 A 
ATOM      7  C   UNL     1       3.081  -2.133  -5.195  0.00  0.00    +0.001 A 
ATOM      8  C   UNL     1       1.842  -1.549  -4.968  0.00  0.00    +0.016 A 
ATOM      9  C   UNL     1       1.551  -1.228  -3.660  0.00  0.00    +0.023 A 
ATOM     10  S   UNL     1       0.137  -0.489  -2.906  0.00  0.00    -0.088 S 
ATOM     11  O   UNL     1       2.649  -1.190  -0.092  0.00  0.00    -0.440 OA
ATOM     12  C   UNL     1       1.998  -1.054   1.072  0.00  0.00    +0.199 C 
ATOM     13  C   UNL     1       0.765  -0.512   1.204  0.00  0.00    +0.098 C 
ENDROOT
BRANCH   1  16
ATOM     14  C   UNL     1      -1.246   3.562   0.032  0.00  0.00    +0.162 A 
ATOM     15  C   UNL     1      -1.226   2.176   0.020  0.00  0.00    +0.054 A 
ATOM     16  C   UNL     1      -0.018   1.503   0.010  0.00  0.00    -0.030 A 
ATOM     17  C   UNL     1       1.170   2.209   0.003  0.00  0.00    +0.008 A 
ATOM     18  C   UNL     1       1.157   3.591   0.009  0.00  0.00    +0.049 A 
ATOM     19  C   UNL     1      -0.050   4.272   0.024  0.00  0.00    +0.158 A 
BRANCH  19  20
ATOM     20  O   UNL     1      -0.065   5.632   0.030  0.00  0.00    -0.503 OA
ATOM     21  H   UNL     1      -0.078   6.029  -0.851  0.00  0.00    +0.292 HD
ENDBRANCH  19  20
BRANCH  14  22
ATOM     22  O   UNL     1      -2.433   4.225   0.047  0.00  0.00    -0.489 OA
BRANCH  22  24
ATOM     23  C   UNL     1      -4.847   4.346   0.070  0.00  0.00    +0.048 C 
ATOM     24  C   UNL     1      -3.621   3.431   0.054  0.00  0.00    +0.226 C 
ENDBRANCH  22  24
ENDBRANCH  14  22
ENDBRANCH   1  16
BRANCH  12  25
ATOM     25  N   UNL     1       2.626  -1.494   2.211  0.00  0.00    -0.328 N 
ATOM     26  H   UNL     1       3.510  -1.889   2.155  0.00  0.00    +0.145 HD
ATOM     27  H   UNL     1       2.185  -1.412   3.071  0.00  0.00    +0.145 HD
ENDBRANCH  12  25
BRANCH  13  28
ATOM     28  C   UNL     1       0.173  -0.417   2.505  0.00  0.00    +0.101 C 
ATOM     29  N   UNL     1      -0.297  -0.342   3.536  0.00  0.00    -0.191 NA
ENDBRANCH  13  28
TORSDOF 6
