REMARK  Name = ZINC20881790
REMARK  6 active torsions:
REMARK  status: ('A' for Active; 'I' for Inactive)
REMARK    1  A    between atoms: C_1  and  C_2
REMARK    2  A    between atoms: C_2  and  C_3
REMARK    3  A    between atoms: C_3  and  O_4
REMARK    4  A    between atoms: O_4  and  C_5
REMARK    5  A    between atoms: C_8  and  C_11
REMARK    6  A    between atoms: C_16  and  C_26
REMARK                            x       y       z     vdW  Elec       q    Type
REMARK                         _______ _______ _______ _____ _____    ______ ____
ROOT
ATOM      1  C   UNL     1       2.673   0.552  -0.530  0.00  0.00    +0.032 C 
ATOM      2  C   UNL     1       1.685  -0.394   0.149  0.00  0.00    +0.059 C 
ATOM      3  C   UNL     1       0.281   0.179   0.071  0.00  0.00    +0.017 C 
ATOM      4  C   UNL     1       0.085   1.509   0.086  0.00  0.00    +0.036 C 
ATOM      5  C   UNL     1      -1.251   2.209   0.015  0.00  0.00    +0.136 C 
ATOM      6  N   UNL     1      -2.395   1.339   0.188  0.00  0.00    -0.331 N 
ATOM      7  C   UNL     1      -2.684   0.338  -0.738  0.00  0.00    +0.049 A 
ATOM      8  C   UNL     1      -3.808   0.402  -1.544  0.00  0.00    +0.025 A 
ATOM      9  C   UNL     1      -3.995  -0.556  -2.526  0.00  0.00    +0.002 A 
ATOM     10  C   UNL     1      -3.071  -1.570  -2.701  0.00  0.00    +0.002 A 
ATOM     11  C   UNL     1      -1.957  -1.648  -1.882  0.00  0.00    +0.025 A 
ATOM     12  C   UNL     1      -1.778  -0.701  -0.888  0.00  0.00    +0.052 A 
ATOM     13  N   UNL     1      -0.709  -0.747  -0.001  0.00  0.00    -0.316 N 
ATOM     14  C   UNL     1       1.190   2.390   0.165  0.00  0.00    +0.163 C 
ATOM     15  O   UNL     1       0.983   3.587   0.204  0.00  0.00    -0.292 OA
ATOM     16  C   UNL     1       2.606   1.899   0.200  0.00  0.00    +0.088 C 
ATOM     17  H   UNL     1      -3.053   1.463   1.061  0.00  0.00    +0.147 HD
ATOM     18  H   UNL     1      -0.700  -1.615   0.675  0.00  0.00    +0.152 HD
ENDROOT
BRANCH   5  19
ATOM     19  C   UNL     1      -1.365   2.885  -1.327  0.00  0.00    -0.023 A 
ATOM     20  C   UNL     1      -1.367   2.128  -2.484  0.00  0.00    +0.008 A 
ATOM     21  C   UNL     1      -1.476   2.747  -3.715  0.00  0.00    +0.038 A 
ATOM     22  C   UNL     1      -1.572   4.126  -3.790  0.00  0.00    +0.123 A 
ATOM     23  C   UNL     1      -1.563   4.883  -2.631  0.00  0.00    +0.038 A 
ATOM     24  C   UNL     1      -1.460   4.262  -1.401  0.00  0.00    +0.008 A 
ATOM     25  F   UNL     1      -1.674   4.732  -4.993  0.00  0.00    -0.205 F 
ENDBRANCH   5  19
BRANCH   1  29
ATOM     26  C   UNL     1       6.628  -1.046  -0.265  0.00  0.00    +0.121 A 
ATOM     27  C   UNL     1       6.056  -0.809  -1.507  0.00  0.00    +0.046 A 
ATOM     28  C   UNL     1       4.777  -0.292  -1.590  0.00  0.00    +0.007 A 
ATOM     29  C   UNL     1       4.068  -0.011  -0.437  0.00  0.00    -0.043 A 
ATOM     30  C   UNL     1       4.638  -0.241   0.802  0.00  0.00    +0.007 A 
ATOM     31  C   UNL     1       5.914  -0.763   0.890  0.00  0.00    +0.046 A 
BRANCH  26  32
ATOM     32  O   UNL     1       7.885  -1.555  -0.181  0.00  0.00    -0.492 OA
BRANCH  32  33
ATOM     33  C   UNL     1       8.410  -1.774   1.130  0.00  0.00    +0.229 C 
BRANCH  33  35
ATOM     34  C   UNL     1      10.387  -2.579   2.428  0.00  0.00    +0.007 C 
ATOM     35  C   UNL     1       9.825  -2.345   1.024  0.00  0.00    +0.038 C 
ENDBRANCH  33  35
ENDBRANCH  32  33
ENDBRANCH  26  32
ENDBRANCH   1  29
TORSDOF 5
