REMARK  Name = ZINC39968906
REMARK  12 active torsions:
REMARK  status: ('A' for Active; 'I' for Inactive)
REMARK    1  A    between atoms: C_1  and  C_2
REMARK    2  A    between atoms: C_2  and  O_3
REMARK    3  A    between atoms: O_3  and  C_4
REMARK    4  A    between atoms: C_4  and  C_6
REMARK    5  A    between atoms: C_10  and  N_11
REMARK    6  A    between atoms: N_11  and  C_12
REMARK    7  A    between atoms: C_12  and  N_14
REMARK    8  A    between atoms: N_14  and  C_15
REMARK    9  A    between atoms: C_21  and  C_23
REMARK   10  A    between atoms: C_23  and  C_24
REMARK   11  A    between atoms: C_23  and  C_25
REMARK   12  A    between atoms: C_23  and  C_26
REMARK                            x       y       z     vdW  Elec       q    Type
REMARK                         _______ _______ _______ _____ _____    ______ ____
ROOT
ATOM      1  C   UNL     1       1.808  -2.630  -3.436  0.00  0.00    +0.091 A 
ATOM      2  C   UNL     1       3.227  -2.895  -3.704  0.00  0.00    -0.021 A 
ATOM      3  C   UNL     1       3.451  -3.311  -4.962  0.00  0.00    -0.004 A 
ATOM      4  S   UNL     1       1.854  -3.400  -5.725  0.00  0.00    -0.077 S 
ATOM      5  C   UNL     1       0.902  -2.860  -4.454  0.00  0.00    +0.086 A 
ATOM      6  C   UNL     1       4.769  -3.587  -5.631  0.00  0.00    +0.043 C 
ATOM      7  C   UNL     1       5.375  -2.226  -6.021  0.00  0.00    +0.005 C 
ATOM      8  C   UNL     1       5.423  -1.346  -4.767  0.00  0.00    +0.000 C 
ATOM      9  C   UNL     1       6.337  -2.065  -3.798  0.00  0.00    +0.000 C 
ATOM     10  C   UNL     1       5.646  -3.153  -2.995  0.00  0.00    +0.005 C 
ATOM     11  C   UNL     1       4.239  -2.746  -2.572  0.00  0.00    +0.037 C 
ENDROOT
BRANCH   1  12
ATOM     12  C   UNL     1       1.365  -2.142  -2.129  0.00  0.00    +0.342 C 
ATOM     13  O   UNL     1       1.062  -2.933  -1.256  0.00  0.00    -0.245 OA
BRANCH  12  14
ATOM     14  O   UNL     1       1.293  -0.816  -1.893  0.00  0.00    -0.461 OA
BRANCH  14  16
ATOM     15  C   UNL     1       0.836   1.117  -0.515  0.00  0.00    +0.048 C 
ATOM     16  C   UNL     1       0.853  -0.411  -0.595  0.00  0.00    +0.229 C 
ENDBRANCH  14  16
ENDBRANCH  12  14
ENDBRANCH   1  12
BRANCH   5  17
ATOM     17  N   UNL     1      -0.471  -2.683  -4.430  0.00  0.00    -0.291 N 
ATOM     18  H   UNL     1      -0.905  -2.360  -3.625  0.00  0.00    +0.154 HD
BRANCH  17  19
ATOM     19  C   UNL     1      -1.205  -2.961  -5.526  0.00  0.00    +0.135 C 
ATOM     20  S   UNL     1      -0.439  -3.531  -6.947  0.00  0.00    -0.019 S 
BRANCH  19  21
ATOM     21  N   UNL     1      -2.542  -2.789  -5.503  0.00  0.00    -0.323 N 
ATOM     22  H   UNL     1      -2.975  -2.466  -4.698  0.00  0.00    +0.148 HD
BRANCH  21  23
ATOM     23  C   UNL     1      -3.339  -3.091  -6.694  0.00  0.00    +0.076 C 
ATOM     24  C   UNL     1      -3.785  -4.554  -6.653  0.00  0.00    +0.022 C 
ATOM     25  C   UNL     1      -4.629  -4.795  -5.400  0.00  0.00    +0.002 C 
ATOM     26  C   UNL     1      -5.860  -3.887  -5.432  0.00  0.00    +0.000 C 
ATOM     27  C   UNL     1      -5.415  -2.424  -5.473  0.00  0.00    +0.006 C 
ATOM     28  C   UNL     1      -4.571  -2.183  -6.727  0.00  0.00    +0.015 C 
BRANCH  28  29
ATOM     29  C   UNL     1      -4.125  -0.720  -6.768  0.00  0.00    -0.033 C 
ATOM     30  C   UNL     1      -3.162  -0.513  -7.939  0.00  0.00    +0.011 C 
ATOM     31  C   UNL     1      -5.349   0.180  -6.949  0.00  0.00    +0.011 C 
ATOM     32  C   UNL     1      -3.420  -0.365  -5.458  0.00  0.00    +0.011 C 
ENDBRANCH  28  29
ENDBRANCH  21  23
ENDBRANCH  19  21
ENDBRANCH  17  19
ENDBRANCH   5  17
TORSDOF 8
