REMARK  Name = ZINC39711551
REMARK  13 active torsions:
REMARK  status: ('A' for Active; 'I' for Inactive)
REMARK    1  A    between atoms: C_1  and  O_2
REMARK    2  A    between atoms: O_2  and  C_3
REMARK    3  A    between atoms: C_3  and  C_4
REMARK    4  A    between atoms: C_4  and  N_5
REMARK    5  A    between atoms: C_6  and  C_10
REMARK    6  A    between atoms: C_10  and  C_12
REMARK    7  A    between atoms: C_10  and  N_28
REMARK    8  A    between atoms: C_17  and  O_26
REMARK    9  A    between atoms: C_18  and  O_24
REMARK   10  A    between atoms: O_24  and  C_25
REMARK   11  A    between atoms: O_26  and  C_27
REMARK   12  A    between atoms: C_31  and  C_34
REMARK   13  A    between atoms: C_34  and  C_35
REMARK                            x       y       z     vdW  Elec       q    Type
REMARK                         _______ _______ _______ _____ _____    ______ ____
ROOT
ATOM      1  C   UNL     1      -2.793  -2.895   2.538  0.00  0.00    +0.018 C 
ENDROOT
BRANCH   1   2
ATOM      2  C   UNL     1      -2.278  -4.219   3.106  0.00  0.00    +0.092 C 
ATOM      3  C   UNL     1      -3.460  -5.158   3.240  0.00  0.00    -0.006 C 
ATOM      4  C   UNL     1      -3.394  -6.344   2.575  0.00  0.00    -0.003 A 
ATOM      5  C   UNL     1      -4.495  -7.306   2.654  0.00  0.00    +0.058 A 
ATOM      6  C   UNL     1      -4.395  -8.480   1.978  0.00  0.00    +0.162 A 
ATOM      7  C   UNL     1      -3.256  -8.783   1.209  0.00  0.00    +0.163 A 
ATOM      8  C   UNL     1      -2.192  -7.916   1.100  0.00  0.00    +0.073 A 
ATOM      9  C   UNL     1      -2.210  -6.681   1.764  0.00  0.00    +0.044 A 
ATOM     10  N   UNL     1      -1.171  -5.851   1.649  0.00  0.00    -0.284 N 
ATOM     11  C   UNL     1      -1.121  -4.674   2.246  0.00  0.00    +0.223 C 
ATOM     12  O   UNL     1      -0.147  -3.959   2.104  0.00  0.00    -0.275 OA
ATOM     13  H   UNL     1      -0.418  -6.125   1.102  0.00  0.00    +0.155 HD
BRANCH   7  14
ATOM     14  O   UNL     1      -3.204  -9.967   0.554  0.00  0.00    -0.491 OA
ATOM     15  C   UNL     1      -2.029 -10.233  -0.215  0.00  0.00    +0.277 C 
ENDBRANCH   7  14
BRANCH   6  16
ATOM     16  O   UNL     1      -5.413  -9.379   2.047  0.00  0.00    -0.491 OA
ATOM     17  C   UNL     1      -6.544  -9.019   2.842  0.00  0.00    +0.277 C 
ENDBRANCH   6  16
ENDBRANCH   1   2
BRANCH   1  18
ATOM     18  N   UNL     1      -3.832  -2.353   3.423  0.00  0.00    +0.387 N 
ATOM     19  C   UNL     1      -4.376  -1.120   2.841  0.00  0.00    -0.078 C 
ATOM     20  C   UNL     1      -5.515  -0.596   3.718  0.00  0.00    -0.015 C 
ATOM     21  C   UNL     1      -4.978  -0.305   5.122  0.00  0.00    -0.010 C 
ATOM     22  C   UNL     1      -4.347  -1.579   5.691  0.00  0.00    -0.015 C 
ATOM     23  C   UNL     1      -3.251  -2.067   4.740  0.00  0.00    -0.078 C 
ATOM     24  H   UNL     1      -4.574  -3.030   3.524  0.00  0.00    -0.081 HD
BRANCH  21  25
ATOM     25  C   UNL     1      -6.127   0.145   6.026  0.00  0.00    +0.038 C 
BRANCH  25  26
ATOM     26  C   UNL     1      -5.580   0.548   7.371  0.00  0.00    -0.047 A 
ATOM     27  C   UNL     1      -5.455  -0.392   8.377  0.00  0.00    +0.003 A 
ATOM     28  C   UNL     1      -4.953  -0.022   9.611  0.00  0.00    +0.000 A 
ATOM     29  C   UNL     1      -4.575   1.288   9.839  0.00  0.00    +0.000 A 
ATOM     30  C   UNL     1      -4.699   2.228   8.832  0.00  0.00    +0.000 A 
ATOM     31  C   UNL     1      -5.197   1.857   7.598  0.00  0.00    +0.003 A 
ENDBRANCH  25  26
ENDBRANCH  21  25
ENDBRANCH   1  18
BRANCH   1  33
ATOM     32  N   UNL     1      -2.809  -2.800  -0.011  0.00  0.00    -0.229 N 
ATOM     33  C   UNL     1      -3.373  -3.128   1.167  0.00  0.00    +0.139 A 
ATOM     34  N   UNL     1      -4.523  -3.691   0.889  0.00  0.00    -0.115 NA
ATOM     35  N   UNL     1      -4.659  -3.708  -0.392  0.00  0.00    -0.023 NA
ATOM     36  N   UNL     1      -3.627  -3.165  -0.939  0.00  0.00    -0.044 NA
BRANCH  32  37
ATOM     37  C   UNL     1      -1.512  -2.146  -0.202  0.00  0.00    +0.175 C 
BRANCH  37  38
ATOM     38  C   UNL     1      -1.703  -0.628  -0.210  0.00  0.00    +0.183 C 
BRANCH  38  40
ATOM     39  C   UNL     1      -0.505   1.437  -0.420  0.00  0.00    +0.194 C 
ATOM     40  O   UNL     1      -0.438   0.010  -0.397  0.00  0.00    -0.381 OA
ENDBRANCH  38  40
ENDBRANCH  37  38
ENDBRANCH  32  37
ENDBRANCH   1  33
TORSDOF 10
