REMARK  Name = ZINC39710287
REMARK  9 active torsions:
REMARK  status: ('A' for Active; 'I' for Inactive)
REMARK    1  A    between atoms: C_1  and  C_2
REMARK    2  A    between atoms: C_9  and  C_14
REMARK    3  A    between atoms: C_14  and  C_16
REMARK    4  A    between atoms: C_14  and  N_27
REMARK    5  A    between atoms: N_21  and  C_22
REMARK    6  A    between atoms: N_27  and  C_28
REMARK    7  A    between atoms: N_27  and  C_36
REMARK    8  A    between atoms: C_28  and  C_29
REMARK    9  A    between atoms: C_36  and  C_37
REMARK                            x       y       z     vdW  Elec       q    Type
REMARK                         _______ _______ _______ _____ _____    ______ ____
ROOT
ATOM      1  C   UNL     1       1.701  -5.287   3.166  0.00  0.00    -0.008 C 
ENDROOT
BRANCH   1  10
ATOM      2  C   UNL     1       1.217   1.536   1.114  0.00  0.00    +0.044 C 
ATOM      3  C   UNL     1       0.996   0.057   0.931  0.00  0.00    -0.050 A 
ATOM      4  C   UNL     1       0.814  -0.453  -0.355  0.00  0.00    +0.005 A 
ATOM      5  C   UNL     1       0.610  -1.774  -0.598  0.00  0.00    +0.024 A 
ATOM      6  C   UNL     1       0.574  -2.698   0.462  0.00  0.00    +0.040 A 
ATOM      7  N   UNL     1       0.374  -3.992   0.212  0.00  0.00    -0.285 N 
ATOM      8  C   UNL     1       0.328  -4.912   1.160  0.00  0.00    +0.223 C 
ATOM      9  O   UNL     1       0.142  -6.079   0.870  0.00  0.00    -0.275 OA
ATOM     10  C   UNL     1       0.508  -4.509   2.606  0.00  0.00    +0.088 C 
ATOM     11  C   UNL     1       0.737  -3.038   2.896  0.00  0.00    -0.006 C 
ATOM     12  C   UNL     1       0.763  -2.188   1.831  0.00  0.00    -0.007 A 
ATOM     13  C   UNL     1       0.983  -0.753   2.021  0.00  0.00    +0.012 A 
ATOM     14  H   UNL     1       0.256  -4.271  -0.710  0.00  0.00    +0.155 HD
ENDBRANCH   1  10
BRANCH   1  15
ATOM     15  C   UNL     1       1.947  -4.869   4.617  0.00  0.00    +0.205 C 
ATOM     16  N   UNL     1       2.433  -3.484   4.676  0.00  0.00    -0.152 NA
ATOM     17  N   UNL     1       3.556  -3.477   5.184  0.00  0.00    -0.070 NA
ATOM     18  N   UNL     1       4.002  -4.751   5.535  0.00  0.00    -0.179 N 
ATOM     19  N   UNL     1       3.038  -5.673   5.207  0.00  0.00    -0.185 NA
ATOM     20  H   UNL     1       4.856  -4.954   5.945  0.00  0.00    +0.191 HD
BRANCH  19  21
ATOM     21  C   UNL     1       2.574  -6.398   6.397  0.00  0.00    +0.080 C 
ATOM     22  C   UNL     1       2.196  -5.399   7.510  0.00  0.00    +0.021 C 
ATOM     23  C   UNL     1       2.656  -6.094   8.816  0.00  0.00    +0.002 C 
ATOM     24  C   UNL     1       3.981  -6.775   8.392  0.00  0.00    +0.002 C 
ATOM     25  C   UNL     1       3.709  -7.273   6.958  0.00  0.00    +0.021 C 
ENDBRANCH  19  21
ENDBRANCH   1  15
BRANCH   1  26
ATOM     26  N   UNL     1       1.413  -6.727   3.113  0.00  0.00    +0.392 N 
ATOM     27  H   UNL     1       1.128  -6.979   2.179  0.00  0.00    -0.080 HD
BRANCH  26  28
ATOM     28  C   UNL     1       2.621  -7.481   3.476  0.00  0.00    -0.040 C 
BRANCH  28  29
ATOM     29  C   UNL     1       2.399  -8.946   3.202  0.00  0.00    -0.046 A 
ATOM     30  C   UNL     1       2.067  -9.800   4.237  0.00  0.00    +0.003 A 
ATOM     31  C   UNL     1       1.864 -11.144   3.986  0.00  0.00    +0.000 A 
ATOM     32  C   UNL     1       1.993 -11.635   2.700  0.00  0.00    +0.001 A 
ATOM     33  C   UNL     1       2.325 -10.782   1.665  0.00  0.00    +0.020 A 
ATOM     34  C   UNL     1       2.523  -9.436   1.914  0.00  0.00    +0.042 A 
ATOM     35 CL   UNL     1       2.933  -8.363   0.613  0.00  0.00    -0.083 Cl
ENDBRANCH  28  29
ENDBRANCH  26  28
BRANCH  26  36
ATOM     36  C   UNL     1       0.335  -7.046   4.058  0.00  0.00    -0.002 C 
BRANCH  36  37
ATOM     37  C   UNL     1      -0.993  -6.974   3.348  0.00  0.00    +0.089 A 
ATOM     38  C   UNL     1      -1.531  -7.944   2.587  0.00  0.00    +0.042 A 
ATOM     39  C   UNL     1      -2.774  -7.456   2.121  0.00  0.00    +0.041 A 
ATOM     40  C   UNL     1      -2.920  -6.218   2.626  0.00  0.00    +0.195 A 
ATOM     41  O   UNL     1      -1.841  -5.933   3.373  0.00  0.00    -0.470 OA
ENDBRANCH  36  37
ENDBRANCH  26  36
ENDBRANCH   1  26
TORSDOF 8
