REMARK  Name = ZINC38705737
REMARK  15 active torsions:
REMARK  status: ('A' for Active; 'I' for Inactive)
REMARK    1  A    between atoms: C_1  and  C_2
REMARK    2  A    between atoms: C_4  and  C_36
REMARK    3  A    between atoms: C_5  and  C_9
REMARK    4  A    between atoms: C_6  and  O_8
REMARK    5  A    between atoms: N_17  and  C_32
REMARK    6  A    between atoms: C_18  and  C_20
REMARK    7  A    between atoms: C_24  and  O_26
REMARK    8  A    between atoms: O_26  and  C_27
REMARK    9  A    between atoms: C_27  and  C_28
REMARK   10  A    between atoms: C_28  and  C_29
REMARK   11  A    between atoms: C_29  and  C_30
REMARK   12  A    between atoms: C_29  and  C_31
REMARK   13  A    between atoms: C_32  and  C_33
REMARK   14  A    between atoms: C_33  and  C_34
REMARK   15  A    between atoms: C_34  and  O_35
REMARK                            x       y       z     vdW  Elec       q    Type
REMARK                         _______ _______ _______ _____ _____    ______ ____
ROOT
ATOM      1  C   UNL     1       0.104  -4.354  -0.124  0.00  0.00    +0.102 A 
ATOM      2  C   UNL     1       0.198  -5.154   1.019  0.00  0.00    +0.035 A 
ATOM      3  C   UNL     1       0.167  -6.460   0.568  0.00  0.00    +0.126 A 
ATOM      4  N   UNL     1       0.059  -6.389  -0.792  0.00  0.00    -0.272 N 
ATOM      5  H   UNL     1       0.014  -7.154  -1.387  0.00  0.00    +0.189 HD
ATOM      6  N   UNL     1       0.018  -5.160  -1.164  0.00  0.00    -0.173 NA
ATOM      7  C   UNL     1       0.263  -7.356   1.726  0.00  0.00    +0.265 C 
ATOM      8  O   UNL     1       0.262  -8.570   1.666  0.00  0.00    -0.268 OA
ATOM      9  N   UNL     1       0.350  -6.643   2.864  0.00  0.00    -0.285 N 
ATOM     10  C   UNL     1       0.318  -5.216   2.517  0.00  0.00    +0.141 C 
ENDROOT
BRANCH   1  15
ATOM     11  C   UNL     1       0.073   1.408  -0.267  0.00  0.00    +0.044 C 
ATOM     12  C   UNL     1       0.079  -0.099  -0.228  0.00  0.00    -0.047 A 
ATOM     13  C   UNL     1       0.938  -0.806  -1.051  0.00  0.00    +0.007 A 
ATOM     14  C   UNL     1       0.950  -2.186  -1.021  0.00  0.00    -0.037 A 
ATOM     15  C   UNL     1       0.095  -2.870  -0.160  0.00  0.00    +0.047 A 
ATOM     16  C   UNL     1      -0.771  -2.153   0.670  0.00  0.00    +0.127 A 
ATOM     17  C   UNL     1      -0.769  -0.768   0.635  0.00  0.00    +0.049 A 
ATOM     18  C   UNL     1       1.886  -2.952  -1.920  0.00  0.00    +0.044 C 
BRANCH  16  19
ATOM     19  O   UNL     1      -1.608  -2.812   1.514  0.00  0.00    -0.506 OA
ATOM     20  H   UNL     1      -1.264  -2.911   2.412  0.00  0.00    +0.292 HD
ENDBRANCH  16  19
ENDBRANCH   1  15
BRANCH  10  21
ATOM     21  C   UNL     1       1.591  -4.544   2.964  0.00  0.00    -0.019 A 
ATOM     22  C   UNL     1       2.813  -5.137   2.705  0.00  0.00    +0.006 A 
ATOM     23  C   UNL     1       3.982  -4.524   3.114  0.00  0.00    +0.004 A 
ATOM     24  C   UNL     1       3.932  -3.315   3.783  0.00  0.00    +0.045 A 
ATOM     25  C   UNL     1       2.708  -2.718   4.043  0.00  0.00    +0.121 A 
ATOM     26  C   UNL     1       1.536  -3.333   3.627  0.00  0.00    +0.051 A 
BRANCH  25  27
ATOM     27  O   UNL     1       2.656  -1.530   4.700  0.00  0.00    -0.492 OA
BRANCH  27  28
ATOM     28  C   UNL     1       3.902  -0.952   5.094  0.00  0.00    +0.229 C 
BRANCH  28  29
ATOM     29  C   UNL     1       3.644   0.373   5.815  0.00  0.00    +0.044 C 
BRANCH  29  30
ATOM     30  C   UNL     1       4.978   0.992   6.237  0.00  0.00    -0.014 C 
ATOM     31  C   UNL     1       5.786   1.360   4.991  0.00  0.00    +0.007 C 
ATOM     32  C   UNL     1       4.717   2.252   7.066  0.00  0.00    +0.007 C 
ENDBRANCH  29  30
ENDBRANCH  28  29
ENDBRANCH  27  28
ENDBRANCH  25  27
ENDBRANCH  10  21
BRANCH   9  33
ATOM     33  C   UNL     1       0.459  -7.196   4.216  0.00  0.00    +0.111 C 
BRANCH  33  34
ATOM     34  C   UNL     1       1.934  -7.383   4.574  0.00  0.00    +0.047 C 
BRANCH  34  35
ATOM     35  C   UNL     1       2.047  -7.960   5.987  0.00  0.00    +0.157 C 
BRANCH  35  36
ATOM     36  O   UNL     1       3.426  -8.135   6.321  0.00  0.00    -0.395 OA
ATOM     37  H   UNL     1       3.573  -8.498   7.205  0.00  0.00    +0.209 HD
ENDBRANCH  35  36
ENDBRANCH  34  35
ENDBRANCH  33  34
ENDBRANCH   9  33
TORSDOF 11
