REMARK  Name = ZINC09423381
REMARK  10 active torsions:
REMARK  status: ('A' for Active; 'I' for Inactive)
REMARK    1  A    between atoms: C_1  and  C_2
REMARK    2  A    between atoms: C_2  and  C_3
REMARK    3  A    between atoms: C_3  and  C_30
REMARK    4  A    between atoms: C_9  and  N_19
REMARK    5  A    between atoms: C_10  and  C_14
REMARK    6  A    between atoms: C_14  and  O_16
REMARK    7  A    between atoms: O_16  and  C_17
REMARK    8  A    between atoms: C_17  and  C_18
REMARK    9  A    between atoms: C_20  and  C_22
REMARK   10  A    between atoms: C_22  and  N_62
REMARK                            x       y       z     vdW  Elec       q    Type
REMARK                         _______ _______ _______ _____ _____    ______ ____
ROOT
ATOM      1  C   UNL     1      -0.637   6.163  -2.279  0.00  0.00    +0.072 C 
ATOM      2  C   UNL     1       0.125   5.060  -3.015  0.00  0.00    +0.090 C 
ATOM      3  C   UNL     1      -0.765   4.436  -4.061  0.00  0.00    +0.051 A 
ATOM      4  C   UNL     1      -2.140   4.605  -4.028  0.00  0.00    +0.000 A 
ATOM      5  C   UNL     1      -2.932   4.018  -4.993  0.00  0.00    +0.020 A 
ATOM      6  C   UNL     1      -2.326   3.249  -6.015  0.00  0.00    +0.030 A 
ATOM      7  C   UNL     1      -2.956   2.548  -7.123  0.00  0.00    +0.064 A 
ATOM      8  C   UNL     1      -2.152   1.859  -8.004  0.00  0.00    +0.120 A 
ATOM      9  S   UNL     1      -0.511   2.134  -7.365  0.00  0.00    -0.060 S 
ATOM     10  C   UNL     1      -0.917   3.142  -5.961  0.00  0.00    +0.111 A 
ATOM     11  N   UNL     1      -0.205   3.718  -5.019  0.00  0.00    -0.244 NA
ATOM     12  C   UNL     1      -2.804   5.429  -2.956  0.00  0.00    +0.197 C 
ATOM     13  O   UNL     1      -1.906   5.642  -1.868  0.00  0.00    -0.369 OA
ATOM     14  C   UNL     1      -0.845   7.356  -3.214  0.00  0.00    +0.042 C 
ENDROOT
BRANCH   7  15
ATOM     15  N   UNL     1      -4.337   2.572  -7.288  0.00  0.00    -0.285 N 
ATOM     16  C   UNL     1      -5.146   2.420  -6.221  0.00  0.00    +0.201 C 
ATOM     17  O   UNL     1      -4.674   2.357  -5.106  0.00  0.00    -0.278 OA
ATOM     18  H   UNL     1      -4.718   2.698  -8.171  0.00  0.00    +0.155 HD
BRANCH  16  19
ATOM     19  C   UNL     1      -6.638   2.329  -6.414  0.00  0.00    +0.019 C 
BRANCH  19  25
ATOM     20  C   UNL     1      -7.015   0.636  -4.725  0.00  0.00    -0.078 C 
ATOM     21  C   UNL     1      -7.573   0.396  -3.321  0.00  0.00    -0.019 C 
ATOM     22  C   UNL     1      -9.080   0.667  -3.322  0.00  0.00    -0.004 C 
ATOM     23  C   UNL     1      -9.331   2.103  -3.792  0.00  0.00    -0.019 C 
ATOM     24  C   UNL     1      -8.722   2.293  -5.183  0.00  0.00    -0.078 C 
ATOM     25  N   UNL     1      -7.268   2.041  -5.108  0.00  0.00    +0.385 N 
ATOM     26  H   UNL     1      -6.858   2.659  -4.397  0.00  0.00    -0.081 HD
ENDBRANCH  19  25
ENDBRANCH  16  19
ENDBRANCH   7  15
BRANCH   1  28
ATOM     27  C   UNL     1      -0.605   7.710  -0.317  0.00  0.00    +0.007 C 
ATOM     28  C   UNL     1       0.160   6.606  -1.050  0.00  0.00    +0.032 C 
ENDBRANCH   1  28
BRANCH   8  29
ATOM     29  C   UNL     1      -2.537   1.111  -9.145  0.00  0.00    +0.348 C 
ATOM     30  O   UNL     1      -3.716   0.963  -9.405  0.00  0.00    -0.244 OA
BRANCH  29  31
ATOM     31  O   UNL     1      -1.596   0.563  -9.941  0.00  0.00    -0.461 OA
BRANCH  31  32
ATOM     32  C   UNL     1      -2.055  -0.178 -11.074  0.00  0.00    +0.229 C 
ATOM     33  C   UNL     1      -0.854  -0.719 -11.851  0.00  0.00    +0.048 C 
ENDBRANCH  31  32
ENDBRANCH  29  31
ENDBRANCH   8  29
TORSDOF 7
