REMARK  Name = ZINC34757384
REMARK  5 active torsions:
REMARK  status: ('A' for Active; 'I' for Inactive)
REMARK    1  A    between atoms: C_4  and  C_7
REMARK    2  A    between atoms: C_7  and  S_8
REMARK    3  A    between atoms: S_8  and  C_9
REMARK    4  A    between atoms: N_24  and  C_27
REMARK    5  A    between atoms: C_27  and  C_28
REMARK                            x       y       z     vdW  Elec       q    Type
REMARK                         _______ _______ _______ _____ _____    ______ ____
ROOT
ATOM      1  C   UNL     1       5.883  -1.716   1.470  0.00  0.00    +0.191 A 
ATOM      2  N   UNL     1       6.550  -2.101   2.552  0.00  0.00    -0.206 NA
ATOM      3  C   UNL     1       7.608  -2.892   2.480  0.00  0.00    +0.134 A 
ATOM      4  C   UNL     1       8.048  -3.345   1.206  0.00  0.00    +0.051 A 
ATOM      5  C   UNL     1       9.190  -4.222   0.892  0.00  0.00    -0.025 A 
ATOM      6  C   UNL     1       9.399  -4.506  -0.402  0.00  0.00    -0.004 A 
ATOM      7  S   UNL     1       8.113  -3.645  -1.279  0.00  0.00    -0.073 S 
ATOM      8  C   UNL     1       7.296  -2.900   0.105  0.00  0.00    +0.115 A 
ATOM      9  N   UNL     1       6.246  -2.114   0.258  0.00  0.00    -0.215 NA
ATOM     10  C   UNL     1      10.592  -5.402  -0.603  0.00  0.00    +0.043 C 
ATOM     11  C   UNL     1      11.377  -5.304   0.724  0.00  0.00    +0.010 C 
ATOM     12  C   UNL     1      10.261  -4.937   1.721  0.00  0.00    +0.037 C 
ATOM     13  N   UNL     1       8.278  -3.271   3.629  0.00  0.00    -0.318 N 
ATOM     14  C   UNL     1       9.334  -2.424   4.204  0.00  0.00    +0.088 C 
ATOM     15  C   UNL     1       9.042  -2.228   5.695  0.00  0.00    -0.059 C 
ATOM     16  N   UNL     1       8.899  -3.540   6.341  0.00  0.00    +0.387 N 
ATOM     17  C   UNL     1       7.728  -4.239   5.797  0.00  0.00    -0.059 C 
ATOM     18  C   UNL     1       7.951  -4.532   4.314  0.00  0.00    +0.088 C 
ATOM     19  H   UNL     1       9.727  -4.090   6.170  0.00  0.00    -0.081 HD
ENDROOT
BRANCH   1  20
ATOM     20  S   UNL     1       4.482  -0.662   1.649  0.00  0.00    -0.081 S 
BRANCH  20  21
ATOM     21  C   UNL     1       3.901  -0.412  -0.051  0.00  0.00    +0.112 C 
BRANCH  21  25
ATOM     22  C   UNL     1       0.467   2.128  -0.024  0.00  0.00    +0.000 A 
ATOM     23  C   UNL     1       1.731   2.676  -0.129  0.00  0.00    +0.000 A 
ATOM     24  C   UNL     1       2.842   1.854  -0.138  0.00  0.00    +0.004 A 
ATOM     25  C   UNL     1       2.689   0.484  -0.041  0.00  0.00    -0.037 A 
ATOM     26  C   UNL     1       1.425  -0.064   0.066  0.00  0.00    +0.004 A 
ATOM     27  C   UNL     1       0.313   0.758   0.072  0.00  0.00    +0.000 A 
ENDBRANCH  21  25
ENDBRANCH  20  21
ENDBRANCH   1  20
BRANCH  16  28
ATOM     28  C   UNL     1       8.728  -3.355   7.788  0.00  0.00    +0.018 C 
BRANCH  28  29
ATOM     29  C   UNL     1       8.704  -4.700   8.467  0.00  0.00    +0.194 C 
ATOM     30  O   UNL     1       8.818  -5.713   7.809  0.00  0.00    -0.278 OA
ATOM     31  N   UNL     1       8.556  -4.778   9.804  0.00  0.00    -0.331 N 
ATOM     32  H   UNL     1       8.465  -3.968  10.330  0.00  0.00    +0.145 HD
ATOM     33  H   UNL     1       8.540  -5.644  10.241  0.00  0.00    +0.145 HD
ENDBRANCH  28  29
ENDBRANCH  16  28
TORSDOF 5
