REMARK  Name = ZINC24235445
REMARK  11 active torsions:
REMARK  status: ('A' for Active; 'I' for Inactive)
REMARK    1  A    between atoms: C_1  and  C_2
REMARK    2  A    between atoms: C_5  and  O_33
REMARK    3  A    between atoms: C_6  and  N_8
REMARK    4  A    between atoms: C_9  and  C_11
REMARK    5  A    between atoms: C_11  and  C_13
REMARK    6  A    between atoms: C_11  and  O_19
REMARK    7  A    between atoms: O_19  and  C_20
REMARK    8  A    between atoms: C_20  and  C_22
REMARK    9  A    between atoms: C_24  and  S_29
REMARK   10  A    between atoms: S_29  and  N_32
REMARK   11  A    between atoms: O_33  and  C_34
REMARK                            x       y       z     vdW  Elec       q    Type
REMARK                         _______ _______ _______ _____ _____    ______ ____
ROOT
ATOM      1  C   UNL     1      -4.885   0.010  -0.143  0.00  0.00    +0.292 C 
ENDROOT
BRANCH   1   2
ATOM      2  C   UNL     1      -5.123   0.771   1.136  0.00  0.00    +0.002 A 
ATOM      3  C   UNL     1      -5.614   0.115   2.249  0.00  0.00    +0.008 A 
ATOM      4  C   UNL     1      -5.829   0.812   3.423  0.00  0.00    +0.000 A 
ATOM      5  C   UNL     1      -5.561   2.167   3.482  0.00  0.00    +0.000 A 
ATOM      6  C   UNL     1      -5.075   2.824   2.367  0.00  0.00    +0.000 A 
ATOM      7  C   UNL     1      -4.856   2.126   1.194  0.00  0.00    +0.008 A 
ENDBRANCH   1   2
BRANCH   1   9
ATOM      8  N   UNL     1      -2.418  -0.038   0.037  0.00  0.00    -0.279 N 
ATOM      9  C   UNL     1      -3.573  -0.727  -0.052  0.00  0.00    +0.263 C 
ATOM     10  O   UNL     1      -3.557  -1.940  -0.059  0.00  0.00    -0.271 OA
ATOM     11  H   UNL     1      -2.437   1.057   0.135  0.00  0.00    +0.155 HD
BRANCH   8  17
ATOM     12  C   UNL     1       0.203  -3.978  -1.300  0.00  0.00    +0.044 C 
ATOM     13  C   UNL     1       0.106  -2.628  -0.636  0.00  0.00    -0.048 A 
ATOM     14  C   UNL     1       1.227  -2.064  -0.055  0.00  0.00    +0.007 A 
ATOM     15  C   UNL     1       1.145  -0.826   0.555  0.00  0.00    +0.048 A 
ATOM     16  C   UNL     1      -0.063  -0.147   0.585  0.00  0.00    +0.141 A 
ATOM     17  C   UNL     1      -1.193  -0.718   0.004  0.00  0.00    +0.076 A 
ATOM     18  C   UNL     1      -1.102  -1.958  -0.611  0.00  0.00    +0.030 A 
BRANCH  16  19
ATOM     19  O   UNL     1      -0.146   1.070   1.185  0.00  0.00    -0.493 OA
ATOM     20  C   UNL     1       1.052   1.590   1.765  0.00  0.00    +0.277 C 
ENDBRANCH  16  19
ENDBRANCH   8  17
ENDBRANCH   1   9
BRANCH   1  21
ATOM     21  O   UNL     1      -5.962  -0.943  -0.347  0.00  0.00    -0.444 OA
BRANCH  21  22
ATOM     22  C   UNL     1      -7.034  -0.514  -1.042  0.00  0.00    +0.342 C 
ATOM     23  O   UNL     1      -7.067   0.624  -1.466  0.00  0.00    -0.245 OA
BRANCH  22  24
ATOM     24  C   UNL     1      -8.167  -1.428  -1.289  0.00  0.00    +0.079 A 
ATOM     25  C   UNL     1      -8.131  -2.737  -0.804  0.00  0.00    +0.045 A 
ATOM     26  C   UNL     1      -9.193  -3.585  -1.037  0.00  0.00    +0.106 A 
ATOM     27  C   UNL     1     -10.294  -3.142  -1.751  0.00  0.00    +0.030 A 
ATOM     28  C   UNL     1     -10.337  -1.847  -2.236  0.00  0.00    +0.023 A 
ATOM     29  C   UNL     1      -9.283  -0.985  -2.005  0.00  0.00    +0.055 A 
ATOM     30 CL   UNL     1      -9.341   0.642  -2.608  0.00  0.00    -0.083 Cl
BRANCH  26  31
ATOM     31  S   UNL     1      -9.150  -5.236  -0.425  0.00  0.00    +0.056 S 
ATOM     32  O   UNL     1     -10.028  -5.996  -1.244  0.00  0.00    -0.153 OA
ATOM     33  O   UNL     1      -7.780  -5.572  -0.260  0.00  0.00    -0.153 OA
BRANCH  31  34
ATOM     34  N   UNL     1      -9.818  -5.214   1.090  0.00  0.00    -0.204 NA
ATOM     35  H   UNL     1      -9.810  -6.231   1.509  0.00  0.00    +0.144 HD
ATOM     36  H   UNL     1     -10.855  -4.851   1.029  0.00  0.00    +0.144 HD
ENDBRANCH  31  34
ENDBRANCH  26  31
ENDBRANCH  22  24
ENDBRANCH  21  22
ENDBRANCH   1  21
TORSDOF 9
