REMARK  Name = ZINC36684927
REMARK  9 active torsions:
REMARK  status: ('A' for Active; 'I' for Inactive)
REMARK    1  A    between atoms: C_1  and  C_2
REMARK    2  A    between atoms: N_11  and  C_15
REMARK    3  A    between atoms: C_15  and  C_16
REMARK    4  A    between atoms: N_18  and  C_19
REMARK    5  A    between atoms: C_19  and  C_20
REMARK    6  A    between atoms: C_20  and  C_22
REMARK    7  A    between atoms: C_20  and  N_30
REMARK    8  A    between atoms: C_25  and  O_28
REMARK    9  A    between atoms: O_28  and  C_29
REMARK                            x       y       z     vdW  Elec       q    Type
REMARK                         _______ _______ _______ _____ _____    ______ ____
ROOT
ATOM      1  C   UNL     1       3.469   2.845   2.239  0.00  0.00    +0.231 C 
ATOM      2  O   UNL     1       2.474   3.232   1.662  0.00  0.00    -0.274 OA
ATOM      3  N   UNL     1       4.487   3.697   2.471  0.00  0.00    -0.315 N 
ATOM      4  H   UNL     1       5.283   3.387   2.932  0.00  0.00    +0.149 HD
ENDROOT
BRANCH   1   5
ATOM      5  C   UNL     1       3.566   1.412   2.695  0.00  0.00    +0.213 C 
BRANCH   5  15
ATOM      6  C   UNL     1      -0.150   1.573   0.239  0.00  0.00    +0.010 C 
ATOM      7  C   UNL     1      -0.098   0.050   0.107  0.00  0.00    +0.018 C 
ATOM      8  C   UNL     1      -1.515  -0.520   0.214  0.00  0.00    +0.006 C 
ATOM      9  C   UNL     1      -1.459  -2.045   0.102  0.00  0.00    +0.000 C 
ATOM     10  C   UNL     1      -0.604  -2.611   1.238  0.00  0.00    +0.003 C 
ATOM     11  C   UNL     1       0.816  -2.049   1.135  0.00  0.00    +0.035 C 
ATOM     12  C   UNL     1       0.769  -0.527   1.221  0.00  0.00    +0.115 C 
ATOM     13  C   UNL     1       2.164   0.049   1.157  0.00  0.00    +0.247 C 
ATOM     14  O   UNL     1       2.958  -0.051   0.246  0.00  0.00    -0.273 OA
ATOM     15  N   UNL     1       2.341   0.698   2.326  0.00  0.00    -0.215 N 
ATOM     16  C   UNL     1       1.257   0.610   3.107  0.00  0.00    +0.310 C 
ATOM     17  O   UNL     1       1.176   1.115   4.210  0.00  0.00    -0.252 OA
ATOM     18  N   UNL     1       0.268  -0.102   2.535  0.00  0.00    -0.285 N 
ATOM     19  H   UNL     1      -0.604  -0.295   2.914  0.00  0.00    +0.151 HD
ENDBRANCH   5  15
ENDBRANCH   1   5
BRANCH   3  20
ATOM     20  C   UNL     1       4.393   5.090   2.028  0.00  0.00    +0.093 C 
BRANCH  20  21
ATOM     21  C   UNL     1       5.621   5.863   2.513  0.00  0.00    -0.020 C 
BRANCH  21  22
ATOM     22  N   UNL     1       5.481   7.280   2.151  0.00  0.00    +0.385 N 
ATOM     23  C   UNL     1       6.685   8.011   2.567  0.00  0.00    -0.078 C 
ATOM     24  C   UNL     1       6.580   9.470   2.121  0.00  0.00    -0.019 C 
ATOM     25  C   UNL     1       5.346  10.108   2.765  0.00  0.00    -0.004 C 
ATOM     26  C   UNL     1       4.105   9.294   2.385  0.00  0.00    -0.019 C 
ATOM     27  C   UNL     1       4.302   7.841   2.822  0.00  0.00    -0.078 C 
ATOM     28  H   UNL     1       5.370   7.362   1.152  0.00  0.00    -0.081 HD
ENDBRANCH  21  22
BRANCH  21  29
ATOM     29  C   UNL     1       6.859   5.299   1.865  0.00  0.00    -0.059 A 
ATOM     30  C   UNL     1       7.188   5.663   0.572  0.00  0.00    +0.005 A 
ATOM     31  C   UNL     1       8.322   5.147  -0.025  0.00  0.00    +0.046 A 
ATOM     32  C   UNL     1       9.131   4.262   0.674  0.00  0.00    +0.120 A 
ATOM     33  C   UNL     1       8.798   3.898   1.971  0.00  0.00    +0.046 A 
ATOM     34  C   UNL     1       7.666   4.421   2.565  0.00  0.00    +0.005 A 
BRANCH  32  35
ATOM     35  O   UNL     1      10.246   3.752   0.089  0.00  0.00    -0.495 OA
ATOM     36  C   UNL     1      11.031   2.847   0.868  0.00  0.00    +0.277 C 
ENDBRANCH  32  35
ENDBRANCH  21  29
ENDBRANCH  20  21
ENDBRANCH   3  20
TORSDOF 7
