REMARK  Name = ZINC13617748
REMARK  5 active torsions:
REMARK  status: ('A' for Active; 'I' for Inactive)
REMARK    1  A    between atoms: C_1  and  C_2
REMARK    2  A    between atoms: C_6  and  N_8
REMARK    3  A    between atoms: C_13  and  C_27
REMARK    4  A    between atoms: N_15  and  C_21
REMARK    5  A    between atoms: C_32  and  O_33
REMARK                            x       y       z     vdW  Elec       q    Type
REMARK                         _______ _______ _______ _____ _____    ______ ____
ROOT
ATOM      1  N   UNL     1       0.050  -2.798   2.395  0.00  0.00    -0.208 N 
ATOM      2  C   UNL     1       0.074  -4.168   2.472  0.00  0.00    +0.235 C 
ATOM      3  O   UNL     1       0.302  -4.955   1.579  0.00  0.00    -0.274 OA
ATOM      4  C   UNL     1      -0.232  -4.467   3.850  0.00  0.00    +0.146 C 
ATOM      5  C   UNL     1      -0.066  -5.551   4.832  0.00  0.00    +0.160 C 
ATOM      6  N   UNL     1      -0.144  -4.815   6.135  0.00  0.00    -0.244 N 
ATOM      7  O   UNL     1      -0.261  -3.406   5.834  0.00  0.00    -0.257 OA
ATOM      8  C   UNL     1       0.468  -3.264   4.602  0.00  0.00    +0.249 C 
ATOM      9  C   UNL     1       0.049  -2.201   3.623  0.00  0.00    +0.259 C 
ATOM     10  O   UNL     1      -0.234  -1.049   3.874  0.00  0.00    -0.272 OA
ENDROOT
BRANCH   1  16
ATOM     11  C   UNL     1      -0.018   1.503   0.010  0.00  0.00    +0.044 C 
ATOM     12  C   UNL     1       0.002  -0.004   0.002  0.00  0.00    -0.049 A 
ATOM     13  C   UNL     1       0.006  -0.688  -1.200  0.00  0.00    +0.003 A 
ATOM     14  C   UNL     1       0.024  -2.071  -1.211  0.00  0.00    +0.002 A 
ATOM     15  C   UNL     1       0.039  -2.773  -0.022  0.00  0.00    +0.024 A 
ATOM     16  C   UNL     1       0.035  -2.089   1.186  0.00  0.00    +0.044 A 
ATOM     17  C   UNL     1       0.023  -0.700   1.194  0.00  0.00    +0.027 A 
ENDBRANCH   1  16
BRANCH   6  18
ATOM     18  C   UNL     1      -0.110  -5.387   7.409  0.00  0.00    +0.065 A 
ATOM     19  C   UNL     1       0.012  -6.763   7.551  0.00  0.00    +0.028 A 
ATOM     20  C   UNL     1       0.046  -7.325   8.812  0.00  0.00    +0.002 A 
ATOM     21  C   UNL     1      -0.042  -6.519   9.933  0.00  0.00    +0.000 A 
ATOM     22  C   UNL     1      -0.163  -5.149   9.795  0.00  0.00    +0.002 A 
ATOM     23  C   UNL     1      -0.192  -4.580   8.537  0.00  0.00    +0.028 A 
ENDBRANCH   6  18
BRANCH   5  24
ATOM     24  C   UNL     1      -1.180  -6.558   4.713  0.00  0.00    +0.020 A 
ATOM     25  C   UNL     1      -2.295  -6.455   5.522  0.00  0.00    +0.009 A 
ATOM     26  C   UNL     1      -3.317  -7.380   5.414  0.00  0.00    +0.001 A 
ATOM     27  C   UNL     1      -3.227  -8.409   4.495  0.00  0.00    +0.004 A 
ATOM     28  C   UNL     1      -2.115  -8.516   3.683  0.00  0.00    +0.046 A 
ATOM     29  C   UNL     1      -1.090  -7.586   3.786  0.00  0.00    +0.122 A 
BRANCH  29  30
ATOM     30  O   UNL     1       0.003  -7.686   2.985  0.00  0.00    -0.506 OA
ATOM     31  H   UNL     1       0.716  -8.224   3.356  0.00  0.00    +0.292 HD
ENDBRANCH  29  30
ENDBRANCH   5  24
TORSDOF 4
