REMARK  Name = ZINC33662411
REMARK  11 active torsions:
REMARK  status: ('A' for Active; 'I' for Inactive)
REMARK    1  A    between atoms: C_1  and  C_2
REMARK    2  A    between atoms: C_2  and  O_3
REMARK    3  A    between atoms: O_3  and  C_4
REMARK    4  A    between atoms: C_4  and  C_6
REMARK    5  A    between atoms: C_6  and  N_7
REMARK    6  A    between atoms: N_7  and  C_8
REMARK    7  A    between atoms: C_9  and  C_18
REMARK    8  A    between atoms: C_13  and  C_17
REMARK    9  A    between atoms: C_22  and  O_24
REMARK   10  A    between atoms: O_24  and  S_25
REMARK   11  A    between atoms: S_25  and  C_28
REMARK                            x       y       z     vdW  Elec       q    Type
REMARK                         _______ _______ _______ _____ _____    ______ ____
ROOT
ATOM      1  C   UNL     1      -4.773   7.884  -2.376  0.00  0.00    +0.005 A 
ATOM      2  C   UNL     1      -5.494   7.268  -3.399  0.00  0.00    +0.010 A 
ATOM      3  C   UNL     1      -5.689   5.902  -3.378  0.00  0.00    +0.004 A 
ATOM      4  C   UNL     1      -5.167   5.140  -2.349  0.00  0.00    +0.048 A 
ATOM      5  C   UNL     1      -4.454   5.746  -1.324  0.00  0.00    +0.157 A 
ATOM      6  C   UNL     1      -4.253   7.116  -1.336  0.00  0.00    +0.058 A 
ENDROOT
BRANCH   1   8
ATOM      7  C   UNL     1      -4.328  10.121  -3.514  0.00  0.00    +0.130 A 
ATOM      8  C   UNL     1      -4.562   9.351  -2.394  0.00  0.00    +0.087 A 
ATOM      9  N   UNL     1      -4.571  10.164  -1.323  0.00  0.00    -0.338 N 
ATOM     10  C   UNL     1      -4.344  11.407  -1.716  0.00  0.00    +0.117 A 
ATOM     11  N   UNL     1      -4.192  11.412  -3.084  0.00  0.00    -0.286 N 
ATOM     12  C   UNL     1      -3.951  12.585  -3.749  0.00  0.00    +0.024 A 
ATOM     13  C   UNL     1      -3.860  13.749  -3.076  0.00  0.00    +0.021 A 
ATOM     14  C   UNL     1      -4.011  13.775  -1.678  0.00  0.00    +0.005 A 
ATOM     15  C   UNL     1      -4.250  12.620  -1.002  0.00  0.00    +0.045 A 
ATOM     16  C   UNL     1      -3.788  12.573  -5.247  0.00  0.00    +0.064 C 
ATOM     17  H   UNL     1      -4.749   9.750  -0.319  0.00  0.00    +0.167 HD
BRANCH   7  18
ATOM     18  N   UNL     1      -4.247   9.671  -4.832  0.00  0.00    -0.318 N 
ATOM     19  H   UNL     1      -4.925   9.870  -5.675  0.00  0.00    +0.148 HD
BRANCH  18  20
ATOM     20  C   UNL     1      -3.064   8.821  -5.025  0.00  0.00    +0.224 C 
BRANCH  20  21
ATOM     21  C   UNL     1      -3.047   8.299  -6.439  0.00  0.00    +0.324 C 
ATOM     22  O   UNL     1      -3.929   8.604  -7.206  0.00  0.00    -0.249 OA
BRANCH  21  23
ATOM     23  O   UNL     1      -2.051   7.496  -6.846  0.00  0.00    -0.464 OA
BRANCH  23  25
ATOM     24  C   UNL     1      -0.891   6.135  -8.498  0.00  0.00    +0.048 C 
ATOM     25  C   UNL     1      -2.099   7.032  -8.221  0.00  0.00    +0.229 C 
ENDBRANCH  23  25
ENDBRANCH  21  23
ENDBRANCH  20  21
ENDBRANCH  18  20
ENDBRANCH   7  18
ENDBRANCH   1   8
BRANCH   5  26
ATOM     26  O   UNL     1      -3.948   4.994  -0.311  0.00  0.00    -0.342 OA
BRANCH  26  27
ATOM     27  S   UNL     1      -4.893   4.830   0.870  0.00  0.00    +0.151 S 
ATOM     28  O   UNL     1      -5.544   6.081   1.046  0.00  0.00    -0.131 OA
ATOM     29  O   UNL     1      -4.145   4.208   1.906  0.00  0.00    -0.131 OA
BRANCH  27  30
ATOM     30  C   UNL     1      -6.137   3.679   0.387  0.00  0.00    +0.129 A 
ATOM     31  C   UNL     1      -5.940   2.318   0.617  0.00  0.00    +0.031 A 
ATOM     32  C   UNL     1      -6.880   1.403   0.256  0.00  0.00    +0.010 A 
ATOM     33  C   UNL     1      -8.069   1.833  -0.359  0.00  0.00    -0.018 A 
ATOM     34  C   UNL     1      -9.063   0.918  -0.746  0.00  0.00    +0.008 A 
ATOM     35  C   UNL     1     -10.201   1.371  -1.339  0.00  0.00    +0.001 A 
ATOM     36  C   UNL     1     -10.395   2.731  -1.574  0.00  0.00    +0.001 A 
ATOM     37  C   UNL     1      -9.458   3.647  -1.208  0.00  0.00    +0.008 A 
ATOM     38  C   UNL     1      -8.269   3.217  -0.593  0.00  0.00    -0.016 A 
ATOM     39  C   UNL     1      -7.275   4.132  -0.206  0.00  0.00    +0.039 A 
ENDBRANCH  27  30
ENDBRANCH  26  27
ENDBRANCH   5  26
TORSDOF 9
