REMARK  Name = ZINC33810571
REMARK  7 active torsions:
REMARK  status: ('A' for Active; 'I' for Inactive)
REMARK    1  A    between atoms: C_1  and  C_2
REMARK    2  A    between atoms: C_5  and  C_8
REMARK    3  A    between atoms: C_8  and  S_9
REMARK    4  A    between atoms: S_9  and  C_10
REMARK    5  A    between atoms: C_17  and  C_29
REMARK    6  A    between atoms: C_23  and  C_27
REMARK    7  A    between atoms: C_23  and  C_28
REMARK                            x       y       z     vdW  Elec       q    Type
REMARK                         _______ _______ _______ _____ _____    ______ ____
ROOT
ATOM      1  C   UNL     1       2.713   6.182   3.562  0.00  0.00    +0.171 A 
ATOM      2  N   UNL     1       2.387   6.810   2.397  0.00  0.00    -0.208 NA
ATOM      3  C   UNL     1       2.302   6.095   1.232  0.00  0.00    +0.135 A 
ATOM      4  C   UNL     1       2.543   4.756   1.252  0.00  0.00    +0.069 A 
ATOM      5  C   UNL     1       2.882   4.144   2.479  0.00  0.00    +0.258 A 
ATOM      6  O   UNL     1       3.108   2.944   2.525  0.00  0.00    -0.267 OA
ATOM      7  N   UNL     1       2.952   4.887   3.594  0.00  0.00    -0.302 N 
ATOM      8  C   UNL     1       2.451   3.936  -0.000  0.00  0.00    +0.092 C 
ATOM      9  C   UNL     1       2.500   4.807  -1.230  0.00  0.00    +0.024 C 
ATOM     10  C   UNL     1       2.259   6.133  -1.152  0.00  0.00    +0.017 C 
ATOM     11  N   UNL     1       1.976   6.721   0.051  0.00  0.00    -0.302 N 
ATOM     12  C   UNL     1       2.294   7.004  -2.384  0.00  0.00    +0.058 C 
ATOM     13  C   UNL     1       3.299   6.434  -3.388  0.00  0.00    -0.023 C 
ATOM     14  C   UNL     1       2.883   5.000  -3.729  0.00  0.00    +0.086 C 
ATOM     15  C   UNL     1       2.804   4.198  -2.459  0.00  0.00    +0.162 C 
ATOM     16  O   UNL     1       3.007   3.000  -2.497  0.00  0.00    -0.292 OA
ATOM     17  C   UNL     1       4.698   6.431  -2.769  0.00  0.00    +0.011 C 
ATOM     18  C   UNL     1       3.301   7.286  -4.659  0.00  0.00    +0.011 C 
ATOM     19  H   UNL     1       1.484   7.704   0.068  0.00  0.00    +0.153 HD
ATOM     20  H   UNL     1       3.215   4.400   4.544  0.00  0.00    +0.171 HD
ENDROOT
BRANCH   8  21
ATOM     21  C   UNL     1       1.156   3.166   0.008  0.00  0.00    -0.035 A 
ATOM     22  C   UNL     1       1.175   1.783   0.000  0.00  0.00    +0.007 A 
ATOM     23  C   UNL     1      -0.013   1.076   0.008  0.00  0.00    +0.038 A 
ATOM     24  C   UNL     1      -1.221   1.752   0.017  0.00  0.00    +0.123 A 
ATOM     25  C   UNL     1      -1.238   3.136   0.030  0.00  0.00    +0.038 A 
ATOM     26  C   UNL     1      -0.050   3.842   0.023  0.00  0.00    +0.007 A 
ATOM     27  F   UNL     1      -2.382   1.062   0.019  0.00  0.00    -0.205 F 
ENDBRANCH   8  21
BRANCH   1  28
ATOM     28  S   UNL     1       2.816   7.119   5.051  0.00  0.00    -0.083 S 
BRANCH  28  29
ATOM     29  C   UNL     1       3.265   5.808   6.216  0.00  0.00    +0.112 C 
BRANCH  29  34
ATOM     30  C   UNL     1       3.830   8.050  11.512  0.00  0.00    +0.044 C 
ATOM     31  C   UNL     1       3.683   7.465  10.131  0.00  0.00    -0.050 A 
ATOM     32  C   UNL     1       2.456   6.989   9.709  0.00  0.00    +0.003 A 
ATOM     33  C   UNL     1       2.321   6.452   8.442  0.00  0.00    +0.005 A 
ATOM     34  C   UNL     1       3.413   6.393   7.597  0.00  0.00    -0.037 A 
ATOM     35  C   UNL     1       4.641   6.865   8.020  0.00  0.00    +0.005 A 
ATOM     36  C   UNL     1       4.775   7.405   9.286  0.00  0.00    +0.003 A 
ENDBRANCH  29  34
ENDBRANCH  28  29
ENDBRANCH   1  28
TORSDOF 4
