REMARK  Name = ZINC17307159
REMARK  8 active torsions:
REMARK  status: ('A' for Active; 'I' for Inactive)
REMARK    1  A    between atoms: C_1  and  C_2
REMARK    2  A    between atoms: C_2  and  O_3
REMARK    3  A    between atoms: O_3  and  C_4
REMARK    4  A    between atoms: C_6  and  C_11
REMARK    5  A    between atoms: C_9  and  O_10
REMARK    6  A    between atoms: N_17  and  C_18
REMARK    7  A    between atoms: C_21  and  C_25
REMARK    8  A    between atoms: C_23  and  C_24
REMARK                            x       y       z     vdW  Elec       q    Type
REMARK                         _______ _______ _______ _____ _____    ______ ____
ROOT
ATOM      1  C   UNL     1      -1.127  -4.995  -0.142  0.00  0.00    +0.028 C 
ATOM      2  C   UNL     1      -0.916  -6.333  -0.230  0.00  0.00    +0.078 C 
ATOM      3  C   UNL     1      -0.379  -7.124  -1.354  0.00  0.00    +0.256 C 
ATOM      4  O   UNL     1      -0.047  -6.598  -2.401  0.00  0.00    -0.269 OA
ATOM      5  N   UNL     1      -0.275  -8.430  -1.173  0.00  0.00    -0.260 N 
ATOM      6  C   UNL     1      -0.656  -9.006   0.019  0.00  0.00    +0.166 C 
ATOM      7  N   UNL     1      -0.618 -10.274   0.363  0.00  0.00    -0.225 NA
ATOM      8  S   UNL     1      -1.205  -7.609   0.987  0.00  0.00    -0.049 S 
ATOM      9  H   UNL     1       0.073  -8.987  -1.886  0.00  0.00    +0.157 HD
ENDROOT
BRANCH   7  10
ATOM     10  C   UNL     1      -0.053 -11.194  -0.477  0.00  0.00    +0.069 A 
ATOM     11  C   UNL     1       1.222 -10.973  -1.005  0.00  0.00    +0.028 A 
ATOM     12  C   UNL     1       1.785 -11.905  -1.851  0.00  0.00    +0.005 A 
ATOM     13  C   UNL     1       1.091 -13.057  -2.178  0.00  0.00    -0.050 A 
ATOM     14  C   UNL     1      -0.172 -13.282  -1.659  0.00  0.00    +0.008 A 
ATOM     15  C   UNL     1      -0.745 -12.361  -0.807  0.00  0.00    -0.025 A 
ATOM     16  C   UNL     1      -2.119 -12.611  -0.239  0.00  0.00    +0.046 C 
ATOM     17  C   UNL     1       1.714 -14.070  -3.103  0.00  0.00    +0.044 C 
ENDBRANCH   7  10
BRANCH   1  20
ATOM     18  C   UNL     1      -0.287  -2.076  -2.342  0.00  0.00    +0.162 A 
ATOM     19  C   UNL     1      -0.424  -2.868  -1.219  0.00  0.00    +0.057 A 
ATOM     20  C   UNL     1      -0.979  -4.148  -1.333  0.00  0.00    -0.020 A 
ATOM     21  C   UNL     1      -1.390  -4.619  -2.585  0.00  0.00    +0.012 A 
ATOM     22  C   UNL     1      -1.249  -3.823  -3.700  0.00  0.00    +0.050 A 
ATOM     23  C   UNL     1      -0.704  -2.551  -3.585  0.00  0.00    +0.158 A 
BRANCH  23  24
ATOM     24  O   UNL     1      -0.573  -1.768  -4.688  0.00  0.00    -0.503 OA
ATOM     25  H   UNL     1       0.270  -1.877  -5.149  0.00  0.00    +0.292 HD
ENDBRANCH  23  24
BRANCH  18  26
ATOM     26  O   UNL     1       0.251  -0.832  -2.235  0.00  0.00    -0.489 OA
BRANCH  26  28
ATOM     27  C   UNL     1       1.233   1.005  -1.010  0.00  0.00    +0.048 C 
ATOM     28  C   UNL     1       0.657  -0.410  -0.932  0.00  0.00    +0.226 C 
ENDBRANCH  26  28
ENDBRANCH  18  26
ENDBRANCH   1  20
TORSDOF 5
