REMARK  Name = ZINC12293328
REMARK  5 active torsions:
REMARK  status: ('A' for Active; 'I' for Inactive)
REMARK    1  A    between atoms: C_4  and  C_7
REMARK    2  A    between atoms: C_7  and  C_9
REMARK    3  A    between atoms: C_7  and  O_27
REMARK    4  A    between atoms: C_9  and  N_50
REMARK    5  A    between atoms: C_16  and  O_26
REMARK                            x       y       z     vdW  Elec       q    Type
REMARK                         _______ _______ _______ _____ _____    ______ ____
ROOT
ATOM      1  C   UNL     1       5.080   4.410  -0.774  0.00  0.00    -0.075 C 
ATOM      2  C   UNL     1       6.335   5.279  -0.669  0.00  0.00    +0.029 C 
ATOM      3  C   UNL     1       6.771   5.710  -2.071  0.00  0.00    +0.110 C 
ATOM      4  C   UNL     1       5.622   6.455  -2.754  0.00  0.00    +0.029 C 
ATOM      5  C   UNL     1       4.388   5.551  -2.797  0.00  0.00    -0.075 C 
ATOM      6  C   UNL     1       7.990   6.634  -1.966  0.00  0.00    +0.084 C 
ATOM      7  C   UNL     1       8.341   7.131  -3.370  0.00  0.00    +0.152 C 
ATOM      8  C   UNL     1       8.380   5.965  -4.326  0.00  0.00    +0.024 A 
ATOM      9  C   UNL     1       9.035   6.118  -5.537  0.00  0.00    +0.029 A 
ATOM     10  C   UNL     1       9.082   5.074  -6.441  0.00  0.00    +0.042 A 
ATOM     11  C   UNL     1       8.473   3.869  -6.137  0.00  0.00    +0.023 A 
ATOM     12  C   UNL     1       7.822   3.711  -4.931  0.00  0.00    +0.047 A 
ATOM     13  C   UNL     1       7.775   4.760  -4.018  0.00  0.00    +0.127 A 
ATOM     14  O   UNL     1       7.130   4.563  -2.839  0.00  0.00    -0.485 OA
ATOM     15 CL   UNL     1       9.904   5.274  -7.957  0.00  0.00    -0.084 Cl
ATOM     16  N   UNL     1       4.005   5.197  -1.414  0.00  0.00    +0.382 N 
ATOM     17  H   UNL     1       3.860   6.060  -0.877  0.00  0.00    -0.082 HD
ENDROOT
BRANCH   7  18
ATOM     18  O   UNL     1       9.621   7.767  -3.344  0.00  0.00    -0.387 OA
ATOM     19  H   UNL     1       9.907   8.110  -4.201  0.00  0.00    +0.210 HD
ENDBRANCH   7  18
BRANCH  16  20
ATOM     20  C   UNL     1       2.748   4.420  -1.422  0.00  0.00    -0.042 C 
BRANCH  20  21
ATOM     21  C   UNL     1       2.436   3.961   0.004  0.00  0.00    +0.128 C 
BRANCH  21  25
ATOM     22  C   UNL     1      -1.276   1.848   0.037  0.00  0.00    +0.000 A 
ATOM     23  C   UNL     1      -0.083   1.150   0.041  0.00  0.00    +0.000 A 
ATOM     24  C   UNL     1       1.118   1.833   0.029  0.00  0.00    +0.006 A 
ATOM     25  C   UNL     1       1.127   3.216   0.018  0.00  0.00    -0.021 A 
ATOM     26  C   UNL     1      -0.066   3.914   0.019  0.00  0.00    +0.006 A 
ATOM     27  C   UNL     1      -1.268   3.230   0.031  0.00  0.00    +0.000 A 
ENDBRANCH  21  25
BRANCH  21  28
ATOM     28  O   UNL     1       2.345   5.101   0.862  0.00  0.00    -0.389 OA
ATOM     29  H   UNL     1       1.656   5.730   0.608  0.00  0.00    +0.210 HD
ENDBRANCH  21  28
ENDBRANCH  20  21
ENDBRANCH  16  20
TORSDOF 5
