REMARK  Name = ZINC00206930
REMARK  10 active torsions:
REMARK  status: ('A' for Active; 'I' for Inactive)
REMARK    1  A    between atoms: C_1  and  C_2
REMARK    2  A    between atoms: C_2  and  O_3
REMARK    3  A    between atoms: O_3  and  C_4
REMARK    4  A    between atoms: C_4  and  C_6
REMARK    5  A    between atoms: C_7  and  C_24
REMARK    6  A    between atoms: C_12  and  C_14
REMARK    7  A    between atoms: C_17  and  C_20
REMARK    8  A    between atoms: C_20  and  C_21
REMARK    9  A    between atoms: C_20  and  C_22
REMARK   10  A    between atoms: C_20  and  C_23
REMARK                            x       y       z     vdW  Elec       q    Type
REMARK                         _______ _______ _______ _____ _____    ______ ____
ROOT
ATOM      1  C   UNL     1       2.831   4.227   1.437  0.00  0.00    +0.078 C 
ATOM      2  C   UNL     1       2.989   5.519   1.796  0.00  0.00    +0.021 C 
ATOM      3  N   UNL     1       2.811   6.529   0.894  0.00  0.00    -0.273 N 
ATOM      4  C   UNL     1       2.475   6.329  -0.387  0.00  0.00    +0.304 C 
ATOM      5  O   UNL     1       2.339   7.292  -1.116  0.00  0.00    -0.252 OA
ATOM      6  N   UNL     1       2.283   5.095  -0.894  0.00  0.00    -0.288 N 
ATOM      7  C   UNL     1       2.451   3.937  -0.001  0.00  0.00    +0.143 C 
ATOM      8  C   UNL     1       3.367   5.853   3.216  0.00  0.00    +0.061 C 
ATOM      9  H   UNL     1       2.935   7.441   1.198  0.00  0.00    +0.156 HD
ATOM     10  H   UNL     1       2.040   4.974  -1.825  0.00  0.00    +0.151 HD
ENDROOT
BRANCH   7  11
ATOM     11  C   UNL     1       1.156   3.165   0.008  0.00  0.00    -0.022 A 
ATOM     12  C   UNL     1       1.175   1.783   0.000  0.00  0.00    +0.006 A 
ATOM     13  C   UNL     1      -0.013   1.076   0.008  0.00  0.00    +0.004 A 
ATOM     14  C   UNL     1      -1.219   1.751   0.017  0.00  0.00    -0.042 A 
ATOM     15  C   UNL     1      -1.238   3.133   0.030  0.00  0.00    +0.004 A 
ATOM     16  C   UNL     1      -0.050   3.840   0.022  0.00  0.00    +0.006 A 
BRANCH  14  17
ATOM     17  C   UNL     1      -2.514   0.980   0.019  0.00  0.00    -0.013 C 
ATOM     18  C   UNL     1      -2.577   0.092   1.264  0.00  0.00    +0.015 C 
ATOM     19  C   UNL     1      -3.690   1.958   0.030  0.00  0.00    +0.015 C 
ATOM     20  C   UNL     1      -2.589   0.106  -1.234  0.00  0.00    +0.015 C 
ENDBRANCH  14  17
ENDBRANCH   7  11
BRANCH   1  21
ATOM     21  C   UNL     1       3.016   3.181   2.370  0.00  0.00    +0.339 C 
ATOM     22  O   UNL     1       3.321   3.438   3.520  0.00  0.00    -0.245 OA
BRANCH  21  23
ATOM     23  O   UNL     1       2.853   1.897   1.986  0.00  0.00    -0.462 OA
BRANCH  23  25
ATOM     24  C   UNL     1       2.828  -0.490   2.363  0.00  0.00    +0.048 C 
ATOM     25  C   UNL     1       3.055   0.892   2.981  0.00  0.00    +0.229 C 
ENDBRANCH  23  25
ENDBRANCH  21  23
ENDBRANCH   1  21
TORSDOF 5
