REMARK  Name = ZINC39482977
REMARK  9 active torsions:
REMARK  status: ('A' for Active; 'I' for Inactive)
REMARK    1  A    between atoms: C_1  and  C_2
REMARK    2  A    between atoms: C_2  and  C_3
REMARK    3  A    between atoms: C_2  and  S_4
REMARK    4  A    between atoms: S_4  and  C_7
REMARK    5  A    between atoms: C_10  and  N_21
REMARK    6  A    between atoms: C_11  and  N_13
REMARK    7  A    between atoms: N_21  and  S_22
REMARK    8  A    between atoms: S_22  and  C_25
REMARK    9  A    between atoms: C_30  and  O_31
REMARK                            x       y       z     vdW  Elec       q    Type
REMARK                         _______ _______ _______ _____ _____    ______ ____
ROOT
ATOM      1  C   UNL     1      -1.127   0.469   2.332  0.00  0.00    +0.090 A 
ATOM      2  C   UNL     1      -0.556   1.584   2.918  0.00  0.00    +0.029 A 
ATOM      3  C   UNL     1      -0.986   2.015   4.159  0.00  0.00    +0.028 A 
ATOM      4  C   UNL     1      -1.994   1.329   4.820  0.00  0.00    +0.069 A 
ATOM      5  C   UNL     1      -2.570   0.204   4.229  0.00  0.00    +0.054 A 
ATOM      6  C   UNL     1      -2.135  -0.218   2.982  0.00  0.00    +0.052 A 
ENDROOT
BRANCH   5   7
ATOM      7  N   UNL     1      -3.587  -0.493   4.892  0.00  0.00    -0.325 N 
ATOM      8  C   UNL     1      -5.000  -0.139   4.691  0.00  0.00    +0.120 C 
ATOM      9  C   UNL     1      -5.776  -1.413   4.338  0.00  0.00    +0.101 C 
ATOM     10  N   UNL     1      -5.531  -2.432   5.368  0.00  0.00    -0.298 NA
ATOM     11  C   UNL     1      -4.114  -2.816   5.412  0.00  0.00    +0.164 C 
ATOM     12  C   UNL     1      -3.271  -1.604   5.803  0.00  0.00    +0.140 C 
ATOM     13 CL   UNL     1      -3.884  -4.130   6.625  0.00  0.00    -0.103 Cl
ATOM     14  H   UNL     1      -5.848  -2.115   6.272  0.00  0.00    +0.123 HD
ENDBRANCH   5   7
BRANCH   1  15
ATOM     15  S   UNL     1      -0.573  -0.073   0.750  0.00  0.00    -0.001 S 
ATOM     16  O   UNL     1      -0.863  -1.464   0.721  0.00  0.00    -0.169 OA
ATOM     17  O   UNL     1       0.768   0.389   0.657  0.00  0.00    -0.169 OA
BRANCH  15  19
ATOM     18  C   UNL     1      -1.437   2.317  -0.261  0.00  0.00    +0.032 C 
ATOM     19  C   UNL     1      -1.621   0.809  -0.439  0.00  0.00    +0.130 C 
ATOM     20  C   UNL     1      -1.225   0.411  -1.862  0.00  0.00    +0.032 C 
ENDBRANCH  15  19
ENDBRANCH   1  15
BRANCH   4  21
ATOM     21  N   UNL     1      -2.431   1.763   6.078  0.00  0.00    -0.214 N 
ATOM     22  H   UNL     1      -2.702   1.116   6.747  0.00  0.00    +0.174 HD
BRANCH  21  23
ATOM     23  S   UNL     1      -2.484   3.382   6.422  0.00  0.00    +0.076 S 
ATOM     24  O   UNL     1      -3.097   4.014   5.307  0.00  0.00    -0.150 OA
ATOM     25  O   UNL     1      -2.997   3.500   7.742  0.00  0.00    -0.150 OA
BRANCH  23  26
ATOM     26  C   UNL     1      -0.820   3.958   6.475  0.00  0.00    +0.150 A 
ATOM     27  C   UNL     1      -0.384   4.899   5.562  0.00  0.00    +0.032 A 
ATOM     28  C   UNL     1       0.921   5.351   5.603  0.00  0.00    +0.002 A 
ATOM     29  C   UNL     1       1.795   4.864   6.558  0.00  0.00    +0.004 A 
ATOM     30  C   UNL     1       1.364   3.924   7.473  0.00  0.00    +0.047 A 
ATOM     31  C   UNL     1       0.053   3.472   7.438  0.00  0.00    +0.143 A 
BRANCH  31  32
ATOM     32  O   UNL     1      -0.375   2.551   8.341  0.00  0.00    -0.505 OA
ATOM     33  H   UNL     1      -0.241   1.635   8.062  0.00  0.00    +0.292 HD
ENDBRANCH  31  32
ENDBRANCH  23  26
ENDBRANCH  21  23
ENDBRANCH   4  21
TORSDOF 7
