REMARK  Name = ZINC56791864
REMARK  5 active torsions:
REMARK  status: ('A' for Active; 'I' for Inactive)
REMARK    1  A    between atoms: C_4  and  C_7
REMARK    2  A    between atoms: C_4  and  N_23
REMARK    3  A    between atoms: C_7  and  N_8
REMARK    4  A    between atoms: C_14  and  C_17
REMARK    5  A    between atoms: N_19  and  C_20
REMARK                            x       y       z     vdW  Elec       q    Type
REMARK                         _______ _______ _______ _____ _____    ______ ____
ROOT
ATOM      1  N   UNL     1       3.460  -1.819   0.189  0.00  0.00    -0.301 N 
ATOM      2  C   UNL     1       4.388  -2.369  -0.620  0.00  0.00    +0.302 C 
ATOM      3  O   UNL     1       4.938  -1.688  -1.464  0.00  0.00    -0.253 OA
ATOM      4  N   UNL     1       4.707  -3.672  -0.492  0.00  0.00    -0.286 N 
ATOM      5  C   UNL     1       3.970  -4.535   0.441  0.00  0.00    +0.110 C 
ATOM      6  C   UNL     1       4.972  -5.225   1.371  0.00  0.00    +0.032 C 
ATOM      7  C   UNL     1       6.020  -5.958   0.531  0.00  0.00    +0.078 C 
ATOM      8  C   UNL     1       6.779  -4.950  -0.335  0.00  0.00    +0.032 C 
ATOM      9  C   UNL     1       5.793  -4.258  -1.289  0.00  0.00    +0.110 C 
ATOM     10  H   UNL     1       2.969  -2.377   0.813  0.00  0.00    +0.150 HD
ENDROOT
BRANCH   7  11
ATOM     11  C   UNL     1       6.989  -6.666   1.442  0.00  0.00    +0.216 C 
ATOM     12  O   UNL     1       6.854  -6.592   2.646  0.00  0.00    -0.276 OA
ATOM     13  N   UNL     1       8.005  -7.382   0.921  0.00  0.00    -0.312 N 
ATOM     14  H   UNL     1       8.113  -7.442  -0.041  0.00  0.00    +0.149 HD
BRANCH  13  15
ATOM     15  C   UNL     1       8.946  -8.071   1.808  0.00  0.00    +0.073 C 
ATOM     16  C   UNL     1      10.435  -7.977   1.467  0.00  0.00    +0.024 C 
ATOM     17  C   UNL     1       9.681  -9.290   1.248  0.00  0.00    +0.024 C 
ENDBRANCH  13  15
ENDBRANCH   7  11
BRANCH   1  18
ATOM     18  C   UNL     1       3.192  -0.381   0.125  0.00  0.00    +0.094 C 
BRANCH  18  22
ATOM     19  C   UNL     1       3.720   2.099   2.586  0.00  0.00    -0.000 C 
ATOM     20  C   UNL     1       4.091   0.622   2.727  0.00  0.00    -0.001 C 
ATOM     21  C   UNL     1       2.831  -0.236   2.593  0.00  0.00    -0.010 C 
ATOM     22  C   UNL     1       2.196   0.002   1.222  0.00  0.00    -0.050 C 
ATOM     23  C   UNL     1       1.824   1.479   1.081  0.00  0.00    -0.010 C 
ATOM     24  C   UNL     1       3.084   2.337   1.215  0.00  0.00    -0.001 C 
BRANCH  22  25
ATOM     25  N   UNL     1       0.986  -0.822   1.093  0.00  0.00    +0.384 N 
ATOM     26  C   UNL     1       0.405  -0.631  -0.241  0.00  0.00    -0.078 C 
ATOM     27  C   UNL     1      -0.808  -1.547  -0.409  0.00  0.00    -0.019 C 
ATOM     28  C   UNL     1      -1.852  -1.204   0.658  0.00  0.00    -0.004 C 
ATOM     29  C   UNL     1      -1.214  -1.334   2.043  0.00  0.00    -0.019 C 
ATOM     30  C   UNL     1       0.015  -0.426   2.121  0.00  0.00    -0.078 C 
ATOM     31  H   UNL     1       1.228  -1.794   1.217  0.00  0.00    -0.081 HD
ENDBRANCH  22  25
ENDBRANCH  18  22
ENDBRANCH   1  18
TORSDOF 5
