REMARK  Name = ZINC04257507
REMARK  5 active torsions:
REMARK  status: ('A' for Active; 'I' for Inactive)
REMARK    1  A    between atoms: C_6  and  C_7
REMARK    2  A    between atoms: C_10  and  C_22
REMARK    3  A    between atoms: N_12  and  C_13
REMARK    4  A    between atoms: C_16  and  N_19
REMARK    5  A    between atoms: C_25  and  O_28
REMARK                            x       y       z     vdW  Elec       q    Type
REMARK                         _______ _______ _______ _____ _____    ______ ____
ROOT
ATOM      1  C   UNL     1      -1.293  -0.775   0.010  0.00  0.00    +0.134 C 
ATOM      2  C   UNL     1      -1.591  -1.320   1.421  0.00  0.00    +0.087 C 
ATOM      3  C   UNL     1      -1.611  -2.821   1.234  0.00  0.00    +0.069 C 
ATOM      4  N   UNL     1      -1.380  -3.104  -0.002  0.00  0.00    -0.183 NA
ATOM      5  N   UNL     1      -1.179  -1.987  -0.816  0.00  0.00    -0.216 N 
ENDROOT
BRANCH   1  11
ATOM      6  C   UNL     1      -0.017   1.378   0.010  0.00  0.00    +0.008 A 
ATOM      7  C   UNL     1       1.170   2.086   0.002  0.00  0.00    +0.038 A 
ATOM      8  C   UNL     1       2.379   1.410  -0.013  0.00  0.00    +0.123 A 
ATOM      9  C   UNL     1       2.396   0.026  -0.021  0.00  0.00    +0.038 A 
ATOM     10  C   UNL     1       1.208  -0.680  -0.013  0.00  0.00    +0.008 A 
ATOM     11  C   UNL     1       0.002  -0.004   0.002  0.00  0.00    -0.025 A 
ATOM     12  F   UNL     1       3.540   2.101  -0.021  0.00  0.00    -0.205 F 
ENDBRANCH   1  11
BRANCH   5  13
ATOM     13  C   UNL     1      -0.915  -2.014  -2.186  0.00  0.00    +0.052 A 
ATOM     14  C   UNL     1      -0.729  -0.826  -2.882  0.00  0.00    +0.027 A 
ATOM     15  C   UNL     1      -0.468  -0.856  -4.238  0.00  0.00    +0.034 A 
ATOM     16  C   UNL     1      -0.392  -2.067  -4.902  0.00  0.00    +0.126 A 
ATOM     17  C   UNL     1      -0.576  -3.251  -4.212  0.00  0.00    +0.034 A 
ATOM     18  C   UNL     1      -0.832  -3.229  -2.855  0.00  0.00    +0.027 A 
BRANCH  16  19
ATOM     19  N   UNL     1      -0.112  -2.095  -6.356  0.00  0.00    +0.056 N 
ATOM     20  O   UNL     1       0.049  -1.061  -6.961  0.00  0.00    -0.126 OA
ATOM     21  O   UNL     1      -0.045  -3.153  -6.938  0.00  0.00    -0.126 OA
ENDBRANCH  16  19
ENDBRANCH   5  13
BRANCH   3  22
ATOM     22  C   UNL     1      -1.858  -3.807   2.302  0.00  0.00    -0.002 A 
ATOM     23  C   UNL     1      -2.103  -3.379   3.609  0.00  0.00    +0.013 A 
ATOM     24  C   UNL     1      -2.334  -4.305   4.603  0.00  0.00    +0.046 A 
ATOM     25  C   UNL     1      -2.322  -5.662   4.308  0.00  0.00    +0.117 A 
ATOM     26  C   UNL     1      -2.079  -6.093   3.010  0.00  0.00    +0.046 A 
ATOM     27  C   UNL     1      -1.853  -5.173   2.008  0.00  0.00    +0.013 A 
BRANCH  25  28
ATOM     28  O   UNL     1      -2.550  -6.572   5.291  0.00  0.00    -0.507 OA
ATOM     29  H   UNL     1      -3.482  -6.804   5.403  0.00  0.00    +0.292 HD
ENDBRANCH  25  28
ENDBRANCH   3  22
TORSDOF 5
