REMARK  Name = ZINC13495843
REMARK  13 active torsions:
REMARK  status: ('A' for Active; 'I' for Inactive)
REMARK    1  A    between atoms: C_1  and  C_2
REMARK    2  A    between atoms: C_2  and  C_3
REMARK    3  A    between atoms: C_3  and  C_5
REMARK    4  A    between atoms: C_3  and  N_72
REMARK    5  A    between atoms: N_9  and  C_10
REMARK    6  A    between atoms: C_10  and  C_11
REMARK    7  A    between atoms: C_17  and  C_18
REMARK    8  A    between atoms: C_17  and  N_72
REMARK    9  A    between atoms: C_18  and  C_19
REMARK   10  A    between atoms: C_25  and  C_26
REMARK   11  A    between atoms: C_25  and  N_72
REMARK   12  A    between atoms: C_30  and  C_39
REMARK   13  A    between atoms: C_32  and  C_38
REMARK                            x       y       z     vdW  Elec       q    Type
REMARK                         _______ _______ _______ _____ _____    ______ ____
ROOT
ATOM      1  N   UNL     1      -1.063   7.852  -1.516  0.00  0.00    +0.389 N 
ATOM      2  H   UNL     1      -0.202   7.553  -1.989  0.00  0.00    -0.080 HD
ENDROOT
BRANCH   1   3
ATOM      3  C   UNL     1      -0.953   9.287  -1.180  0.00  0.00    +0.003 C 
BRANCH   3   4
ATOM      4  C   UNL     1       0.482   9.590  -0.833  0.00  0.00    +0.138 A 
ATOM      5  N   UNL     1       1.247   8.917  -0.009  0.00  0.00    -0.115 NA
ATOM      6  N   UNL     1       2.401   9.489   0.019  0.00  0.00    -0.023 NA
ATOM      7  N   UNL     1       2.392  10.509  -0.766  0.00  0.00    -0.044 NA
ATOM      8  N   UNL     1       1.228  10.602  -1.314  0.00  0.00    -0.226 N 
BRANCH   8   9
ATOM      9  C   UNL     1       0.798  11.620  -2.276  0.00  0.00    +0.182 C 
BRANCH   9  10
ATOM     10  C   UNL     1       0.217  12.797  -1.536  0.00  0.00    -0.026 A 
ATOM     11  C   UNL     1      -1.135  12.835  -1.251  0.00  0.00    +0.005 A 
ATOM     12  C   UNL     1      -1.667  13.913  -0.568  0.00  0.00    +0.000 A 
ATOM     13  C   UNL     1      -0.849  14.957  -0.180  0.00  0.00    +0.000 A 
ATOM     14  C   UNL     1       0.502  14.921  -0.470  0.00  0.00    +0.000 A 
ATOM     15  C   UNL     1       1.035  13.841  -1.148  0.00  0.00    +0.005 A 
ENDBRANCH   9  10
ENDBRANCH   8   9
ENDBRANCH   3   4
BRANCH   3  17
ATOM     16  C   UNL     1      -3.316   9.450  -0.385  0.00  0.00    +0.002 C 
ATOM     17  C   UNL     1      -1.849   9.626   0.013  0.00  0.00    -0.011 C 
ENDBRANCH   3  17
ENDBRANCH   1   3
BRANCH   1  18
ATOM     18  C   UNL     1      -2.210   7.632  -2.423  0.00  0.00    -0.073 C 
BRANCH  18  19
ATOM     19  C   UNL     1      -1.924   8.323  -3.757  0.00  0.00    +0.016 C 
BRANCH  19  20
ATOM     20  C   UNL     1      -3.009   7.977  -4.745  0.00  0.00    -0.049 A 
ATOM     21  C   UNL     1      -2.875   6.869  -5.559  0.00  0.00    +0.003 A 
ATOM     22  C   UNL     1      -3.872   6.548  -6.462  0.00  0.00    +0.000 A 
ATOM     23  C   UNL     1      -5.000   7.343  -6.555  0.00  0.00    +0.000 A 
ATOM     24  C   UNL     1      -5.132   8.454  -5.744  0.00  0.00    +0.000 A 
ATOM     25  C   UNL     1      -4.137   8.771  -4.839  0.00  0.00    +0.003 A 
ENDBRANCH  19  20
ENDBRANCH  18  19
ENDBRANCH   1  18
BRANCH   1  26
ATOM     26  C   UNL     1      -1.235   7.056  -0.283  0.00  0.00    -0.037 C 
BRANCH  26  27
ATOM     27  C   UNL     1      -1.017   5.601  -0.610  0.00  0.00    +0.001 A 
ATOM     28  C   UNL     1       0.209   5.046  -0.440  0.00  0.00    +0.017 A 
ATOM     29  C   UNL     1       0.387   3.631  -0.768  0.00  0.00    -0.001 A 
ATOM     30  C   UNL     1       1.628   3.003  -0.613  0.00  0.00    +0.013 A 
ATOM     31  C   UNL     1       1.761   1.680  -0.927  0.00  0.00    -0.050 A 
ATOM     32  C   UNL     1       0.677   0.953  -1.399  0.00  0.00    +0.008 A 
ATOM     33  C   UNL     1      -0.553   1.552  -1.565  0.00  0.00    -0.026 A 
ATOM     34  C   UNL     1      -0.715   2.897  -1.246  0.00  0.00    +0.052 A 
ATOM     35  N   UNL     1      -1.935   3.520  -1.396  0.00  0.00    -0.322 N 
ATOM     36  H   UNL     1      -2.694   3.013  -1.725  0.00  0.00    +0.169 HD
ATOM     37  C   UNL     1      -2.090   4.821  -1.092  0.00  0.00    +0.251 A 
ATOM     38  O   UNL     1      -3.183   5.339  -1.238  0.00  0.00    -0.268 OA
ATOM     39  C   UNL     1      -1.720   0.753  -2.083  0.00  0.00    +0.046 C 
ATOM     40  C   UNL     1       3.098   1.004  -0.760  0.00  0.00    +0.044 C 
ENDBRANCH  26  27
ENDBRANCH   1  26
TORSDOF 10
