REMARK  Name = ZINC38566931
REMARK  10 active torsions:
REMARK  status: ('A' for Active; 'I' for Inactive)
REMARK    1  A    between atoms: C_1  and  C_2
REMARK    2  A    between atoms: C_7  and  C_12
REMARK    3  A    between atoms: C_12  and  C_36
REMARK    4  A    between atoms: C_13  and  C_14
REMARK    5  A    between atoms: C_17  and  O_22
REMARK    6  A    between atoms: C_18  and  O_20
REMARK    7  A    between atoms: O_20  and  C_21
REMARK    8  A    between atoms: O_22  and  C_23
REMARK    9  A    between atoms: C_26  and  C_32
REMARK   10  A    between atoms: C_28  and  N_29
REMARK                            x       y       z     vdW  Elec       q    Type
REMARK                         _______ _______ _______ _____ _____    ______ ____
ROOT
ATOM      1  C   UNL     1       2.398  -7.072   2.915  0.00  0.00    -0.020 A 
ATOM      2  C   UNL     1       3.675  -6.500   2.886  0.00  0.00    +0.012 A 
ATOM      3  C   UNL     1       4.778  -7.265   3.197  0.00  0.00    +0.050 A 
ATOM      4  C   UNL     1       4.627  -8.602   3.541  0.00  0.00    +0.170 A 
ATOM      5  C   UNL     1       3.358  -9.178   3.571  0.00  0.00    +0.163 A 
ATOM      6  C   UNL     1       2.246  -8.418   3.266  0.00  0.00    +0.057 A 
ENDROOT
BRANCH   1   8
ATOM      7  C   UNL     1       1.298  -5.318   1.619  0.00  0.00    +0.072 C 
ATOM      8  C   UNL     1       1.219  -6.259   2.583  0.00  0.00    +0.026 C 
BRANCH   7  15
ATOM      9  C   UNL     1       0.578   0.776  -1.728  0.00  0.00    +0.044 C 
ATOM     10  C   UNL     1       0.323  -0.643  -1.290  0.00  0.00    -0.048 A 
ATOM     11  C   UNL     1      -0.233  -1.546  -2.214  0.00  0.00    +0.005 A 
ATOM     12  C   UNL     1      -0.494  -2.832  -1.907  0.00  0.00    +0.027 A 
ATOM     13  C   UNL     1      -0.195  -3.330  -0.557  0.00  0.00    +0.060 A 
ATOM     14  N   UNL     1      -0.338  -4.494   0.009  0.00  0.00    -0.359 N 
ATOM     15  C   UNL     1       0.145  -4.374   1.390  0.00  0.00    +0.216 C 
ATOM     16  N   UNL     1       0.591  -2.984   1.554  0.00  0.00    -0.359 N 
ATOM     17  C   UNL     1       0.393  -2.375   0.421  0.00  0.00    +0.061 A 
ATOM     18  C   UNL     1       0.640  -0.998  -0.028  0.00  0.00    +0.030 A 
ATOM     19  H   UNL     1      -0.699  -5.293  -0.405  0.00  0.00    +0.162 HD
ATOM     20  H   UNL     1       0.963  -2.592   2.360  0.00  0.00    +0.162 HD
ENDBRANCH   7  15
BRANCH   7  21
ATOM     21  C   UNL     1       2.477  -5.216   0.812  0.00  0.00    +0.099 C 
ATOM     22  N   UNL     1       3.412  -5.136   0.172  0.00  0.00    -0.191 NA
ENDBRANCH   7  21
ENDBRANCH   1   8
BRANCH   5  23
ATOM     23  O   UNL     1       3.214 -10.488   3.907  0.00  0.00    -0.491 OA
ATOM     24  C   UNL     1       1.885 -11.013   3.918  0.00  0.00    +0.277 C 
ENDBRANCH   5  23
BRANCH   4  25
ATOM     25  O   UNL     1       5.718  -9.350   3.847  0.00  0.00    -0.450 OA
BRANCH  25  26
ATOM     26  C   UNL     1       6.205 -10.188   2.894  0.00  0.00    +0.159 A 
ATOM     27  C   UNL     1       5.530 -10.339   1.691  0.00  0.00    +0.049 A 
ATOM     28  C   UNL     1       6.027 -11.191   0.724  0.00  0.00    +0.016 A 
ATOM     29  C   UNL     1       7.196 -11.893   0.954  0.00  0.00    +0.057 A 
ATOM     30  C   UNL     1       7.871 -11.744   2.152  0.00  0.00    +0.048 A 
ATOM     31  C   UNL     1       7.381 -10.888   3.120  0.00  0.00    +0.169 A 
BRANCH  29  32
ATOM     32  C   UNL     1       7.736 -12.823  -0.102  0.00  0.00    +0.417 C 
ATOM     33  F   UNL     1       6.888 -12.807  -1.214  0.00  0.00    -0.166 F 
ATOM     34  F   UNL     1       9.014 -12.403  -0.484  0.00  0.00    -0.166 F 
ATOM     35  F   UNL     1       7.806 -14.122   0.412  0.00  0.00    -0.166 F 
ENDBRANCH  29  32
BRANCH  31  36
ATOM     36  N   UNL     1       8.108 -10.724   4.399  0.00  0.00    +0.060 N 
ATOM     37  O   UNL     1       9.132 -11.335   4.595  0.00  0.00    -0.126 OA
ATOM     38  O   UNL     1       7.676  -9.979   5.248  0.00  0.00    -0.126 OA
ENDBRANCH  31  36
ENDBRANCH  25  26
ENDBRANCH   4  25
TORSDOF 8
