REMARK  Name = ZINC20883136
REMARK  11 active torsions:
REMARK  status: ('A' for Active; 'I' for Inactive)
REMARK    1  A    between atoms: C_1  and  C_2
REMARK    2  A    between atoms: C_2  and  C_3
REMARK    3  A    between atoms: C_3  and  C_5
REMARK    4  A    between atoms: C_3  and  O_6
REMARK    5  A    between atoms: O_6  and  C_7
REMARK    6  A    between atoms: C_10  and  C_13
REMARK    7  A    between atoms: C_18  and  C_23
REMARK    8  A    between atoms: C_26  and  O_29
REMARK    9  A    between atoms: O_29  and  C_30
REMARK   10  A    between atoms: C_30  and  C_31
REMARK   11  A    between atoms: C_30  and  C_32
REMARK                            x       y       z     vdW  Elec       q    Type
REMARK                         _______ _______ _______ _____ _____    ______ ____
ROOT
ATOM      1  C   UNL     1     -10.350   3.774  -0.419  0.00  0.00    +0.136 C 
ATOM      2  C   UNL     1      -8.887   3.407  -0.349  0.00  0.00    +0.036 C 
ATOM      3  C   UNL     1      -7.854   4.233  -0.590  0.00  0.00    +0.017 C 
ATOM      4  C   UNL     1      -6.424   3.730  -0.484  0.00  0.00    +0.059 C 
ATOM      5  C   UNL     1      -6.330   2.647   0.590  0.00  0.00    +0.032 C 
ATOM      6  C   UNL     1      -7.270   1.504   0.185  0.00  0.00    +0.088 C 
ATOM      7  C   UNL     1      -8.652   2.061   0.018  0.00  0.00    +0.163 C 
ATOM      8  O   UNL     1      -9.604   1.329   0.204  0.00  0.00    -0.292 OA
ATOM      9  N   UNL     1      -7.974   5.536  -0.948  0.00  0.00    -0.316 N 
ATOM     10  C   UNL     1      -8.814   6.457  -0.332  0.00  0.00    +0.052 A 
ATOM     11  C   UNL     1      -8.332   7.585   0.307  0.00  0.00    +0.025 A 
ATOM     12  C   UNL     1      -9.227   8.520   0.800  0.00  0.00    +0.002 A 
ATOM     13  C   UNL     1     -10.589   8.327   0.655  0.00  0.00    +0.002 A 
ATOM     14  C   UNL     1     -11.072   7.187   0.035  0.00  0.00    +0.025 A 
ATOM     15  C   UNL     1     -10.180   6.241  -0.443  0.00  0.00    +0.049 A 
ATOM     16  N   UNL     1     -10.619   5.057  -1.032  0.00  0.00    -0.331 N 
ATOM     17  H   UNL     1      -7.378   5.934  -1.783  0.00  0.00    +0.152 HD
ATOM     18  H   UNL     1     -11.178   5.108  -1.978  0.00  0.00    +0.147 HD
ENDROOT
BRANCH   1  22
ATOM     19  C   UNL     1     -11.925   3.825   3.554  0.00  0.00    +0.121 A 
ATOM     20  C   UNL     1     -12.393   2.900   2.632  0.00  0.00    +0.046 A 
ATOM     21  C   UNL     1     -11.883   2.885   1.349  0.00  0.00    +0.009 A 
ATOM     22  C   UNL     1     -10.905   3.792   0.982  0.00  0.00    -0.023 A 
ATOM     23  C   UNL     1     -10.433   4.712   1.900  0.00  0.00    +0.009 A 
ATOM     24  C   UNL     1     -10.944   4.735   3.183  0.00  0.00    +0.046 A 
BRANCH  19  25
ATOM     25  O   UNL     1     -12.425   3.841   4.817  0.00  0.00    -0.489 OA
BRANCH  25  26
ATOM     26  C   UNL     1     -13.380   2.832   5.149  0.00  0.00    +0.170 C 
ATOM     27  C   UNL     1     -14.772   3.278   4.698  0.00  0.00    +0.052 C 
BRANCH  26  29
ATOM     28  C   UNL     1     -12.027   2.045   7.097  0.00  0.00    +0.007 C 
ATOM     29  C   UNL     1     -13.382   2.610   6.663  0.00  0.00    +0.041 C 
ENDBRANCH  26  29
ENDBRANCH  25  26
ENDBRANCH  19  25
ENDBRANCH   1  22
BRANCH   5  30
ATOM     30  C   UNL     1      -4.915   2.137   0.678  0.00  0.00    -0.043 A 
ATOM     31  C   UNL     1      -4.220   2.234   1.870  0.00  0.00    +0.007 A 
ATOM     32  C   UNL     1      -2.923   1.767   1.954  0.00  0.00    +0.046 A 
ATOM     33  C   UNL     1      -2.317   1.202   0.842  0.00  0.00    +0.121 A 
ATOM     34  C   UNL     1      -3.014   1.111  -0.354  0.00  0.00    +0.046 A 
ATOM     35  C   UNL     1      -4.314   1.574  -0.432  0.00  0.00    +0.007 A 
BRANCH  33  36
ATOM     36  O   UNL     1      -1.040   0.742   0.922  0.00  0.00    -0.489 OA
BRANCH  36  37
ATOM     37  C   UNL     1      -0.441   0.277  -0.289  0.00  0.00    +0.167 C 
ATOM     38  C   UNL     1      -0.854  -1.175  -0.538  0.00  0.00    +0.051 C 
ATOM     39  C   UNL     1       1.082   0.361  -0.170  0.00  0.00    +0.051 C 
ENDBRANCH  36  37
ENDBRANCH  33  36
ENDBRANCH   5  30
TORSDOF 7
