REMARK  Name = ZINC16454979
REMARK  5 active torsions:
REMARK  status: ('A' for Active; 'I' for Inactive)
REMARK    1  A    between atoms: C_1  and  C_2
REMARK    2  A    between atoms: C_2  and  C_23
REMARK    3  A    between atoms: N_5  and  C_9
REMARK    4  A    between atoms: C_9  and  C_10
REMARK    5  A    between atoms: N_12  and  C_13
REMARK                            x       y       z     vdW  Elec       q    Type
REMARK                         _______ _______ _______ _____ _____    ______ ____
ROOT
ATOM      1  C   UNL     1      -0.697   1.991   1.278  0.00  0.00    +0.047 C 
ATOM      2  C   UNL     1      -0.018   1.469   0.010  0.00  0.00    +0.135 C 
ATOM      3  C   UNL     1       1.450   1.845  -0.002  0.00  0.00    +0.251 C 
ATOM      4  O   UNL     1       1.920   2.963  -0.001  0.00  0.00    -0.272 OA
ATOM      5  N   UNL     1       2.125   0.679  -0.015  0.00  0.00    -0.215 N 
ATOM      6  C   UNL     1       1.296  -0.371  -0.012  0.00  0.00    +0.310 C 
ATOM      7  O   UNL     1       1.670  -1.528  -0.022  0.00  0.00    -0.252 OA
ATOM      8  N   UNL     1       0.002  -0.004   0.002  0.00  0.00    -0.281 N 
ATOM      9  H   UNL     1      -0.768  -0.594   0.006  0.00  0.00    +0.152 HD
ENDROOT
BRANCH   2  10
ATOM     10  C   UNL     1      -0.711   1.996  -1.220  0.00  0.00    -0.015 A 
ATOM     11  C   UNL     1      -0.324   3.207  -1.765  0.00  0.00    +0.009 A 
ATOM     12  C   UNL     1      -0.955   3.689  -2.896  0.00  0.00    +0.039 A 
ATOM     13  C   UNL     1      -1.982   2.965  -3.477  0.00  0.00    +0.123 A 
ATOM     14  C   UNL     1      -2.372   1.756  -2.927  0.00  0.00    +0.039 A 
ATOM     15  C   UNL     1      -1.736   1.272  -1.799  0.00  0.00    +0.009 A 
ATOM     16  F   UNL     1      -2.603   3.438  -4.579  0.00  0.00    -0.205 F 
ENDBRANCH   2  10
BRANCH   5  17
ATOM     17  C   UNL     1       3.587   0.574  -0.028  0.00  0.00    +0.213 C 
BRANCH  17  18
ATOM     18  C   UNL     1       4.075   0.545  -1.454  0.00  0.00    +0.231 C 
ATOM     19  O   UNL     1       3.280   0.607  -2.368  0.00  0.00    -0.274 OA
ATOM     20  N   UNL     1       5.394   0.451  -1.712  0.00  0.00    -0.308 N 
ATOM     21  H   UNL     1       6.029   0.402  -0.981  0.00  0.00    +0.149 HD
BRANCH  20  22
ATOM     22  C   UNL     1       5.869   0.424  -3.098  0.00  0.00    +0.035 C 
ATOM     23  C   UNL     1       5.264  -0.782  -3.821  0.00  0.00    +0.029 C 
ATOM     24  C   UNL     1       5.759  -0.811  -5.268  0.00  0.00    -0.008 C 
ATOM     25  C   UNL     1       7.285  -0.921  -5.282  0.00  0.00    +0.007 C 
ATOM     26  C   UNL     1       7.890   0.285  -4.560  0.00  0.00    -0.008 C 
ATOM     27  C   UNL     1       7.395   0.314  -3.113  0.00  0.00    +0.029 C 
ATOM     28  C   UNL     1       7.465   1.571  -5.270  0.00  0.00    +0.007 C 
ATOM     29  C   UNL     1       5.939   1.681  -5.256  0.00  0.00    -0.008 C 
ATOM     30  C   UNL     1       5.334   0.476  -5.978  0.00  0.00    +0.007 C 
ATOM     31  C   UNL     1       5.443   1.710  -3.809  0.00  0.00    +0.029 C 
ENDBRANCH  20  22
ENDBRANCH  17  18
ENDBRANCH   5  17
TORSDOF 4
