REMARK  Name = ZINC63479919
REMARK  3 active torsions:
REMARK  status: ('A' for Active; 'I' for Inactive)
REMARK    1  A    between atoms: C_7  and  C_10
REMARK    2  A    between atoms: C_10  and  C_11
REMARK    3  A    between atoms: N_19  and  C_22
REMARK                            x       y       z     vdW  Elec       q    Type
REMARK                         _______ _______ _______ _____ _____    ______ ____
ROOT
ATOM      1  C   UNL     1       0.457  -3.653  -1.462  0.00  0.00    +0.072 C 
ATOM      2  C   UNL     1      -0.460  -4.873  -1.499  0.00  0.00    +0.107 C 
ATOM      3  C   UNL     1      -0.806  -4.822  -3.033  0.00  0.00    +0.123 C 
ATOM      4  C   UNL     1      -1.356  -6.136  -3.263  0.00  0.00    +0.233 C 
ATOM      5  O   UNL     1      -2.229  -6.445  -4.045  0.00  0.00    -0.274 OA
ATOM      6  N   UNL     1      -0.672  -6.960  -2.401  0.00  0.00    -0.210 N 
ATOM      7  C   UNL     1       0.091  -6.263  -1.482  0.00  0.00    +0.232 C 
ATOM      8  O   UNL     1       1.011  -6.680  -0.811  0.00  0.00    -0.274 OA
ATOM      9  C   UNL     1      -1.014  -3.411  -3.346  0.00  0.00    +0.136 C 
ATOM     10  N   UNL     1      -0.356  -2.647  -2.232  0.00  0.00    -0.295 NA
ATOM     11  C   UNL     1      -0.409  -2.962  -4.653  0.00  0.00    +0.006 A 
ATOM     12  C   UNL     1       0.862  -3.041  -5.177  0.00  0.00    +0.046 A 
ATOM     13  C   UNL     1       1.125  -2.525  -6.436  0.00  0.00    +0.124 A 
ATOM     14  C   UNL     1       0.106  -1.931  -7.162  0.00  0.00    +0.040 A 
ATOM     15  C   UNL     1      -1.168  -1.853  -6.639  0.00  0.00    +0.026 A 
ATOM     16  C   UNL     1      -1.439  -2.369  -5.374  0.00  0.00    +0.039 A 
ATOM     17  N   UNL     1      -2.627  -2.409  -4.640  0.00  0.00    -0.283 N 
ATOM     18  C   UNL     1      -2.465  -3.002  -3.444  0.00  0.00    +0.243 C 
ATOM     19  O   UNL     1      -3.322  -3.175  -2.603  0.00  0.00    -0.273 OA
ATOM     20  F   UNL     1       2.371  -2.600  -6.953  0.00  0.00    -0.205 F 
ATOM     21  H   UNL     1      -1.050  -2.213  -1.642  0.00  0.00    +0.124 HD
ATOM     22  H   UNL     1      -3.471  -2.051  -4.957  0.00  0.00    +0.155 HD
ENDROOT
BRANCH   6  23
ATOM     23  C   UNL     1      -0.748  -8.360  -2.439  0.00  0.00    +0.044 A 
ATOM     24  C   UNL     1      -1.542  -8.987  -3.388  0.00  0.00    +0.027 A 
ATOM     25  C   UNL     1      -1.616 -10.366  -3.424  0.00  0.00    +0.040 A 
ATOM     26  C   UNL     1      -0.897 -11.122  -2.513  0.00  0.00    +0.124 A 
ATOM     27  C   UNL     1      -0.104 -10.498  -1.565  0.00  0.00    +0.040 A 
ATOM     28  C   UNL     1      -0.024  -9.120  -1.530  0.00  0.00    +0.027 A 
ATOM     29  F   UNL     1      -0.971 -12.471  -2.549  0.00  0.00    -0.205 F 
ENDBRANCH   6  23
BRANCH   1  30
ATOM     30  C   UNL     1       0.691  -3.186  -0.024  0.00  0.00    +0.052 C 
BRANCH  30  37
ATOM     31  C   UNL     1      -0.016   1.348   0.009  0.00  0.00    +0.001 A 
ATOM     32  C   UNL     1       1.166   2.101   0.002  0.00  0.00    +0.002 A 
ATOM     33  C   UNL     1       2.391   1.535  -0.013  0.00  0.00    +0.026 A 
ATOM     34  C   UNL     1       2.529   0.120  -0.022  0.00  0.00    +0.043 A 
ATOM     35  N   UNL     1       3.587  -0.654  -0.037  0.00  0.00    -0.380 N 
ATOM     36  C   UNL     1       3.143  -2.053  -0.041  0.00  0.00    +0.144 C 
ATOM     37  C   UNL     1       1.631  -2.008  -0.025  0.00  0.00    -0.040 C 
ATOM     38  C   UNL     1       1.295  -0.698  -0.014  0.00  0.00    -0.001 A 
ATOM     39  C   UNL     1       0.002  -0.004   0.002  0.00  0.00    +0.010 A 
ATOM     40  H   UNL     1       4.509  -0.353  -0.045  0.00  0.00    +0.160 HD
ENDBRANCH  30  37
ENDBRANCH   1  30
TORSDOF 3
