REMARK  Name = ZINC32388312
REMARK  9 active torsions:
REMARK  status: ('A' for Active; 'I' for Inactive)
REMARK    1  A    between atoms: C_1  and  C_2
REMARK    2  A    between atoms: C_5  and  N_9
REMARK    3  A    between atoms: C_7  and  C_8
REMARK    4  A    between atoms: C_13  and  C_15
REMARK    5  A    between atoms: C_15  and  O_16
REMARK    6  A    between atoms: O_16  and  C_17
REMARK    7  A    between atoms: C_17  and  C_19
REMARK    8  A    between atoms: C_28  and  N_31
REMARK    9  A    between atoms: C_32  and  C_34
REMARK                            x       y       z     vdW  Elec       q    Type
REMARK                         _______ _______ _______ _____ _____    ______ ____
ROOT
ATOM      1  O   UNL     1       1.424   1.050  -2.430  0.00  0.00    -0.455 OA
ENDROOT
BRANCH   1   2
ATOM      2  C   UNL     1       0.152   0.698  -2.186  0.00  0.00    +0.314 C 
ATOM      3  O   UNL     1      -0.488   0.120  -3.033  0.00  0.00    -0.250 OA
BRANCH   2   4
ATOM      4  C   UNL     1      -0.478   1.023  -0.856  0.00  0.00    +0.070 C 
ATOM      5  C   UNL     1      -0.467   2.538  -0.644  0.00  0.00    +0.021 C 
ATOM      6  C   UNL     1      -1.106   2.869   0.707  0.00  0.00    -0.008 C 
ATOM      7  C   UNL     1      -0.314   2.190   1.826  0.00  0.00    +0.007 C 
ATOM      8  C   UNL     1      -0.326   0.675   1.613  0.00  0.00    -0.008 C 
ATOM      9  C   UNL     1       0.314   0.345   0.263  0.00  0.00    +0.021 C 
ATOM     10  C   UNL     1      -1.769   0.169   1.631  0.00  0.00    +0.029 C 
ATOM     11  C   UNL     1      -2.562   0.847   0.512  0.00  0.00    +0.036 C 
ATOM     12  C   UNL     1      -2.550   2.362   0.725  0.00  0.00    +0.029 C 
ATOM     13  C   UNL     1      -1.922   0.517  -0.839  0.00  0.00    +0.043 C 
BRANCH  11  14
ATOM     14  N   UNL     1      -3.944   0.362   0.529  0.00  0.00    -0.310 N 
ATOM     15  C   UNL     1      -4.708   0.543   1.624  0.00  0.00    +0.210 C 
ATOM     16  O   UNL     1      -4.251   1.107   2.596  0.00  0.00    -0.276 OA
ATOM     17  C   UNL     1      -6.130   0.044   1.642  0.00  0.00    +0.109 C 
ATOM     18  H   UNL     1      -4.358  -0.149  -0.352  0.00  0.00    +0.149 HD
ENDBRANCH  11  14
ENDBRANCH   2   4
ENDBRANCH   1   2
BRANCH   1  19
ATOM     19  C   UNL     1       1.965   0.705  -3.732  0.00  0.00    +0.328 C 
BRANCH  19  24
ATOM     20  N   UNL     1       6.090   1.171  -6.157  0.00  0.00    -0.269 N 
ATOM     21  C   UNL     1       5.381   1.384  -5.031  0.00  0.00    +0.310 C 
ATOM     22  O   UNL     1       5.893   1.956  -4.089  0.00  0.00    -0.252 OA
ATOM     23  N   UNL     1       4.103   0.963  -4.950  0.00  0.00    -0.237 N 
ATOM     24  C   UNL     1       3.394   1.176  -3.824  0.00  0.00    +0.258 C 
ATOM     25  O   UNL     1       3.905   1.746  -2.884  0.00  0.00    -0.272 OA
ATOM     26  H   UNL     1       5.657   0.578  -6.976  0.00  0.00    +0.156 HD
ATOM     27  H   UNL     1       3.639   0.445  -5.802  0.00  0.00    +0.159 HD
BRANCH  20  32
ATOM     28  C   UNL     1      11.309   3.333  -6.674  0.00  0.00    +0.044 C 
ATOM     29  C   UNL     1       9.923   2.759  -6.537  0.00  0.00    -0.047 A 
ATOM     30  C   UNL     1       8.959   3.445  -5.820  0.00  0.00    +0.005 A 
ATOM     31  C   UNL     1       7.686   2.924  -5.698  0.00  0.00    +0.023 A 
ATOM     32  C   UNL     1       7.377   1.704  -6.285  0.00  0.00    +0.035 A 
ATOM     33  C   UNL     1       8.347   1.018  -7.004  0.00  0.00    +0.027 A 
ATOM     34  C   UNL     1       9.617   1.547  -7.128  0.00  0.00    -0.046 A 
ATOM     35  C   UNL     1      10.670   0.802  -7.907  0.00  0.00    +0.044 C 
ENDBRANCH  20  32
ENDBRANCH  19  24
ENDBRANCH   1  19
TORSDOF 6
