REMARK  Name = ZINC32071514
REMARK  2 active torsions:
REMARK  status: ('A' for Active; 'I' for Inactive)
REMARK    1  A    between atoms: C_4  and  C_7
REMARK    2  A    between atoms: C_11  and  C_12
REMARK                            x       y       z     vdW  Elec       q    Type
REMARK                         _______ _______ _______ _____ _____    ______ ____
ROOT
ATOM      1  C   UNL     1       3.697  -0.686  -0.038  0.00  0.00    +0.025 A 
ATOM      2  C   UNL     1       4.091  -1.471  -1.120  0.00  0.00    +0.054 A 
ATOM      3  C   UNL     1       5.309  -2.092  -1.022  0.00  0.00    +0.032 A 
ATOM      4  S   UNL     1       5.933  -1.653   0.458  0.00  0.00    -0.083 S 
ATOM      5  C   UNL     1       4.601  -0.614   1.029  0.00  0.00    +0.110 A 
ATOM      6  C   UNL     1       5.895  -2.978  -2.075  0.00  0.00    +0.115 C 
ATOM      7  C   UNL     1       4.762  -3.634  -2.865  0.00  0.00    +0.122 C 
ATOM      8  C   UNL     1       3.671  -2.644  -3.155  0.00  0.00    +0.219 C 
ATOM      9  O   UNL     1       3.075  -2.732  -4.208  0.00  0.00    -0.275 OA
ATOM     10  N   UNL     1       3.322  -1.664  -2.303  0.00  0.00    -0.284 N 
ATOM     11  C   UNL     1       6.813  -2.224  -2.983  0.00  0.00    -0.006 A 
ATOM     12  C   UNL     1       6.594  -1.149  -3.817  0.00  0.00    +0.009 A 
ATOM     13  C   UNL     1       7.684  -0.678  -4.540  0.00  0.00    +0.039 A 
ATOM     14  C   UNL     1       8.931  -1.264  -4.425  0.00  0.00    +0.125 A 
ATOM     15  C   UNL     1       9.159  -2.346  -3.586  0.00  0.00    +0.062 A 
ATOM     16  C   UNL     1       8.071  -2.827  -2.856  0.00  0.00    +0.041 A 
ATOM     17  N   UNL     1       8.012  -3.878  -1.958  0.00  0.00    -0.284 N 
ATOM     18  C   UNL     1       6.773  -4.041  -1.449  0.00  0.00    +0.233 C 
ATOM     19  O   UNL     1       6.428  -4.879  -0.644  0.00  0.00    -0.274 OA
ATOM     20  F   UNL     1       9.958  -0.768  -5.149  0.00  0.00    -0.205 F 
ATOM     21  H   UNL     1       2.558  -1.097  -2.491  0.00  0.00    +0.155 HD
ATOM     22  H   UNL     1       8.772  -4.433  -1.721  0.00  0.00    +0.155 HD
ENDROOT
BRANCH   1  26
ATOM     23  C   UNL     1      -0.017   1.379   0.010  0.00  0.00    +0.000 A 
ATOM     24  C   UNL     1       1.169   2.093   0.002  0.00  0.00    +0.001 A 
ATOM     25  C   UNL     1       2.377   1.428  -0.013  0.00  0.00    +0.008 A 
ATOM     26  C   UNL     1       2.403   0.034  -0.021  0.00  0.00    -0.015 A 
ATOM     27  C   UNL     1       1.204  -0.680  -0.013  0.00  0.00    +0.008 A 
ATOM     28  C   UNL     1       0.002  -0.004   0.002  0.00  0.00    +0.001 A 
ENDBRANCH   1  26
BRANCH   5  29
ATOM     29  C   UNL     1       4.486   0.098   2.245  0.00  0.00    +0.394 C 
ATOM     30  O   UNL     1       3.485   0.768   2.471  0.00  0.00    -0.240 OA
ATOM     31  O   UNL     1       5.388   0.044   3.074  0.00  0.00    -0.240 OA
ENDBRANCH   5  29
TORSDOF 2
