REMARK  Name = ZINC66174398
REMARK  5 active torsions:
REMARK  status: ('A' for Active; 'I' for Inactive)
REMARK    1  A    between atoms: C_4  and  C_7
REMARK    2  A    between atoms: C_7  and  C_8
REMARK    3  A    between atoms: C_7  and  N_14
REMARK    4  A    between atoms: C_20  and  N_23
REMARK    5  A    between atoms: C_24  and  C_26
REMARK                            x       y       z     vdW  Elec       q    Type
REMARK                         _______ _______ _______ _____ _____    ______ ____
ROOT
ATOM      1  N   UNL     1       3.612  -1.865  -0.929  0.00  0.00    -0.288 N 
ATOM      2  C   UNL     1       4.721  -2.370  -1.504  0.00  0.00    +0.303 C 
ATOM      3  O   UNL     1       5.791  -1.812  -1.355  0.00  0.00    -0.253 OA
ATOM      4  N   UNL     1       4.644  -3.494  -2.244  0.00  0.00    -0.286 N 
ATOM      5  C   UNL     1       3.344  -4.115  -2.530  0.00  0.00    +0.111 C 
ATOM      6  C   UNL     1       3.396  -5.587  -2.107  0.00  0.00    +0.041 C 
ATOM      7  C   UNL     1       4.582  -6.269  -2.792  0.00  0.00    +0.076 C 
ATOM      8  C   UNL     1       5.884  -5.593  -2.354  0.00  0.00    +0.041 C 
ATOM      9  C   UNL     1       5.859  -4.119  -2.785  0.00  0.00    +0.111 C 
ATOM     10  H   UNL     1       2.747  -2.267  -1.108  0.00  0.00    +0.151 HD
ENDROOT
BRANCH   7  11
ATOM     11  N   UNL     1       4.616  -7.684  -2.416  0.00  0.00    -0.312 N 
ATOM     12  C   UNL     1       5.206  -8.583  -3.228  0.00  0.00    +0.216 C 
ATOM     13  O   UNL     1       5.709  -8.221  -4.270  0.00  0.00    -0.276 OA
ATOM     14  H   UNL     1       4.213  -7.974  -1.583  0.00  0.00    +0.149 HD
BRANCH  12  15
ATOM     15  C   UNL     1       5.241 -10.039  -2.841  0.00  0.00    +0.075 C 
ATOM     16  C   UNL     1       3.949 -10.799  -3.186  0.00  0.00    +0.013 C 
ATOM     17  C   UNL     1       4.580 -11.094  -4.556  0.00  0.00    +0.001 C 
ATOM     18  C   UNL     1       5.949 -10.934  -3.872  0.00  0.00    +0.013 C 
ENDBRANCH  12  15
ENDBRANCH   7  11
BRANCH   1  19
ATOM     19  C   UNL     1       3.712  -0.709  -0.036  0.00  0.00    +0.135 C 
BRANCH  19  23
ATOM     20  C   UNL     1      -0.016   1.377   0.015  0.00  0.00    +0.000 A 
ATOM     21  C   UNL     1       1.172   2.084   0.008  0.00  0.00    +0.000 A 
ATOM     22  C   UNL     1       2.378   1.409  -0.008  0.00  0.00    +0.006 A 
ATOM     23  C   UNL     1       2.397   0.027  -0.017  0.00  0.00    -0.023 A 
ATOM     24  C   UNL     1       1.209  -0.680  -0.009  0.00  0.00    +0.006 A 
ATOM     25  C   UNL     1       0.003  -0.005   0.006  0.00  0.00    +0.000 A 
ENDBRANCH  19  23
BRANCH  19  26
ATOM     26  C   UNL     1       4.045  -1.178   1.357  0.00  0.00    -0.023 A 
ATOM     27  C   UNL     1       3.456  -2.323   1.860  0.00  0.00    +0.006 A 
ATOM     28  C   UNL     1       3.761  -2.753   3.138  0.00  0.00    +0.000 A 
ATOM     29  C   UNL     1       4.655  -2.038   3.913  0.00  0.00    +0.000 A 
ATOM     30  C   UNL     1       5.244  -0.893   3.410  0.00  0.00    +0.000 A 
ATOM     31  C   UNL     1       4.942  -0.466   2.130  0.00  0.00    +0.006 A 
ENDBRANCH  19  26
ENDBRANCH   1  19
TORSDOF 5
