REMARK  Name = ZINC39710241
REMARK  9 active torsions:
REMARK  status: ('A' for Active; 'I' for Inactive)
REMARK    1  A    between atoms: C_1  and  C_2
REMARK    2  A    between atoms: C_9  and  C_14
REMARK    3  A    between atoms: C_14  and  C_16
REMARK    4  A    between atoms: C_14  and  N_27
REMARK    5  A    between atoms: N_21  and  C_22
REMARK    6  A    between atoms: N_27  and  C_28
REMARK    7  A    between atoms: N_27  and  C_35
REMARK    8  A    between atoms: C_28  and  C_29
REMARK    9  A    between atoms: C_35  and  C_36
REMARK                            x       y       z     vdW  Elec       q    Type
REMARK                         _______ _______ _______ _____ _____    ______ ____
ROOT
ATOM      1  C   UNL     1       1.267  -4.953   2.937  0.00  0.00    -0.008 C 
ENDROOT
BRANCH   1  10
ATOM      2  C   UNL     1      -2.330  -6.929  -2.909  0.00  0.00    +0.044 C 
ATOM      3  C   UNL     1      -2.231  -6.544  -1.455  0.00  0.00    -0.050 A 
ATOM      4  C   UNL     1      -3.237  -6.942  -0.573  0.00  0.00    +0.005 A 
ATOM      5  C   UNL     1      -3.216  -6.633   0.750  0.00  0.00    +0.024 A 
ATOM      6  C   UNL     1      -2.155  -5.884   1.292  0.00  0.00    +0.040 A 
ATOM      7  N   UNL     1      -2.145  -5.588   2.591  0.00  0.00    -0.285 N 
ATOM      8  C   UNL     1      -1.181  -4.888   3.165  0.00  0.00    +0.223 C 
ATOM      9  O   UNL     1      -1.226  -4.649   4.357  0.00  0.00    -0.275 OA
ATOM     10  C   UNL     1      -0.021  -4.388   2.334  0.00  0.00    +0.088 C 
ATOM     11  C   UNL     1      -0.027  -4.723   0.855  0.00  0.00    -0.006 C 
ATOM     12  C   UNL     1      -1.079  -5.451   0.384  0.00  0.00    -0.007 A 
ATOM     13  C   UNL     1      -1.162  -5.823  -1.029  0.00  0.00    +0.012 A 
ATOM     14  H   UNL     1      -2.880  -5.900   3.142  0.00  0.00    +0.155 HD
ENDBRANCH   1  10
BRANCH   1  15
ATOM     15  C   UNL     1       2.461  -4.526   2.080  0.00  0.00    +0.205 C 
ATOM     16  N   UNL     1       3.715  -5.013   2.670  0.00  0.00    -0.152 NA
ATOM     17  N   UNL     1       4.425  -4.046   2.953  0.00  0.00    -0.070 NA
ATOM     18  N   UNL     1       3.831  -2.825   2.634  0.00  0.00    -0.179 N 
ATOM     19  N   UNL     1       2.595  -3.054   2.080  0.00  0.00    -0.185 NA
ATOM     20  H   UNL     1       4.228  -1.952   2.779  0.00  0.00    +0.191 HD
BRANCH  19  21
ATOM     21  C   UNL     1       2.521  -2.519   0.714  0.00  0.00    +0.080 C 
ATOM     22  C   UNL     1       3.755  -2.966  -0.097  0.00  0.00    +0.021 C 
ATOM     23  C   UNL     1       4.090  -1.742  -0.985  0.00  0.00    +0.002 C 
ATOM     24  C   UNL     1       3.803  -0.547  -0.043  0.00  0.00    +0.002 C 
ATOM     25  C   UNL     1       2.551  -0.981   0.748  0.00  0.00    +0.021 C 
ENDBRANCH  19  21
ENDBRANCH   1  15
BRANCH   1  26
ATOM     26  N   UNL     1       1.189  -6.419   2.972  0.00  0.00    +0.392 N 
ATOM     27  H   UNL     1       0.266  -6.700   3.268  0.00  0.00    -0.080 HD
BRANCH  26  28
ATOM     28  C   UNL     1       1.458  -6.956   1.632  0.00  0.00    -0.040 C 
BRANCH  28  29
ATOM     29  C   UNL     1       1.262  -8.451   1.641  0.00  0.00    -0.046 A 
ATOM     30  C   UNL     1       2.320  -9.296   1.941  0.00  0.00    +0.005 A 
ATOM     31  C   UNL     1       2.093 -10.663   1.937  0.00  0.00    +0.020 A 
ATOM     32  C   UNL     1       0.830 -11.136   1.636  0.00  0.00    +0.111 A 
ATOM     33  N   UNL     1      -0.152 -10.303   1.355  0.00  0.00    -0.263 NA
ATOM     34  C   UNL     1       0.025  -8.996   1.355  0.00  0.00    +0.112 A 
ENDBRANCH  28  29
ENDBRANCH  26  28
BRANCH  26  35
ATOM     35  C   UNL     1       2.185  -6.940   3.917  0.00  0.00    -0.002 C 
BRANCH  35  36
ATOM     36  C   UNL     1       1.841  -6.484   5.312  0.00  0.00    +0.089 A 
ATOM     37  C   UNL     1       1.133  -7.185   6.216  0.00  0.00    +0.042 A 
ATOM     38  C   UNL     1       1.049  -6.386   7.379  0.00  0.00    +0.041 A 
ATOM     39  C   UNL     1       1.711  -5.244   7.117  0.00  0.00    +0.195 A 
ATOM     40  O   UNL     1       2.193  -5.312   5.865  0.00  0.00    -0.470 OA
ENDBRANCH  35  36
ENDBRANCH  26  35
ENDBRANCH   1  26
TORSDOF 8
