REMARK  Name = ZINC37264068
REMARK  14 active torsions:
REMARK  status: ('A' for Active; 'I' for Inactive)
REMARK    1  A    between atoms: C_1  and  C_2
REMARK    2  A    between atoms: C_7  and  N_8
REMARK    3  A    between atoms: C_11  and  C_13
REMARK    4  A    between atoms: C_13  and  C_14
REMARK    5  A    between atoms: C_13  and  C_15
REMARK    6  A    between atoms: C_13  and  C_16
REMARK    7  A    between atoms: C_17  and  C_33
REMARK    8  A    between atoms: N_23  and  C_24
REMARK    9  A    between atoms: C_24  and  C_25
REMARK   10  A    between atoms: N_27  and  C_28
REMARK   11  A    between atoms: C_28  and  C_29
REMARK   12  A    between atoms: C_29  and  C_30
REMARK   13  A    between atoms: C_30  and  O_31
REMARK   14  A    between atoms: O_31  and  C_32
REMARK                            x       y       z     vdW  Elec       q    Type
REMARK                         _______ _______ _______ _____ _____    ______ ____
ROOT
ATOM      1  N   UNL     1      -0.221   1.073   1.602  0.00  0.00    -0.217 N 
ATOM      2  C   UNL     1      -1.268   0.529   2.267  0.00  0.00    +0.136 A 
ATOM      3  C   UNL     1      -1.231   0.974   3.544  0.00  0.00    +0.034 A 
ATOM      4  C   UNL     1      -0.126   1.816   3.674  0.00  0.00    +0.075 A 
ATOM      5  N   UNL     1       0.485   1.873   2.514  0.00  0.00    -0.169 NA
ATOM      6  C   UNL     1      -2.230   0.608   4.612  0.00  0.00    +0.118 C 
ATOM      7  S   UNL     1      -1.923  -1.120   5.129  0.00  0.00    -0.138 S 
ATOM      8  C   UNL     1      -1.576  -1.934   3.534  0.00  0.00    +0.166 C 
ATOM      9  C   UNL     1      -2.523  -1.452   2.476  0.00  0.00    +0.231 C 
ATOM     10  O   UNL     1      -3.546  -2.066   2.256  0.00  0.00    -0.274 OA
ATOM     11  N   UNL     1      -2.244  -0.349   1.774  0.00  0.00    -0.246 N 
ENDROOT
BRANCH   1  18
ATOM     12  C   UNL     1       2.046  -0.534   0.986  0.00  0.00    +0.046 C 
ATOM     13  C   UNL     1       1.199   0.093  -0.091  0.00  0.00    -0.025 A 
ATOM     14  C   UNL     1       1.510  -0.109  -1.421  0.00  0.00    +0.005 A 
ATOM     15  C   UNL     1       0.734   0.467  -2.410  0.00  0.00    +0.000 A 
ATOM     16  C   UNL     1      -0.357   1.246  -2.071  0.00  0.00    +0.002 A 
ATOM     17  C   UNL     1      -0.674   1.452  -0.742  0.00  0.00    +0.028 A 
ATOM     18  C   UNL     1       0.101   0.871   0.253  0.00  0.00    +0.070 A 
ENDBRANCH   1  18
BRANCH   6  19
ATOM     19  C   UNL     1      -2.069   1.530   5.793  0.00  0.00    +0.007 A 
ATOM     20  C   UNL     1      -1.185   1.457   6.819  0.00  0.00    +0.012 A 
ATOM     21  C   UNL     1      -1.220   2.426   7.804  0.00  0.00    +0.008 A 
ATOM     22  C   UNL     1      -2.137   3.420   7.715  0.00  0.00    +0.045 A 
ATOM     23  S   UNL     1      -2.987   3.006   6.201  0.00  0.00    -0.100 S 
ENDBRANCH   6  19
BRANCH   4  24
ATOM     24  C   UNL     1       0.297   2.531   4.931  0.00  0.00    +0.007 C 
ATOM     25  C   UNL     1       0.718   1.505   5.985  0.00  0.00    +0.017 C 
ATOM     26  C   UNL     1       1.477   3.455   4.620  0.00  0.00    +0.017 C 
ATOM     27  C   UNL     1      -0.873   3.360   5.464  0.00  0.00    +0.017 C 
ENDBRANCH   4  24
BRANCH  11  28
ATOM     28  C   UNL     1      -2.941  -0.065   0.517  0.00  0.00    +0.210 C 
BRANCH  28  29
ATOM     29  C   UNL     1      -2.254  -0.786  -0.614  0.00  0.00    +0.231 C 
ATOM     30  O   UNL     1      -1.316  -1.520  -0.383  0.00  0.00    -0.274 OA
ATOM     31  N   UNL     1      -2.680  -0.615  -1.880  0.00  0.00    -0.314 N 
ATOM     32  H   UNL     1      -3.393   0.015  -2.071  0.00  0.00    +0.149 HD
BRANCH  31  33
ATOM     33  C   UNL     1      -2.068  -1.381  -2.969  0.00  0.00    +0.106 C 
BRANCH  33  34
ATOM     34  C   UNL     1      -2.643  -0.912  -4.308  0.00  0.00    +0.047 C 
BRANCH  34  35
ATOM     35  C   UNL     1      -2.003  -1.712  -5.445  0.00  0.00    +0.161 C 
BRANCH  35  36
ATOM     36  O   UNL     1      -2.540  -1.274  -6.695  0.00  0.00    -0.383 OA
ATOM     37  C   UNL     1      -2.006  -1.961  -7.829  0.00  0.00    +0.193 C 
ENDBRANCH  35  36
ENDBRANCH  34  35
ENDBRANCH  33  34
ENDBRANCH  31  33
ENDBRANCH  28  29
ENDBRANCH  11  28
TORSDOF 9
