REMARK  Name = ZINC32734110
REMARK  13 active torsions:
REMARK  status: ('A' for Active; 'I' for Inactive)
REMARK    1  A    between atoms: C_1  and  C_2
REMARK    2  A    between atoms: C_2  and  C_3
REMARK    3  A    between atoms: C_6  and  C_9
REMARK    4  A    between atoms: C_9  and  C_11
REMARK    5  A    between atoms: C_9  and  N_31
REMARK    6  A    between atoms: C_11  and  N_12
REMARK    7  A    between atoms: C_13  and  C_15
REMARK    8  A    between atoms: C_15  and  N_16
REMARK    9  A    between atoms: C_19  and  C_23
REMARK   10  A    between atoms: C_19  and  C_24
REMARK   11  A    between atoms: C_27  and  C_30
REMARK   12  A    between atoms: N_31  and  C_32
REMARK   13  A    between atoms: N_31  and  C_33
REMARK                            x       y       z     vdW  Elec       q    Type
REMARK                         _______ _______ _______ _____ _____    ______ ____
ROOT
ATOM      1  N   UNL     1      -4.344   0.744   1.746  0.00  0.00    -0.315 N 
ATOM      2  C   UNL     1      -4.898   0.817   2.972  0.00  0.00    +0.231 C 
ATOM      3  O   UNL     1      -4.242   1.214   3.912  0.00  0.00    -0.274 OA
ATOM      4  H   UNL     1      -4.938   0.383   0.894  0.00  0.00    +0.149 HD
ENDROOT
BRANCH   1   5
ATOM      5  C   UNL     1      -2.949   1.145   1.548  0.00  0.00    +0.093 C 
BRANCH   5   6
ATOM      6  C   UNL     1      -2.571   0.967   0.076  0.00  0.00    -0.021 C 
BRANCH   6  10
ATOM      7  C   UNL     1       1.377   2.463  -0.577  0.00  0.00    -0.048 A 
ATOM      8  C   UNL     1       1.040   1.192  -1.005  0.00  0.00    +0.004 A 
ATOM      9  C   UNL     1      -0.237   0.707  -0.790  0.00  0.00    +0.002 A 
ATOM     10  C   UNL     1      -1.177   1.494  -0.152  0.00  0.00    -0.059 A 
ATOM     11  C   UNL     1      -0.839   2.762   0.281  0.00  0.00    +0.002 A 
ATOM     12  C   UNL     1       0.438   3.247   0.067  0.00  0.00    +0.004 A 
BRANCH   7  14
ATOM     13  C   UNL     1       2.821   3.711  -2.160  0.00  0.00    +0.009 C 
ATOM     14  C   UNL     1       2.768   2.992  -0.810  0.00  0.00    +0.032 C 
ENDBRANCH   7  14
ENDBRANCH   6  10
BRANCH   6  15
ATOM     15  N   UNL     1      -3.519   1.708  -0.766  0.00  0.00    +0.382 N 
ATOM     16  C   UNL     1      -3.511   3.139  -0.434  0.00  0.00    -0.096 C 
ATOM     17  C   UNL     1      -3.233   1.497  -2.192  0.00  0.00    -0.096 C 
ATOM     18  H   UNL     1      -4.527   1.319  -0.562  0.00  0.00    -0.082 HD
ENDBRANCH   6  15
ENDBRANCH   5   6
ENDBRANCH   1   5
BRANCH   2  19
ATOM     19  C   UNL     1      -6.333   0.404   3.176  0.00  0.00    +0.213 C 
BRANCH  19  20
ATOM     20  N   UNL     1      -6.695   0.575   4.585  0.00  0.00    -0.215 N 
ATOM     21  C   UNL     1      -7.212   1.707   5.102  0.00  0.00    +0.251 C 
ATOM     22  O   UNL     1      -7.456   2.737   4.511  0.00  0.00    -0.272 OA
ATOM     23  C   UNL     1      -7.426   1.424   6.576  0.00  0.00    +0.135 C 
ATOM     24  N   UNL     1      -6.960   0.035   6.733  0.00  0.00    -0.281 N 
ATOM     25  C   UNL     1      -6.558  -0.376   5.517  0.00  0.00    +0.310 C 
ATOM     26  O   UNL     1      -6.117  -1.485   5.290  0.00  0.00    -0.252 OA
ATOM     27  C   UNL     1      -8.908   1.543   6.938  0.00  0.00    +0.047 C 
ATOM     28  H   UNL     1      -6.994  -0.448   7.721  0.00  0.00    +0.152 HD
BRANCH  23  29
ATOM     29  C   UNL     1      -6.599   2.359   7.420  0.00  0.00    -0.015 A 
ATOM     30  C   UNL     1      -6.298   3.626   6.956  0.00  0.00    +0.006 A 
ATOM     31  C   UNL     1      -5.543   4.485   7.733  0.00  0.00    +0.004 A 
ATOM     32  C   UNL     1      -5.082   4.074   8.969  0.00  0.00    -0.050 A 
ATOM     33  C   UNL     1      -5.379   2.806   9.431  0.00  0.00    +0.004 A 
ATOM     34  C   UNL     1      -6.137   1.948   8.657  0.00  0.00    +0.006 A 
ATOM     35  C   UNL     1      -4.255   5.009   9.814  0.00  0.00    +0.044 C 
ENDBRANCH  23  29
ENDBRANCH  19  20
ENDBRANCH   2  19
TORSDOF 8
