REMARK  Name = ZINC36158877
REMARK  13 active torsions:
REMARK  status: ('A' for Active; 'I' for Inactive)
REMARK    1  A    between atoms: C_1  and  C_2
REMARK    2  A    between atoms: C_2  and  C_3
REMARK    3  A    between atoms: C_2  and  C_4
REMARK    4  A    between atoms: C_4  and  O_5
REMARK    5  A    between atoms: O_5  and  C_6
REMARK    6  A    between atoms: C_6  and  C_7
REMARK    7  A    between atoms: C_7  and  C_9
REMARK    8  A    between atoms: C_7  and  O_32
REMARK    9  A    between atoms: C_9  and  N_10
REMARK   10  A    between atoms: N_10  and  C_11
REMARK   11  A    between atoms: N_10  and  C_17
REMARK   12  A    between atoms: C_11  and  C_12
REMARK   13  A    between atoms: C_17  and  C_18
REMARK                            x       y       z     vdW  Elec       q    Type
REMARK                         _______ _______ _______ _____ _____    ______ ____
ROOT
ATOM      1  N   UNL     1      -3.720  -6.154  -0.462  0.00  0.00    +0.391 N 
ATOM      2  H   UNL     1      -3.252  -6.603   0.311  0.00  0.00    -0.080 HD
ENDROOT
BRANCH   1   3
ATOM      3  C   UNL     1      -3.915  -4.731  -0.155  0.00  0.00    -0.044 C 
BRANCH   3   4
ATOM      4  C   UNL     1      -4.595  -4.592   1.208  0.00  0.00    +0.124 C 
BRANCH   4   5
ATOM      5  O   UNL     1      -5.938  -5.073   1.122  0.00  0.00    -0.391 OA
ATOM      6  H   UNL     1      -6.485  -4.600   0.481  0.00  0.00    +0.210 HD
ENDBRANCH   4   5
BRANCH   4   7
ATOM      7  C   UNL     1      -4.607  -3.119   1.625  0.00  0.00    +0.189 C 
BRANCH   7   8
ATOM      8  O   UNL     1      -5.137  -3.002   2.947  0.00  0.00    -0.377 OA
BRANCH   8   9
ATOM      9  C   UNL     1      -5.192  -1.660   3.434  0.00  0.00    +0.163 C 
BRANCH   9  11
ATOM     10  C   UNL     1      -5.716  -0.236   5.419  0.00  0.00    +0.009 C 
ATOM     11  C   UNL     1      -5.772  -1.655   4.850  0.00  0.00    +0.009 C 
ATOM     12  C   UNL     1      -7.225  -2.131   4.808  0.00  0.00    +0.009 C 
ENDBRANCH   9  11
ENDBRANCH   8   9
ENDBRANCH   7   8
ENDBRANCH   4   7
ENDBRANCH   3   4
ENDBRANCH   1   3
BRANCH   1  13
ATOM     13  C   UNL     1      -2.900  -6.285  -1.674  0.00  0.00    -0.002 C 
BRANCH  13  14
ATOM     14  C   UNL     1      -1.514  -5.762  -1.402  0.00  0.00    +0.089 A 
ATOM     15  C   UNL     1      -0.452  -6.501  -1.031  0.00  0.00    +0.042 A 
ATOM     16  C   UNL     1       0.636  -5.610  -0.887  0.00  0.00    +0.041 A 
ATOM     17  C   UNL     1       0.175  -4.381  -1.178  0.00  0.00    +0.195 A 
ATOM     18  O   UNL     1      -1.126  -4.479  -1.495  0.00  0.00    -0.470 OA
ENDBRANCH  13  14
ENDBRANCH   1  13
BRANCH   1  19
ATOM     19  C   UNL     1      -5.025  -6.791  -0.681  0.00  0.00    -0.003 C 
BRANCH  19  20
ATOM     20  C   UNL     1      -4.836  -8.276  -0.853  0.00  0.00    +0.094 A 
ATOM     21  N   UNL     1      -5.920  -9.064  -1.075  0.00  0.00    -0.312 N 
ATOM     22  H   UNL     1      -6.800  -8.660  -1.119  0.00  0.00    +0.170 HD
ATOM     23  C   UNL     1      -5.797 -10.396  -1.234  0.00  0.00    +0.260 A 
ATOM     24  O   UNL     1      -6.778 -11.091  -1.432  0.00  0.00    -0.267 OA
ATOM     25  C   UNL     1      -4.490 -10.980  -1.166  0.00  0.00    +0.075 A 
ATOM     26  C   UNL     1      -4.122 -12.396  -1.309  0.00  0.00    -0.023 A 
ATOM     27  C   UNL     1      -2.816 -12.698  -1.203  0.00  0.00    -0.004 A 
ATOM     28  S   UNL     1      -2.007 -11.141  -0.914  0.00  0.00    -0.073 S 
ATOM     29  C   UNL     1      -3.434 -10.089  -0.934  0.00  0.00    +0.116 A 
ATOM     30  N   UNL     1      -3.633  -8.781  -0.792  0.00  0.00    -0.229 NA
ATOM     31  C   UNL     1      -2.559 -14.173  -1.361  0.00  0.00    +0.043 C 
ATOM     32  C   UNL     1      -3.941 -14.831  -1.155  0.00  0.00    +0.010 C 
ATOM     33  C   UNL     1      -4.895 -13.693  -1.567  0.00  0.00    +0.037 C 
ENDBRANCH  19  20
ENDBRANCH   1  19
TORSDOF 11
