REMARK  Name = ZINC64605637
REMARK  6 active torsions:
REMARK  status: ('A' for Active; 'I' for Inactive)
REMARK    1  A    between atoms: C_1  and  C_2
REMARK    2  A    between atoms: C_7  and  C_12
REMARK    3  A    between atoms: C_12  and  N_13
REMARK    4  A    between atoms: C_14  and  C_16
REMARK    5  A    between atoms: C_16  and  N_17
REMARK    6  A    between atoms: C_24  and  C_27
REMARK                            x       y       z     vdW  Elec       q    Type
REMARK                         _______ _______ _______ _____ _____    ______ ____
ROOT
ATOM      1  C   UNL     1      -4.933  -4.270   0.687  0.00  0.00    +0.219 C 
ENDROOT
BRANCH   1   2
ATOM      2  N   UNL     1      -6.018  -4.968   1.381  0.00  0.00    -0.257 N 
ATOM      3  C   UNL     1      -6.344  -4.773   2.721  0.00  0.00    +0.050 A 
ATOM      4  C   UNL     1      -5.787  -3.942   3.689  0.00  0.00    +0.025 A 
ATOM      5  C   UNL     1      -6.300  -3.932   4.970  0.00  0.00    +0.002 A 
ATOM      6  C   UNL     1      -7.369  -4.745   5.301  0.00  0.00    +0.000 A 
ATOM      7  C   UNL     1      -7.927  -5.574   4.343  0.00  0.00    +0.007 A 
ATOM      8  C   UNL     1      -7.417  -5.586   3.064  0.00  0.00    +0.002 A 
ATOM      9  C   UNL     1      -7.787  -6.355   1.818  0.00  0.00    +0.190 C 
ATOM     10  N   UNL     1      -6.836  -5.885   0.793  0.00  0.00    -0.223 NA
ATOM     11  H   UNL     1      -7.321  -5.484   0.004  0.00  0.00    +0.146 HD
BRANCH   9  12
ATOM     12  C   UNL     1      -7.631  -7.836   2.049  0.00  0.00    +0.239 C 
ATOM     13  O   UNL     1      -6.580  -8.383   1.792  0.00  0.00    -0.273 OA
ATOM     14  N   UNL     1      -8.662  -8.553   2.539  0.00  0.00    -0.300 N 
ATOM     15  C   UNL     1     -10.019  -8.046   2.785  0.00  0.00    +0.108 C 
ATOM     16  C   UNL     1     -10.845  -9.210   3.370  0.00  0.00    +0.020 C 
ATOM     17  C   UNL     1      -9.757 -10.152   3.949  0.00  0.00    +0.020 C 
ATOM     18  C   UNL     1      -8.615  -9.979   2.913  0.00  0.00    +0.108 C 
ENDBRANCH   9  12
ENDBRANCH   1   2
BRANCH   1  20
ATOM     19  N   UNL     1      -2.523  -4.614   0.250  0.00  0.00    -0.310 N 
ATOM     20  C   UNL     1      -3.660  -5.067   0.814  0.00  0.00    +0.232 C 
ATOM     21  O   UNL     1      -3.660  -6.115   1.423  0.00  0.00    -0.274 OA
ATOM     22  H   UNL     1      -2.523  -3.776  -0.237  0.00  0.00    +0.149 HD
BRANCH  19  23
ATOM     23  C   UNL     1      -1.286  -5.389   0.373  0.00  0.00    +0.151 C 
BRANCH  23  30
ATOM     24  C   UNL     1      -0.393   1.148  -1.977  0.00  0.00    +0.044 C 
ATOM     25  C   UNL     1      -0.428  -0.358  -1.949  0.00  0.00    -0.048 A 
ATOM     26  C   UNL     1      -0.740  -1.048  -3.134  0.00  0.00    +0.005 A 
ATOM     27  C   UNL     1      -0.794  -2.394  -3.199  0.00  0.00    +0.027 A 
ATOM     28  C   UNL     1      -0.518  -3.189  -1.994  0.00  0.00    +0.060 A 
ATOM     29  N   UNL     1      -0.498  -4.470  -1.765  0.00  0.00    -0.362 N 
ATOM     30  C   UNL     1      -0.153  -4.659  -0.351  0.00  0.00    +0.191 C 
ATOM     31  N   UNL     1       0.026  -3.316   0.215  0.00  0.00    -0.362 N 
ATOM     32  C   UNL     1      -0.186  -2.458  -0.741  0.00  0.00    +0.060 A 
ATOM     33  C   UNL     1      -0.152  -0.990  -0.791  0.00  0.00    +0.030 A 
ATOM     34  H   UNL     1      -0.678  -5.171  -2.411  0.00  0.00    +0.162 HD
ATOM     35  H   UNL     1       0.259  -3.107   1.133  0.00  0.00    +0.162 HD
ENDBRANCH  23  30
ENDBRANCH  19  23
ENDBRANCH   1  20
TORSDOF 5
