REMARK  Name = ZINC01408457
REMARK  4 active torsions:
REMARK  status: ('A' for Active; 'I' for Inactive)
REMARK    1  A    between atoms: C_1  and  O_2
REMARK    2  A    between atoms: O_2  and  C_3
REMARK    3  A    between atoms: C_3  and  C_5
REMARK    4  A    between atoms: N_7  and  C_18
REMARK                            x       y       z     vdW  Elec       q    Type
REMARK                         _______ _______ _______ _____ _____    ______ ____
ROOT
ATOM      1  C   UNL     1      -0.017   1.376   0.010  0.00  0.00    +0.101 A 
ATOM      2  C   UNL     1       0.002  -0.004   0.002  0.00  0.00    +0.106 A 
ATOM      3  N   UNL     1       1.169  -0.677  -0.013  0.00  0.00    -0.310 N 
ATOM      4  C   UNL     1       2.358  -0.050  -0.021  0.00  0.00    +0.277 A 
ATOM      5  O   UNL     1       3.386  -0.708  -0.035  0.00  0.00    -0.265 OA
ATOM      6  C   UNL     1       2.433   1.353  -0.014  0.00  0.00    +0.131 A 
ATOM      7  C   UNL     1       1.261   2.092   0.001  0.00  0.00    +0.086 A 
ATOM      8  N   UNL     1       1.614   3.421   0.005  0.00  0.00    -0.333 N 
ATOM      9  H   UNL     1       0.999   4.171   0.014  0.00  0.00    +0.168 HD
ATOM     10  C   UNL     1       2.959   3.508  -0.008  0.00  0.00    +0.156 A 
ATOM     11  S   UNL     1       3.858   4.965  -0.009  0.00  0.00    -0.013 S 
ATOM     12  N   UNL     1       3.485   2.267  -0.019  0.00  0.00    -0.330 N 
ATOM     13  H   UNL     1       4.430   2.049  -0.030  0.00  0.00    +0.168 HD
ENDROOT
BRANCH   3  14
ATOM     14  C   UNL     1       1.141  -2.142  -0.021  0.00  0.00    +0.090 C 
ATOM     15  C   UNL     1       0.398  -2.631  -1.266  0.00  0.00    +0.025 C 
ATOM     16  C   UNL     1       0.369  -4.160  -1.274  0.00  0.00    +0.002 C 
ATOM     17  C   UNL     1      -0.350  -4.664  -0.021  0.00  0.00    +0.000 C 
ATOM     18  C   UNL     1       0.393  -4.175   1.224  0.00  0.00    +0.002 C 
ATOM     19  C   UNL     1       0.422  -2.645   1.232  0.00  0.00    +0.025 C 
ENDBRANCH   3  14
BRANCH   1  20
ATOM     20  C   UNL     1      -1.291   2.111   0.020  0.00  0.00    +0.342 C 
ATOM     21  O   UNL     1      -2.344   1.502   0.021  0.00  0.00    -0.245 OA
BRANCH  20  23
ATOM     22  C   UNL     1      -2.586   4.117   0.037  0.00  0.00    +0.280 C 
ATOM     23  O   UNL     1      -1.292   3.458   0.027  0.00  0.00    -0.464 OA
ENDBRANCH  20  23
ENDBRANCH   1  20
TORSDOF 3
