REMARK  Name = ZINC13091615
REMARK  8 active torsions:
REMARK  status: ('A' for Active; 'I' for Inactive)
REMARK    1  A    between atoms: C_1  and  C_2
REMARK    2  A    between atoms: C_2  and  C_3
REMARK    3  A    between atoms: C_3  and  C_5
REMARK    4  A    between atoms: C_3  and  N_12
REMARK    5  A    between atoms: N_12  and  C_13
REMARK    6  A    between atoms: C_16  and  S_21
REMARK    7  A    between atoms: C_18  and  C_19
REMARK    8  A    between atoms: S_21  and  N_24
REMARK                            x       y       z     vdW  Elec       q    Type
REMARK                         _______ _______ _______ _____ _____    ______ ____
ROOT
ATOM      1  C   UNL     1      -2.703   3.042   3.935  0.00  0.00    +0.042 A 
ATOM      2  C   UNL     1      -1.788   3.870   3.295  0.00  0.00    +0.025 A 
ATOM      3  C   UNL     1      -1.184   3.460   2.125  0.00  0.00    +0.030 A 
ATOM      4  C   UNL     1      -1.491   2.226   1.572  0.00  0.00    +0.106 A 
ATOM      5  C   UNL     1      -2.394   1.391   2.191  0.00  0.00    +0.045 A 
ATOM      6  C   UNL     1      -3.011   1.790   3.381  0.00  0.00    +0.086 A 
ENDROOT
BRANCH   6   7
ATOM      7  C   UNL     1      -3.978   0.901   4.048  0.00  0.00    +0.388 C 
ATOM      8  O   UNL     1      -4.434   1.206   5.132  0.00  0.00    -0.241 OA
ATOM      9  O   UNL     1      -4.356  -0.249   3.456  0.00  0.00    -0.241 OA
ENDBRANCH   6   7
BRANCH   4  10
ATOM     10  S   UNL     1      -0.714   1.720   0.073  0.00  0.00    +0.061 S 
ATOM     11  O   UNL     1      -0.753   0.300   0.055  0.00  0.00    -0.153 OA
ATOM     12  O   UNL     1       0.501   2.450  -0.021  0.00  0.00    -0.153 OA
BRANCH  10  13
ATOM     13  N   UNL     1      -1.674   2.236  -1.173  0.00  0.00    -0.172 NA
ATOM     14  C   UNL     1      -2.744   1.380  -1.710  0.00  0.00    +0.137 C 
ATOM     15  C   UNL     1      -4.040   2.205  -1.754  0.00  0.00    +0.177 C 
ATOM     16  O   UNL     1      -3.794   3.427  -2.455  0.00  0.00    -0.377 OA
ATOM     17  C   UNL     1      -2.832   4.278  -1.827  0.00  0.00    +0.177 C 
ATOM     18  C   UNL     1      -1.478   3.561  -1.782  0.00  0.00    +0.137 C 
ENDBRANCH  10  13
ENDBRANCH   4  10
BRANCH   1  19
ATOM     19  N   UNL     1      -3.308   3.451   5.116  0.00  0.00    -0.336 N 
ATOM     20  H   UNL     1      -3.883   2.840   5.602  0.00  0.00    +0.147 HD
BRANCH  19  21
ATOM     21  C   UNL     1      -3.076   4.804   5.627  0.00  0.00    +0.100 C 
BRANCH  21  22
ATOM     22  C   UNL     1      -4.072   5.752   5.010  0.00  0.00    -0.027 A 
ATOM     23  C   UNL     1      -5.384   5.354   4.828  0.00  0.00    +0.006 A 
ATOM     24  C   UNL     1      -6.299   6.224   4.266  0.00  0.00    +0.015 A 
ATOM     25  C   UNL     1      -5.900   7.489   3.876  0.00  0.00    +0.018 A 
ATOM     26  C   UNL     1      -4.587   7.885   4.053  0.00  0.00    +0.015 A 
ATOM     27  C   UNL     1      -3.673   7.016   4.619  0.00  0.00    +0.006 A 
ATOM     28 BR   UNL     1      -7.150   8.678   3.101  0.00  0.00    -0.050 Br
ENDBRANCH  21  22
BRANCH  21  30
ATOM     29  C   UNL     1      -2.141   3.959   7.784  0.00  0.00    +0.006 C 
ATOM     30  C   UNL     1      -3.242   4.810   7.148  0.00  0.00    +0.023 C 
ENDBRANCH  21  30
ENDBRANCH  19  21
ENDBRANCH   1  19
TORSDOF 7
