REMARK  Name = ZINC45900647
REMARK  8 active torsions:
REMARK  status: ('A' for Active; 'I' for Inactive)
REMARK    1  A    between atoms: C_1  and  C_2
REMARK    2  A    between atoms: C_2  and  C_3
REMARK    3  A    between atoms: C_6  and  C_23
REMARK    4  A    between atoms: C_8  and  S_9
REMARK    5  A    between atoms: S_9  and  N_12
REMARK    6  A    between atoms: N_12  and  C_13
REMARK    7  A    between atoms: C_16  and  N_19
REMARK    8  A    between atoms: C_20  and  C_22
REMARK                            x       y       z     vdW  Elec       q    Type
REMARK                         _______ _______ _______ _____ _____    ______ ____
ROOT
ATOM      1  C   UNL     1       0.093  -1.402   1.532  0.00  0.00    -0.021 A 
ATOM      2  C   UNL     1       1.445  -1.695   1.570  0.00  0.00    +0.006 A 
ATOM      3  C   UNL     1       1.964  -2.433   2.614  0.00  0.00    +0.010 A 
ATOM      4  C   UNL     1       1.125  -2.883   3.631  0.00  0.00    +0.004 A 
ATOM      5  C   UNL     1      -0.236  -2.585   3.588  0.00  0.00    +0.039 A 
ATOM      6  C   UNL     1      -0.744  -1.841   2.541  0.00  0.00    +0.112 A 
ENDROOT
BRANCH   4   7
ATOM      7  C   UNL     1       1.677  -3.678   4.755  0.00  0.00    +0.095 A 
ATOM      8  C   UNL     1       2.642  -3.100   5.621  0.00  0.00    -0.011 A 
ATOM      9  C   UNL     1       3.119  -3.853   6.640  0.00  0.00    +0.024 A 
ATOM     10  C   UNL     1       2.634  -5.176   6.773  0.00  0.00    +0.268 A 
ATOM     11  O   UNL     1       3.042  -5.893   7.673  0.00  0.00    -0.266 OA
ATOM     12  N   UNL     1       1.720  -5.639   5.901  0.00  0.00    -0.242 N 
ATOM     13  H   UNL     1       1.390  -6.546   5.999  0.00  0.00    +0.192 HD
ATOM     14  N   UNL     1       1.268  -4.908   4.947  0.00  0.00    -0.171 NA
ATOM     15  C   UNL     1       4.128  -3.345   7.631  0.00  0.00    +0.041 C 
ATOM     16  C   UNL     1       4.834  -2.103   7.088  0.00  0.00    +0.005 C 
ATOM     17  C   UNL     1       3.768  -1.110   6.609  0.00  0.00    +0.005 C 
ATOM     18  C   UNL     1       3.092  -1.689   5.366  0.00  0.00    +0.038 C 
ENDBRANCH   4   7
BRANCH   6  19
ATOM     19  S   UNL     1      -2.462  -1.458   2.488  0.00  0.00    +0.073 S 
ATOM     20  O   UNL     1      -3.055  -2.089   3.615  0.00  0.00    -0.150 OA
ATOM     21  O   UNL     1      -2.560  -0.059   2.260  0.00  0.00    -0.150 OA
BRANCH  19  22
ATOM     22  N   UNL     1      -3.088  -2.200   1.147  0.00  0.00    -0.216 N 
ATOM     23  H   UNL     1      -3.417  -1.667   0.406  0.00  0.00    +0.174 HD
BRANCH  22  24
ATOM     24  C   UNL     1      -3.143  -3.597   1.081  0.00  0.00    +0.048 A 
ATOM     25  C   UNL     1      -2.036  -4.353   1.445  0.00  0.00    +0.026 A 
ATOM     26  C   UNL     1      -2.089  -5.731   1.381  0.00  0.00    +0.025 A 
ATOM     27  C   UNL     1      -3.250  -6.361   0.952  0.00  0.00    +0.033 A 
ATOM     28  C   UNL     1      -4.356  -5.606   0.587  0.00  0.00    +0.025 A 
ATOM     29  C   UNL     1      -4.305  -4.228   0.658  0.00  0.00    +0.026 A 
BRANCH  27  30
ATOM     30  N   UNL     1      -3.304  -7.760   0.886  0.00  0.00    -0.286 N 
ATOM     31  C   UNL     1      -2.638  -8.504   1.792  0.00  0.00    +0.214 C 
ATOM     32  O   UNL     1      -2.059  -7.964   2.711  0.00  0.00    -0.276 OA
ATOM     33  C   UNL     1      -2.614 -10.005   1.663  0.00  0.00    +0.109 C 
ATOM     34  H   UNL     1      -3.820  -8.193   0.188  0.00  0.00    +0.155 HD
ENDBRANCH  27  30
ENDBRANCH  22  24
ENDBRANCH  19  22
ENDBRANCH   6  19
BRANCH   1  36
ATOM     35  C   UNL     1      -0.391   0.894   0.730  0.00  0.00    +0.009 C 
ATOM     36  C   UNL     1      -0.468  -0.595   0.389  0.00  0.00    +0.034 C 
ENDBRANCH   1  36
TORSDOF 6
