REMARK  Name = ZINC22277328
REMARK  10 active torsions:
REMARK  status: ('A' for Active; 'I' for Inactive)
REMARK    1  A    between atoms: C_1  and  C_2
REMARK    2  A    between atoms: C_2  and  C_3
REMARK    3  A    between atoms: C_3  and  C_4
REMARK    4  A    between atoms: C_4  and  C_5
REMARK    5  A    between atoms: C_5  and  C_7
REMARK    6  A    between atoms: C_5  and  N_23
REMARK    7  A    between atoms: N_9  and  C_10
REMARK    8  A    between atoms: C_10  and  C_11
REMARK    9  A    between atoms: C_16  and  C_17
REMARK   10  A    between atoms: C_17  and  N_18
REMARK                            x       y       z     vdW  Elec       q    Type
REMARK                         _______ _______ _______ _____ _____    ______ ____
ROOT
ATOM      1  C   UNL     1       4.707   4.633  -0.017  0.00  0.00    +0.158 C 
ENDROOT
BRANCH   1   2
ATOM      2  N   UNL     1       3.598   3.675  -0.012  0.00  0.00    -0.316 N 
ATOM      3  C   UNL     1       2.297   4.128   0.003  0.00  0.00    +0.150 C 
ATOM      4  N   UNL     1       2.045   5.398   0.012  0.00  0.00    -0.113 NA
ATOM      5  S   UNL     1       0.377   5.534   0.029  0.00  0.00    +0.101 S 
ATOM      6  O   UNL     1      -0.024   6.089  -1.216  0.00  0.00    -0.146 OA
ATOM      7  O   UNL     1      -0.002   6.075   1.287  0.00  0.00    -0.146 OA
ATOM      8  C   UNL     1      -0.067   3.819   0.023  0.00  0.00    +0.123 A 
ATOM      9  C   UNL     1       1.177   3.173   0.008  0.00  0.00    +0.043 A 
ATOM     10  C   UNL     1       1.177   1.770   0.000  0.00  0.00    +0.013 A 
ATOM     11  C   UNL     1      -0.013   1.076   0.008  0.00  0.00    +0.001 A 
ATOM     12  C   UNL     1      -1.226   1.741   0.017  0.00  0.00    +0.002 A 
ATOM     13  C   UNL     1      -1.244   3.129   0.031  0.00  0.00    +0.030 A 
ATOM     14  H   UNL     1       3.804   2.595  -0.019  0.00  0.00    +0.148 HD
ENDBRANCH   1   2
BRANCH   1  15
ATOM     15  C   UNL     1       5.923   3.990  -0.632  0.00  0.00    +0.234 C 
ATOM     16  O   UNL     1       5.869   2.845  -1.027  0.00  0.00    -0.274 OA
ATOM     17  N   UNL     1       7.071   4.688  -0.742  0.00  0.00    -0.310 N 
ATOM     18  H   UNL     1       7.120   5.726  -0.384  0.00  0.00    +0.149 HD
BRANCH  17  19
ATOM     19  C   UNL     1       8.253   4.063  -1.340  0.00  0.00    +0.139 C 
BRANCH  19  20
ATOM     20  C   UNL     1       9.393   5.048  -1.345  0.00  0.00    -0.029 A 
ATOM     21  C   UNL     1       9.707   5.736  -2.503  0.00  0.00    +0.005 A 
ATOM     22  C   UNL     1      10.750   6.644  -2.506  0.00  0.00    +0.000 A 
ATOM     23  C   UNL     1      11.486   6.855  -1.355  0.00  0.00    +0.000 A 
ATOM     24  C   UNL     1      11.176   6.162  -0.200  0.00  0.00    +0.002 A 
ATOM     25  C   UNL     1      10.130   5.259  -0.195  0.00  0.00    -0.059 A 
BRANCH  25  26
ATOM     26  C   UNL     1       9.792   4.504   1.065  0.00  0.00    -0.043 C 
BRANCH  26  27
ATOM     27  N   UNL     1      10.361   3.152   0.993  0.00  0.00    +0.382 N 
ATOM     28  C   UNL     1      11.810   3.201   0.673  0.00  0.00    -0.078 C 
ATOM     29  C   UNL     1      12.325   1.819   1.150  0.00  0.00    -0.020 C 
ATOM     30  C   UNL     1      11.505   1.569   2.436  0.00  0.00    -0.020 C 
ATOM     31  C   UNL     1      10.258   2.463   2.298  0.00  0.00    -0.078 C 
ATOM     32  H   UNL     1       9.788   2.627   0.214  0.00  0.00    -0.081 HD
ENDBRANCH  26  27
ENDBRANCH  25  26
ENDBRANCH  19  20
ENDBRANCH  17  19
ENDBRANCH   1  15
BRANCH   1  33
ATOM     33  C   UNL     1       5.024   5.053   1.420  0.00  0.00    +0.032 C 
BRANCH  33  34
ATOM     34  C   UNL     1       3.832   5.816   2.002  0.00  0.00    +0.002 C 
BRANCH  34  36
ATOM     35  C   UNL     1       2.958   7.000   4.021  0.00  0.00    +0.004 C 
ATOM     36  C   UNL     1       4.149   6.237   3.439  0.00  0.00    -0.003 C 
ENDBRANCH  34  36
ENDBRANCH  33  34
ENDBRANCH   1  33
TORSDOF 9
