REMARK  Name = ZINC59293509
REMARK  9 active torsions:
REMARK  status: ('A' for Active; 'I' for Inactive)
REMARK    1  A    between atoms: C_1  and  C_2
REMARK    2  A    between atoms: C_5  and  C_8
REMARK    3  A    between atoms: C_14  and  C_29
REMARK    4  A    between atoms: C_15  and  C_22
REMARK    5  A    between atoms: C_17  and  C_20
REMARK    6  A    between atoms: C_18  and  N_19
REMARK    7  A    between atoms: C_25  and  C_28
REMARK    8  A    between atoms: N_31  and  C_32
REMARK    9  A    between atoms: N_31  and  C_33
REMARK                            x       y       z     vdW  Elec       q    Type
REMARK                         _______ _______ _______ _____ _____    ______ ____
ROOT
ATOM      1  C   UNL     1       0.733  -4.204  -0.073  0.00  0.00    +0.028 C 
ATOM      2  C   UNL     1       0.773  -4.895   1.093  0.00  0.00    +0.079 A 
ATOM      3  C   UNL     1       0.909  -4.397   2.468  0.00  0.00    +0.271 A 
ATOM      4  O   UNL     1       1.007  -3.205   2.692  0.00  0.00    -0.266 OA
ATOM      5  N   UNL     1       0.922  -5.292   3.476  0.00  0.00    -0.257 N 
ATOM      6  C   UNL     1       0.807  -6.628   3.149  0.00  0.00    +0.099 A 
ATOM      7  C   UNL     1       0.805  -7.641   4.054  0.00  0.00    +0.058 C 
ATOM      8  C   UNL     1       0.938  -7.293   5.523  0.00  0.00    +0.100 C 
ATOM      9  C   UNL     1       1.063  -5.816   5.840  0.00  0.00    +0.079 C 
ATOM     10  C   UNL     1       1.048  -4.929   4.822  0.00  0.00    +0.118 C 
ATOM     11  S   UNL     1       0.666  -6.655   1.373  0.00  0.00    -0.065 S 
ENDROOT
BRANCH   1  16
ATOM     12  C   UNL     1       1.823   1.439  -0.109  0.00  0.00    +0.044 C 
ATOM     13  C   UNL     1       1.537  -0.041  -0.100  0.00  0.00    -0.050 A 
ATOM     14  C   UNL     1       0.559  -0.558  -0.932  0.00  0.00    +0.004 A 
ATOM     15  C   UNL     1       0.292  -1.910  -0.929  0.00  0.00    +0.008 A 
ATOM     16  C   UNL     1       1.012  -2.761  -0.083  0.00  0.00    -0.024 A 
ATOM     17  C   UNL     1       1.999  -2.230   0.756  0.00  0.00    +0.008 A 
ATOM     18  C   UNL     1       2.258  -0.876   0.737  0.00  0.00    +0.004 A 
ENDBRANCH   1  16
BRANCH   8  19
ATOM     19  C   UNL     1      -0.272  -7.826   6.246  0.00  0.00    -0.035 A 
ATOM     20  C   UNL     1      -1.526  -7.319   5.961  0.00  0.00    +0.005 A 
ATOM     21  C   UNL     1      -2.636  -7.808   6.624  0.00  0.00    +0.003 A 
ATOM     22  C   UNL     1      -2.492  -8.804   7.571  0.00  0.00    -0.050 A 
ATOM     23  C   UNL     1      -1.238  -9.312   7.855  0.00  0.00    +0.003 A 
ATOM     24  C   UNL     1      -0.129  -8.826   7.189  0.00  0.00    +0.005 A 
ATOM     25  C   UNL     1      -3.703  -9.337   8.294  0.00  0.00    +0.044 C 
ENDBRANCH   8  19
BRANCH   7  26
ATOM     26  C   UNL     1       0.682  -8.977   3.639  0.00  0.00    +0.246 C 
ATOM     27  O   UNL     1      -0.406  -9.526   3.666  0.00  0.00    -0.270 OA
ATOM     28  N   UNL     1       1.767  -9.652   3.210  0.00  0.00    -0.304 N 
ATOM     29  C   UNL     1       1.623 -11.010   2.679  0.00  0.00    +0.132 C 
ATOM     30  C   UNL     1       3.091  -9.027   3.275  0.00  0.00    +0.132 C 
ENDBRANCH   7  26
BRANCH  10  31
ATOM     31  N   UNL     1       1.162  -3.594   5.125  0.00  0.00    -0.343 N 
ATOM     32  H   UNL     1       0.714  -2.931   4.576  0.00  0.00    +0.144 HD
ATOM     33  H   UNL     1       1.691  -3.313   5.888  0.00  0.00    +0.144 HD
ENDBRANCH  10  31
BRANCH   9  34
ATOM     34  C   UNL     1       1.194  -5.370   7.195  0.00  0.00    +0.099 C 
ATOM     35  N   UNL     1       1.299  -5.017   8.269  0.00  0.00    -0.191 NA
ENDBRANCH   9  34
TORSDOF 5
