REMARK  Name = ZINC66643497
REMARK  5 active torsions:
REMARK  status: ('A' for Active; 'I' for Inactive)
REMARK    1  A    between atoms: C_4  and  C_7
REMARK    2  A    between atoms: C_19  and  C_21
REMARK    3  A    between atoms: N_23  and  C_24
REMARK    4  A    between atoms: C_24  and  C_25
REMARK    5  A    between atoms: N_27  and  C_28
REMARK                            x       y       z     vdW  Elec       q    Type
REMARK                         _______ _______ _______ _____ _____    ______ ____
ROOT
ATOM      1  C   UNL     1       3.696  -0.685  -0.037  0.00  0.00    +0.247 C 
ATOM      2  O   UNL     1       4.735  -0.064  -0.147  0.00  0.00    -0.270 OA
ATOM      3  N   UNL     1       3.720  -2.029   0.057  0.00  0.00    -0.283 N 
ATOM      4  C   UNL     1       4.905  -2.865   0.163  0.00  0.00    +0.080 C 
ATOM      5  C   UNL     1       6.115  -2.288   0.866  0.00  0.00    +0.023 C 
ATOM      6  C   UNL     1       7.228  -3.347   0.808  0.00  0.00    +0.002 C 
ATOM      7  C   UNL     1       6.779  -4.662   1.438  0.00  0.00    +0.000 C 
ATOM      8  C   UNL     1       5.479  -5.178   0.800  0.00  0.00    +0.005 C 
ATOM      9  C   UNL     1       4.432  -4.087   0.997  0.00  0.00    +0.012 C 
ATOM     10  C   UNL     1       3.079  -4.369   0.325  0.00  0.00    +0.037 C 
ATOM     11  C   UNL     1       2.545  -2.932   0.079  0.00  0.00    +0.163 C 
ENDROOT
BRANCH   1  15
ATOM     12  C   UNL     1      -0.015   1.381   0.048  0.00  0.00    +0.000 A 
ATOM     13  C   UNL     1       0.973   1.776  -0.836  0.00  0.00    +0.001 A 
ATOM     14  C   UNL     1       2.180   1.110  -0.869  0.00  0.00    +0.013 A 
ATOM     15  C   UNL     1       2.404   0.035  -0.007  0.00  0.00    +0.037 A 
ATOM     16  C   UNL     1       1.403  -0.358   0.882  0.00  0.00    +0.013 A 
ATOM     17  C   UNL     1       0.200   0.317   0.905  0.00  0.00    +0.001 A 
ENDBRANCH   1  15
BRANCH  11  18
ATOM     18  C   UNL     1       1.828  -2.874  -1.245  0.00  0.00    +0.234 C 
ATOM     19  O   UNL     1       2.398  -2.442  -2.225  0.00  0.00    -0.274 OA
ATOM     20  N   UNL     1       0.554  -3.303  -1.341  0.00  0.00    -0.305 N 
ATOM     21  H   UNL     1       0.099  -3.648  -0.557  0.00  0.00    +0.149 HD
BRANCH  20  22
ATOM     22  C   UNL     1      -0.143  -3.246  -2.628  0.00  0.00    +0.200 C 
BRANCH  22  23
ATOM     23  C   UNL     1      -1.543  -3.780  -2.466  0.00  0.00    +0.234 C 
ATOM     24  O   UNL     1      -1.921  -4.170  -1.381  0.00  0.00    -0.274 OA
ATOM     25  N   UNL     1      -2.374  -3.825  -3.525  0.00  0.00    -0.282 N 
ATOM     26  H   UNL     1      -2.072  -3.514  -4.393  0.00  0.00    +0.155 HD
BRANCH  25  27
ATOM     27  C   UNL     1      -3.682  -4.324  -3.373  0.00  0.00    +0.071 A 
ATOM     28  C   UNL     1      -4.616  -4.430  -4.352  0.00  0.00    +0.128 A 
ATOM     29  N   UNL     1      -5.737  -4.956  -3.794  0.00  0.00    -0.283 N 
ATOM     30  H   UNL     1      -6.569  -5.145  -4.255  0.00  0.00    +0.188 HD
ATOM     31  N   UNL     1      -5.478  -5.177  -2.436  0.00  0.00    -0.180 NA
ATOM     32  C   UNL     1      -4.249  -4.805  -2.184  0.00  0.00    +0.157 A 
ENDBRANCH  25  27
ENDBRANCH  22  23
ENDBRANCH  20  22
ENDBRANCH  11  18
TORSDOF 5
