REMARK  Name = ZINC39694855
REMARK  9 active torsions:
REMARK  status: ('A' for Active; 'I' for Inactive)
REMARK    1  A    between atoms: C_1  and  C_2
REMARK    2  A    between atoms: C_2  and  N_3
REMARK    3  A    between atoms: C_4  and  C_10
REMARK    4  A    between atoms: C_6  and  C_8
REMARK    5  A    between atoms: C_14  and  C_23
REMARK    6  A    between atoms: N_25  and  C_26
REMARK    7  A    between atoms: C_26  and  C_27
REMARK    8  A    between atoms: C_29  and  C_34
REMARK    9  A    between atoms: C_31  and  C_33
REMARK                            x       y       z     vdW  Elec       q    Type
REMARK                         _______ _______ _______ _____ _____    ______ ____
ROOT
ATOM      1  C   UNL     1      -1.626  -0.652  -2.607  0.00  0.00    +0.266 C 
ATOM      2  O   UNL     1      -2.125  -0.994  -3.662  0.00  0.00    -0.268 OA
ATOM      3  N   UNL     1      -2.408  -0.196  -1.609  0.00  0.00    -0.295 N 
ATOM      4  C   UNL     1      -1.998   0.190  -0.238  0.00  0.00    +0.121 C 
ATOM      5  C   UNL     1      -2.843   1.443   0.085  0.00  0.00    +0.100 C 
ATOM      6  C   UNL     1      -4.072   1.333  -0.833  0.00  0.00    -0.004 C 
ATOM      7  C   UNL     1      -3.871   0.040  -1.635  0.00  0.00    +0.115 C 
ATOM      8  C   UNL     1      -4.135   2.529  -1.778  0.00  0.00    -0.010 C 
ATOM      9  C   UNL     1      -5.396   2.426  -2.640  0.00  0.00    -0.082 C 
ATOM     10  N   UNL     1      -6.582   2.399  -1.775  0.00  0.00    +0.379 N 
ATOM     11  C   UNL     1      -6.560   1.196  -0.934  0.00  0.00    -0.082 C 
ATOM     12  C   UNL     1      -5.348   1.246   0.000  0.00  0.00    -0.010 C 
ATOM     13  H   UNL     1      -6.587   3.219  -1.188  0.00  0.00    -0.086 HD
ATOM     14  H   UNL     1      -7.413   2.393  -2.347  0.00  0.00    -0.086 HD
ENDROOT
BRANCH   1  16
ATOM     15  N   UNL     1       0.533  -1.793  -1.913  0.00  0.00    -0.258 N 
ATOM     16  C   UNL     1      -0.170  -0.736  -2.421  0.00  0.00    +0.138 A 
ATOM     17  C   UNL     1       0.765   0.239  -2.726  0.00  0.00    +0.071 A 
ATOM     18  C   UNL     1       2.001  -0.310  -2.372  0.00  0.00    +0.075 A 
ATOM     19  N   UNL     1       1.786  -1.509  -1.894  0.00  0.00    -0.175 NA
ATOM     20  C   UNL     1       3.343   0.362  -2.510  0.00  0.00    +0.069 C 
ATOM     21 BR   UNL     1       0.440   1.949  -3.465  0.00  0.00    -0.046 Br
BRANCH  15  23
ATOM     22  C   UNL     1      -0.479  -2.915   0.010  0.00  0.00    +0.029 C 
ATOM     23  C   UNL     1      -0.054  -3.054  -1.452  0.00  0.00    +0.141 C 
ENDBRANCH  15  23
ENDBRANCH   1  16
BRANCH   5  24
ATOM     24  C   UNL     1      -2.065   2.696  -0.225  0.00  0.00    +0.218 C 
ATOM     25  O   UNL     1      -1.290   2.713  -1.158  0.00  0.00    -0.275 OA
ATOM     26  N   UNL     1      -2.229   3.796   0.535  0.00  0.00    -0.311 N 
ATOM     27  H   UNL     1      -2.792   3.761   1.325  0.00  0.00    +0.149 HD
BRANCH  26  28
ATOM     28  C   UNL     1      -1.558   5.046   0.169  0.00  0.00    +0.139 C 
BRANCH  28  29
ATOM     29  C   UNL     1      -1.904   6.115   1.174  0.00  0.00    -0.030 A 
ATOM     30  C   UNL     1      -3.013   6.916   0.977  0.00  0.00    +0.008 A 
ATOM     31  C   UNL     1      -3.330   7.896   1.898  0.00  0.00    -0.050 A 
ATOM     32  C   UNL     1      -2.538   8.075   3.017  0.00  0.00    +0.006 A 
ATOM     33  C   UNL     1      -1.430   7.273   3.215  0.00  0.00    -0.050 A 
ATOM     34  C   UNL     1      -1.115   6.290   2.296  0.00  0.00    +0.008 A 
ATOM     35  C   UNL     1      -0.567   7.468   4.435  0.00  0.00    +0.044 C 
ATOM     36  C   UNL     1      -4.538   8.771   1.683  0.00  0.00    +0.044 C 
ENDBRANCH  28  29
ENDBRANCH  26  28
ENDBRANCH   5  24
TORSDOF 5
