REMARK  Name = ZINC59777064
REMARK  6 active torsions:
REMARK  status: ('A' for Active; 'I' for Inactive)
REMARK    1  A    between atoms: C_4  and  N_7
REMARK    2  A    between atoms: C_8  and  C_26
REMARK    3  A    between atoms: C_11  and  S_12
REMARK    4  A    between atoms: S_12  and  C_13
REMARK    5  A    between atoms: C_13  and  C_14
REMARK    6  A    between atoms: C_19  and  N_23
REMARK                            x       y       z     vdW  Elec       q    Type
REMARK                         _______ _______ _______ _____ _____    ______ ____
ROOT
ATOM      1  N   UNL     1       3.643  -0.619  -0.059  0.00  0.00    -0.270 N 
ATOM      2  C   UNL     1       4.076  -1.528  -1.000  0.00  0.00    +0.169 A 
ATOM      3  N   UNL     1       5.248  -1.966  -0.600  0.00  0.00    -0.128 NA
ATOM      4  N   UNL     1       5.573  -1.403   0.508  0.00  0.00    -0.122 NA
ATOM      5  C   UNL     1       4.632  -0.566   0.884  0.00  0.00    +0.197 A 
ENDROOT
BRANCH   2   6
ATOM      6  C   UNL     1       3.358  -1.933  -2.227  0.00  0.00    +0.020 A 
ATOM      7  C   UNL     1       2.323  -1.142  -2.727  0.00  0.00    +0.012 A 
ATOM      8  C   UNL     1       1.657  -1.525  -3.872  0.00  0.00    +0.016 A 
ATOM      9  C   UNL     1       2.013  -2.693  -4.525  0.00  0.00    +0.018 A 
ATOM     10  C   UNL     1       3.039  -3.483  -4.034  0.00  0.00    +0.016 A 
ATOM     11  C   UNL     1       3.716  -3.107  -2.893  0.00  0.00    +0.012 A 
ATOM     12 BR   UNL     1       1.095  -3.212  -6.094  0.00  0.00    -0.050 Br
ENDBRANCH   2   6
BRANCH   1  16
ATOM     13  C   UNL     1       0.071   1.530  -0.092  0.00  0.00    +0.000 A 
ATOM     14  C   UNL     1       1.274   2.189  -0.267  0.00  0.00    +0.002 A 
ATOM     15  C   UNL     1       2.459   1.479  -0.256  0.00  0.00    +0.026 A 
ATOM     16  C   UNL     1       2.442   0.104  -0.070  0.00  0.00    +0.051 A 
ATOM     17  C   UNL     1       1.232  -0.555   0.106  0.00  0.00    +0.026 A 
ATOM     18  C   UNL     1       0.050   0.160   0.094  0.00  0.00    +0.002 A 
ENDBRANCH   1  16
BRANCH   5  19
ATOM     19  S   UNL     1       4.642   0.436   2.334  0.00  0.00    -0.078 S 
BRANCH  19  20
ATOM     20  C   UNL     1       6.219   0.033   3.135  0.00  0.00    +0.151 C 
BRANCH  20  21
ATOM     21  C   UNL     1       6.355   0.833   4.405  0.00  0.00    +0.118 A 
ATOM     22  N   UNL     1       6.895   2.014   4.488  0.00  0.00    -0.232 NA
ATOM     23  C   UNL     1       6.855   2.445   5.775  0.00  0.00    +0.089 A 
ATOM     24  C   UNL     1       7.283   3.611   6.414  0.00  0.00    +0.032 A 
ATOM     25  C   UNL     1       7.099   3.756   7.760  0.00  0.00    +0.035 A 
ATOM     26  C   UNL     1       6.489   2.756   8.503  0.00  0.00    +0.128 A 
ATOM     27  C   UNL     1       6.059   1.596   7.893  0.00  0.00    +0.060 A 
ATOM     28  C   UNL     1       6.237   1.431   6.527  0.00  0.00    +0.068 A 
ATOM     29  N   UNL     1       5.928   0.427   5.631  0.00  0.00    -0.341 N 
ATOM     30  H   UNL     1       5.489  -0.413   5.838  0.00  0.00    +0.167 HD
BRANCH  26  31
ATOM     31  N   UNL     1       6.299   2.934   9.960  0.00  0.00    +0.056 N 
ATOM     32  O   UNL     1       6.675   3.949  10.499  0.00  0.00    -0.126 OA
ATOM     33  O   UNL     1       5.769   2.064  10.611  0.00  0.00    -0.126 OA
ENDBRANCH  26  31
ENDBRANCH  20  21
ENDBRANCH  19  20
ENDBRANCH   5  19
TORSDOF 6
