REMARK  Name = ZINC06878694
REMARK  9 active torsions:
REMARK  status: ('A' for Active; 'I' for Inactive)
REMARK    1  A    between atoms: C_1  and  N_2
REMARK    2  A    between atoms: N_2  and  C_3
REMARK    3  A    between atoms: N_2  and  S_4
REMARK    4  A    between atoms: S_4  and  C_7
REMARK    5  A    between atoms: C_10  and  C_13
REMARK    6  A    between atoms: C_13  and  C_15
REMARK    7  A    between atoms: C_17  and  C_29
REMARK    8  A    between atoms: C_23  and  C_24
REMARK    9  A    between atoms: C_23  and  O_28
REMARK                            x       y       z     vdW  Elec       q    Type
REMARK                         _______ _______ _______ _____ _____    ______ ____
ROOT
ATOM      1  C   UNL     1      -2.806  -2.225  -6.802  0.00  0.00    +0.144 C 
ATOM      2  C   UNL     1      -3.569  -3.352  -7.508  0.00  0.00    +0.120 C 
ATOM      3  N   UNL     1      -3.744  -3.004  -8.919  0.00  0.00    -0.292 N 
ATOM      4  C   UNL     1      -2.859  -2.226  -9.560  0.00  0.00    +0.302 C 
ATOM      5  O   UNL     1      -3.046  -1.975 -10.735  0.00  0.00    -0.253 OA
ATOM      6  N   UNL     1      -1.776  -1.713  -8.956  0.00  0.00    -0.264 N 
ATOM      7  C   UNL     1      -1.486  -1.986  -7.543  0.00  0.00    +0.243 C 
ATOM      8  H   UNL     1      -4.515  -3.343  -9.400  0.00  0.00    +0.151 HD
ATOM      9  H   UNL     1      -1.171  -1.150  -9.464  0.00  0.00    +0.153 HD
ENDROOT
BRANCH   2  10
ATOM     10  C   UNL     1      -4.918  -3.529  -6.860  0.00  0.00    -0.026 A 
ATOM     11  C   UNL     1      -6.009  -2.821  -7.331  0.00  0.00    +0.005 A 
ATOM     12  C   UNL     1      -7.247  -2.983  -6.738  0.00  0.00    +0.000 A 
ATOM     13  C   UNL     1      -7.394  -3.853  -5.673  0.00  0.00    +0.000 A 
ATOM     14  C   UNL     1      -6.304  -4.561  -5.203  0.00  0.00    +0.000 A 
ATOM     15  C   UNL     1      -5.067  -4.402  -5.799  0.00  0.00    +0.005 A 
ENDBRANCH   2  10
BRANCH   7  16
ATOM     16  C   UNL     1      -0.606  -3.232  -7.434  0.00  0.00    +0.436 C 
ATOM     17  F   UNL     1      -1.269  -4.324  -8.005  0.00  0.00    -0.166 F 
ATOM     18  F   UNL     1       0.599  -3.013  -8.111  0.00  0.00    -0.166 F 
ATOM     19  F   UNL     1      -0.341  -3.500  -6.087  0.00  0.00    -0.166 F 
ENDBRANCH   7  16
BRANCH   1  20
ATOM     20  C   UNL     1      -3.633  -0.965  -6.822  0.00  0.00    +0.173 C 
ATOM     21  O   UNL     1      -4.337  -0.717  -7.777  0.00  0.00    -0.292 OA
BRANCH  20  25
ATOM     22  C   UNL     1      -3.497   1.711  -3.533  0.00  0.00    +0.105 A 
ATOM     23  C   UNL     1      -4.302   1.998  -4.622  0.00  0.00    +0.029 A 
ATOM     24  C   UNL     1      -4.351   1.134  -5.695  0.00  0.00    +0.013 A 
ATOM     25  C   UNL     1      -3.586  -0.037  -5.681  0.00  0.00    +0.018 A 
ATOM     26  C   UNL     1      -2.775  -0.320  -4.577  0.00  0.00    +0.013 A 
ATOM     27  C   UNL     1      -2.732   0.557  -3.514  0.00  0.00    +0.029 A 
BRANCH  22  28
ATOM     28  S   UNL     1      -3.441   2.822  -2.167  0.00  0.00    +0.060 S 
ATOM     29  O   UNL     1      -3.028   2.061  -1.041  0.00  0.00    -0.153 OA
ATOM     30  O   UNL     1      -4.660   3.552  -2.187  0.00  0.00    -0.153 OA
BRANCH  28  32
ATOM     31  C   UNL     1      -2.528   5.153  -3.190  0.00  0.00    +0.131 C 
ATOM     32  N   UNL     1      -2.232   3.912  -2.471  0.00  0.00    -0.183 NA
ATOM     33  C   UNL     1      -0.865   3.634  -2.022  0.00  0.00    +0.131 C 
ENDBRANCH  28  32
ENDBRANCH  22  28
ENDBRANCH  20  25
ENDBRANCH   1  20
BRANCH   7  34
ATOM     34  O   UNL     1      -0.809  -0.869  -6.964  0.00  0.00    -0.364 OA
ATOM     35  H   UNL     1       0.036  -0.660  -7.385  0.00  0.00    +0.212 HD
ENDBRANCH   7  34
TORSDOF 7
