REMARK  Name = ZINC17144226
REMARK  6 active torsions:
REMARK  status: ('A' for Active; 'I' for Inactive)
REMARK    1  A    between atoms: C_1  and  C_2
REMARK    2  A    between atoms: C_8  and  C_10
REMARK    3  A    between atoms: C_10  and  C_12
REMARK    4  A    between atoms: C_10  and  N_19
REMARK    5  A    between atoms: C_21  and  C_28
REMARK    6  A    between atoms: C_24  and  C_27
REMARK                            x       y       z     vdW  Elec       q    Type
REMARK                         _______ _______ _______ _____ _____    ______ ____
ROOT
ATOM      1  C   UNL     1      -0.731   1.448   3.687  0.00  0.00    +0.007 C 
ENDROOT
BRANCH   1   9
ATOM      2  C   UNL     1       2.647  -0.409  10.072  0.00  0.00    +0.090 C 
ATOM      3  C   UNL     1       1.999  -0.184   8.730  0.00  0.00    +0.150 A 
ATOM      4  N   UNL     1       1.919  -1.084   7.752  0.00  0.00    -0.205 NA
ATOM      5  C   UNL     1       1.296  -0.559   6.733  0.00  0.00    +0.199 A 
ATOM      6  N   UNL     1       0.943   0.724   7.024  0.00  0.00    -0.170 N 
ATOM      7  N   UNL     1       1.426   0.924   8.344  0.00  0.00    -0.147 NA
ATOM      8  C   UNL     1       0.274   1.428   6.053  0.00  0.00    +0.282 A 
ATOM      9  C   UNL     1      -0.013   0.862   4.875  0.00  0.00    +0.050 A 
ATOM     10  S   UNL     1       0.672  -0.775   5.083  0.00  0.00    -0.050 S 
ATOM     11  O   UNL     1      -0.102   2.714   6.291  0.00  0.00    -0.265 OA
ENDBRANCH   1   9
BRANCH   1  12
ATOM     12  N   UNL     1      -0.001   1.110   2.458  0.00  0.00    +0.388 N 
ATOM     13  C   UNL     1      -0.725   1.580   1.269  0.00  0.00    -0.074 C 
ATOM     14  C   UNL     1      -0.013   1.086   0.008  0.00  0.00    -0.031 C 
ATOM     15  C   UNL     1       1.423   1.617  -0.003  0.00  0.00    +0.003 C 
ATOM     16  C   UNL     1       2.140   1.153   1.268  0.00  0.00    -0.031 C 
ATOM     17  C   UNL     1       1.366   1.645   2.493  0.00  0.00    -0.074 C 
ATOM     18  C   UNL     1       3.558   1.729   1.294  0.00  0.00    +0.005 C 
ATOM     19  C   UNL     1      -0.754   1.593  -1.230  0.00  0.00    +0.005 C 
ATOM     20  H   UNL     1       0.070   0.014   2.395  0.00  0.00    -0.080 HD
ENDBRANCH   1  12
BRANCH   1  21
ATOM     21  C   UNL     1      -2.126   0.883   3.614  0.00  0.00    -0.038 A 
ATOM     22  C   UNL     1      -2.388  -0.209   2.809  0.00  0.00    +0.004 A 
ATOM     23  C   UNL     1      -3.667  -0.731   2.745  0.00  0.00    +0.000 A 
ATOM     24  C   UNL     1      -4.687  -0.153   3.479  0.00  0.00    +0.001 A 
ATOM     25  C   UNL     1      -4.427   0.943   4.280  0.00  0.00    +0.020 A 
ATOM     26  C   UNL     1      -3.146   1.462   4.348  0.00  0.00    +0.043 A 
ATOM     27 CL   UNL     1      -2.819   2.838   5.354  0.00  0.00    -0.083 Cl
ENDBRANCH   1  21
TORSDOF 3
