REMARK  Name = ZINC26129677
REMARK  6 active torsions:
REMARK  status: ('A' for Active; 'I' for Inactive)
REMARK    1  A    between atoms: C_4  and  C_7
REMARK    2  A    between atoms: C_7  and  C_9
REMARK    3  A    between atoms: C_7  and  N_23
REMARK    4  A    between atoms: C_17  and  C_19
REMARK    5  A    between atoms: C_24  and  C_26
REMARK    6  A    between atoms: C_26  and  N_27
REMARK                            x       y       z     vdW  Elec       q    Type
REMARK                         _______ _______ _______ _____ _____    ______ ____
ROOT
ATOM      1  C   UNL     1       3.711  -0.707  -0.038  0.00  0.00    +0.134 C 
ENDROOT
BRANCH   1   2
ATOM      2  C   UNL     1       4.044  -1.175   1.356  0.00  0.00    -0.021 A 
ATOM      3  C   UNL     1       3.450  -2.325   1.857  0.00  0.00    +0.008 A 
ATOM      4  C   UNL     1       3.739  -2.765   3.118  0.00  0.00    +0.030 A 
ATOM      5  C   UNL     1       4.640  -2.054   3.914  0.00  0.00    +0.089 A 
ATOM      6  C   UNL     1       5.241  -0.890   3.408  0.00  0.00    +0.067 A 
ATOM      7  C   UNL     1       4.940  -0.460   2.122  0.00  0.00    +0.033 A 
ATOM      8  N   UNL     1       6.066  -0.420   4.410  0.00  0.00    -0.335 N 
ATOM      9  H   UNL     1       6.623   0.373   4.371  0.00  0.00    +0.167 HD
ATOM     10  C   UNL     1       5.952  -1.275   5.462  0.00  0.00    +0.213 A 
ATOM     11  N   UNL     1       5.119  -2.231   5.173  0.00  0.00    -0.224 NA
BRANCH  10  12
ATOM     12  C   UNL     1       6.686  -1.135   6.771  0.00  0.00    +0.450 C 
ATOM     13  F   UNL     1       6.607  -2.338   7.480  0.00  0.00    -0.163 F 
ATOM     14  F   UNL     1       8.028  -0.827   6.523  0.00  0.00    -0.163 F 
ATOM     15  F   UNL     1       6.104  -0.110   7.524  0.00  0.00    -0.163 F 
ENDBRANCH  10  12
ENDBRANCH   1   2
BRANCH   1  19
ATOM     16  C   UNL     1      -0.017   1.378   0.010  0.00  0.00    +0.000 A 
ATOM     17  C   UNL     1       1.171   2.086   0.002  0.00  0.00    +0.000 A 
ATOM     18  C   UNL     1       2.377   1.411  -0.013  0.00  0.00    +0.006 A 
ATOM     19  C   UNL     1       2.396   0.029  -0.020  0.00  0.00    -0.023 A 
ATOM     20  C   UNL     1       1.208  -0.679  -0.012  0.00  0.00    +0.006 A 
ATOM     21  C   UNL     1       0.002  -0.004   0.002  0.00  0.00    +0.000 A 
ENDBRANCH   1  19
BRANCH   1  22
ATOM     22  N   UNL     1       3.611  -1.865  -0.930  0.00  0.00    -0.303 N 
ATOM     23  C   UNL     1       3.825  -1.716  -2.253  0.00  0.00    +0.232 C 
ATOM     24  O   UNL     1       4.099  -0.624  -2.704  0.00  0.00    -0.274 OA
ATOM     25  H   UNL     1       3.392  -2.738  -0.569  0.00  0.00    +0.150 HD
BRANCH  23  26
ATOM     26  C   UNL     1       3.722  -2.906  -3.171  0.00  0.00    +0.212 C 
BRANCH  26  27
ATOM     27  N   UNL     1       3.995  -2.486  -4.548  0.00  0.00    -0.233 N 
ATOM     28  C   UNL     1       3.029  -2.053  -5.402  0.00  0.00    +0.226 C 
ATOM     29  O   UNL     1       1.890  -1.746  -5.120  0.00  0.00    -0.275 OA
ATOM     30  C   UNL     1       3.658  -2.030  -6.759  0.00  0.00    +0.087 C 
ATOM     31  C   UNL     1       3.233  -0.976  -7.758  0.00  0.00    +0.013 C 
ATOM     32  C   UNL     1       4.091  -1.207  -9.018  0.00  0.00    +0.001 C 
ATOM     33  C   UNL     1       5.582  -1.135  -8.710  0.00  0.00    +0.001 C 
ATOM     34  C   UNL     1       5.983  -2.073  -7.556  0.00  0.00    +0.013 C 
ATOM     35  C   UNL     1       5.132  -1.713  -6.369  0.00  0.00    +0.087 C 
ATOM     36  C   UNL     1       5.241  -2.486  -5.095  0.00  0.00    +0.226 C 
ATOM     37  O   UNL     1       6.237  -3.010  -4.643  0.00  0.00    -0.275 OA
ENDBRANCH  26  27
ENDBRANCH  23  26
ENDBRANCH   1  22
TORSDOF 6
