REMARK  Name = ZINC67316951
REMARK  4 active torsions:
REMARK  status: ('A' for Active; 'I' for Inactive)
REMARK    1  A    between atoms: C_3  and  N_13
REMARK    2  A    between atoms: C_5  and  S_7
REMARK    3  A    between atoms: S_7  and  C_10
REMARK    4  A    between atoms: N_16  and  C_17
REMARK                            x       y       z     vdW  Elec       q    Type
REMARK                         _______ _______ _______ _____ _____    ______ ____
ROOT
ATOM      1  N   UNL     1       3.584   2.124  -0.021  0.00  0.00    -0.269 N 
ATOM      2  C   UNL     1       3.569   3.468  -0.116  0.00  0.00    +0.304 C 
ATOM      3  O   UNL     1       2.510   4.066  -0.103  0.00  0.00    -0.252 OA
ATOM      4  N   UNL     1       4.727   4.149  -0.225  0.00  0.00    -0.294 N 
ATOM      5  H   UNL     1       4.429   1.652   0.046  0.00  0.00    +0.156 HD
ATOM      6  H   UNL     1       5.571   3.672  -0.236  0.00  0.00    +0.151 HD
ENDROOT
BRANCH   4   7
ATOM      7  C   UNL     1       4.710   5.610  -0.329  0.00  0.00    +0.037 C 
ATOM      8  C   UNL     1       3.918   6.025  -1.571  0.00  0.00    +0.029 C 
ATOM      9  C   UNL     1       3.901   7.551  -1.678  0.00  0.00    -0.008 C 
ATOM     10  C   UNL     1       5.336   8.071  -1.791  0.00  0.00    +0.007 C 
ATOM     11  C   UNL     1       6.127   7.656  -0.549  0.00  0.00    -0.008 C 
ATOM     12  C   UNL     1       6.144   6.130  -0.441  0.00  0.00    +0.029 C 
ATOM     13  C   UNL     1       5.466   8.248   0.698  0.00  0.00    +0.007 C 
ATOM     14  C   UNL     1       4.032   7.728   0.811  0.00  0.00    -0.008 C 
ATOM     15  C   UNL     1       3.240   8.143  -0.431  0.00  0.00    +0.007 C 
ATOM     16  C   UNL     1       4.049   6.202   0.918  0.00  0.00    +0.029 C 
ENDBRANCH   4   7
BRANCH   1  19
ATOM     17  C   UNL     1       0.112   1.159  -0.754  0.00  0.00    +0.004 A 
ATOM     18  C   UNL     1       1.298   1.867  -0.757  0.00  0.00    +0.023 A 
ATOM     19  C   UNL     1       2.381   1.409  -0.020  0.00  0.00    +0.037 A 
ATOM     20  C   UNL     1       2.268   0.238   0.719  0.00  0.00    +0.050 A 
ATOM     21  C   UNL     1       1.080  -0.466   0.718  0.00  0.00    +0.096 A 
ATOM     22  C   UNL     1       0.003  -0.006  -0.018  0.00  0.00    +0.027 A 
BRANCH  21  23
ATOM     23  S   UNL     1       0.936  -1.952   1.654  0.00  0.00    +0.058 S 
ATOM     24  O   UNL     1      -0.072  -2.701   0.992  0.00  0.00    -0.164 OA
ATOM     25  O   UNL     1       2.264  -2.450   1.750  0.00  0.00    -0.164 OA
BRANCH  23  26
ATOM     26  C   UNL     1       0.349  -1.419   3.286  0.00  0.00    +0.485 C 
ATOM     27  F   UNL     1       1.278  -0.539   3.852  0.00  0.00    -0.183 F 
ATOM     28  F   UNL     1      -0.884  -0.772   3.150  0.00  0.00    -0.183 F 
ENDBRANCH  23  26
ENDBRANCH  21  23
ENDBRANCH   1  19
TORSDOF 4
