REMARK  Name = ZINC20882853
REMARK  12 active torsions:
REMARK  status: ('A' for Active; 'I' for Inactive)
REMARK    1  A    between atoms: C_1  and  C_2
REMARK    2  A    between atoms: C_2  and  C_3
REMARK    3  A    between atoms: C_2  and  O_4
REMARK    4  A    between atoms: O_4  and  C_5
REMARK    5  A    between atoms: C_6  and  C_13
REMARK    6  A    between atoms: C_10  and  O_11
REMARK    7  A    between atoms: O_11  and  C_12
REMARK    8  A    between atoms: C_18  and  C_23
REMARK    9  A    between atoms: C_26  and  O_31
REMARK   10  A    between atoms: C_27  and  O_29
REMARK   11  A    between atoms: O_29  and  C_30
REMARK   12  A    between atoms: O_31  and  C_32
REMARK                            x       y       z     vdW  Elec       q    Type
REMARK                         _______ _______ _______ _____ _____    ______ ____
ROOT
ATOM      1  C   UNL     1      -5.698  -1.911   0.115  0.00  0.00    +0.140 C 
ATOM      2  C   UNL     1      -4.437  -1.086   0.015  0.00  0.00    +0.037 C 
ATOM      3  C   UNL     1      -3.841  -0.691  -1.123  0.00  0.00    +0.017 C 
ATOM      4  C   UNL     1      -2.556   0.119  -1.077  0.00  0.00    +0.059 C 
ATOM      5  C   UNL     1      -2.550   1.016   0.159  0.00  0.00    +0.032 C 
ATOM      6  C   UNL     1      -2.651   0.111   1.393  0.00  0.00    +0.088 C 
ATOM      7  C   UNL     1      -3.885  -0.730   1.269  0.00  0.00    +0.163 C 
ATOM      8  O   UNL     1      -4.433  -1.121   2.281  0.00  0.00    -0.292 OA
ATOM      9  N   UNL     1      -4.297  -0.960  -2.372  0.00  0.00    -0.316 N 
ATOM     10  C   UNL     1      -4.723  -2.210  -2.808  0.00  0.00    +0.052 A 
ATOM     11  C   UNL     1      -4.062  -2.912  -3.801  0.00  0.00    +0.025 A 
ATOM     12  C   UNL     1      -4.566  -4.132  -4.220  0.00  0.00    +0.002 A 
ATOM     13  C   UNL     1      -5.720  -4.642  -3.653  0.00  0.00    +0.002 A 
ATOM     14  C   UNL     1      -6.372  -3.949  -2.648  0.00  0.00    +0.025 A 
ATOM     15  C   UNL     1      -5.859  -2.738  -2.212  0.00  0.00    +0.049 A 
ATOM     16  N   UNL     1      -6.418  -2.057  -1.132  0.00  0.00    -0.331 N 
ATOM     17  H   UNL     1      -4.349  -0.159  -3.124  0.00  0.00    +0.152 HD
ATOM     18  H   UNL     1      -7.425  -1.628  -1.239  0.00  0.00    +0.147 HD
ENDROOT
BRANCH   1  20
ATOM     19  C   UNL     1      -5.758  -3.697   1.871  0.00  0.00    +0.168 A 
ATOM     20  C   UNL     1      -5.332  -3.283   0.620  0.00  0.00    +0.023 A 
ATOM     21  C   UNL     1      -4.576  -4.131  -0.169  0.00  0.00    +0.009 A 
ATOM     22  C   UNL     1      -4.235  -5.388   0.293  0.00  0.00    +0.004 A 
ATOM     23  C   UNL     1      -4.657  -5.808   1.541  0.00  0.00    +0.049 A 
ATOM     24  C   UNL     1      -5.420  -4.965   2.334  0.00  0.00    +0.162 A 
BRANCH  24  25
ATOM     25  O   UNL     1      -5.836  -5.376   3.562  0.00  0.00    -0.491 OA
ATOM     26  C   UNL     1      -5.451  -6.690   3.971  0.00  0.00    +0.277 C 
ENDBRANCH  24  25
BRANCH  19  27
ATOM     27  O   UNL     1      -6.507  -2.867   2.646  0.00  0.00    -0.485 OA
BRANCH  27  29
ATOM     28  C   UNL     1      -8.486  -3.980   3.473  0.00  0.00    +0.051 C 
ATOM     29  C   UNL     1      -7.926  -2.944   2.496  0.00  0.00    +0.168 C 
ATOM     30  C   UNL     1      -8.545  -1.577   2.793  0.00  0.00    +0.051 C 
ENDBRANCH  27  29
ENDBRANCH  19  27
ENDBRANCH   1  20
BRANCH   5  31
ATOM     31  C   UNL     1      -1.268   1.807   0.210  0.00  0.00    -0.040 A 
ATOM     32  C   UNL     1      -0.052   1.149   0.237  0.00  0.00    +0.008 A 
ATOM     33  C   UNL     1       1.127   1.871   0.278  0.00  0.00    +0.049 A 
ATOM     34  C   UNL     1       1.091   3.256   0.297  0.00  0.00    +0.161 A 
ATOM     35  C   UNL     1      -0.133   3.918   0.275  0.00  0.00    +0.162 A 
ATOM     36  C   UNL     1      -1.311   3.189   0.234  0.00  0.00    +0.053 A 
BRANCH  35  37
ATOM     37  O   UNL     1      -0.173   5.277   0.294  0.00  0.00    -0.491 OA
ATOM     38  C   UNL     1      -1.464   5.888   0.270  0.00  0.00    +0.277 C 
ENDBRANCH  35  37
BRANCH  34  39
ATOM     39  O   UNL     1       2.250   3.967   0.337  0.00  0.00    -0.491 OA
ATOM     40  C   UNL     1       3.468   3.220   0.357  0.00  0.00    +0.277 C 
ENDBRANCH  34  39
ENDBRANCH   5  31
TORSDOF 7
