REMARK  Name = ZINC22607991
REMARK  6 active torsions:
REMARK  status: ('A' for Active; 'I' for Inactive)
REMARK    1  A    between atoms: C_1  and  C_2
REMARK    2  A    between atoms: C_7  and  C_12
REMARK    3  A    between atoms: C_9  and  C_11
REMARK    4  A    between atoms: C_12  and  N_13
REMARK    5  A    between atoms: N_19  and  S_20
REMARK    6  A    between atoms: S_20  and  C_23
REMARK                            x       y       z     vdW  Elec       q    Type
REMARK                         _______ _______ _______ _____ _____    ______ ____
ROOT
ATOM      1  N   UNL     1      -0.718   1.536  -1.145  0.00  0.00    -0.271 NA
ATOM      2  C   UNL     1       0.025   0.975  -0.002  0.00  0.00    +0.193 C 
ATOM      3  N   UNL     1      -0.655   1.414   1.227  0.00  0.00    -0.303 N 
ATOM      4  C   UNL     1      -2.034   1.392   1.250  0.00  0.00    +0.202 C 
ATOM      5  N   UNL     1      -2.719   1.228   0.162  0.00  0.00    -0.303 N 
ATOM      6  C   UNL     1      -2.100   1.039  -1.146  0.00  0.00    +0.193 C 
ATOM      7  N   UNL     1      -2.692   1.547   2.446  0.00  0.00    -0.097 NA
ATOM      8  H   UNL     1      -0.065   1.746   2.094  0.00  0.00    +0.150 HD
ATOM      9  H   UNL     1      -3.815   1.235   0.255  0.00  0.00    +0.150 HD
ENDROOT
BRANCH   7  10
ATOM     10  S   UNL     1      -4.347   1.524   2.490  0.00  0.00    +0.102 S 
ATOM     11  O   UNL     1      -4.720   1.680   3.853  0.00  0.00    -0.146 OA
ATOM     12  O   UNL     1      -4.793   2.410   1.472  0.00  0.00    -0.146 OA
BRANCH  10  13
ATOM     13  C   UNL     1      -4.858  -0.092   2.010  0.00  0.00    +0.113 A 
ATOM     14  C   UNL     1      -5.099  -0.374   0.679  0.00  0.00    +0.030 A 
ATOM     15  C   UNL     1      -5.495  -1.644   0.301  0.00  0.00    +0.022 A 
ATOM     16  C   UNL     1      -5.660  -2.629   1.258  0.00  0.00    +0.041 A 
ATOM     17  C   UNL     1      -5.424  -2.345   2.591  0.00  0.00    +0.022 A 
ATOM     18  C   UNL     1      -5.024  -1.077   2.967  0.00  0.00    +0.030 A 
ATOM     19 CL   UNL     1      -6.163  -4.222   0.785  0.00  0.00    -0.084 Cl
ENDBRANCH  10  13
ENDBRANCH   7  10
BRANCH   1  20
ATOM     20  C   UNL     1      -0.046   1.226  -2.413  0.00  0.00    +0.091 C 
BRANCH  20  26
ATOM     21  C   UNL     1       4.108   1.920  -5.103  0.00  0.00    +0.008 C 
ATOM     22  C   UNL     1       3.381   2.292  -3.809  0.00  0.00    -0.011 C 
ATOM     23  C   UNL     1       3.155   3.805  -3.768  0.00  0.00    +0.003 C 
ATOM     24  C   UNL     1       2.427   4.177  -2.474  0.00  0.00    +0.001 C 
ATOM     25  C   UNL     1       1.078   3.458  -2.423  0.00  0.00    +0.005 C 
ATOM     26  C   UNL     1       1.304   1.945  -2.465  0.00  0.00    +0.006 C 
ATOM     27  C   UNL     1       2.031   1.573  -3.758  0.00  0.00    -0.007 C 
ATOM     28  C   UNL     1       2.257   0.061  -3.800  0.00  0.00    +0.008 C 
ENDBRANCH  20  26
ENDBRANCH   1  20
TORSDOF 4
