REMARK  Name = ZINC36027340
REMARK  11 active torsions:
REMARK  status: ('A' for Active; 'I' for Inactive)
REMARK    1  A    between atoms: C_1  and  C_2
REMARK    2  A    between atoms: C_2  and  N_3
REMARK    3  A    between atoms: N_3  and  C_4
REMARK    4  A    between atoms: N_3  and  C_6
REMARK    5  A    between atoms: C_4  and  C_5
REMARK    6  A    between atoms: C_6  and  C_7
REMARK    7  A    between atoms: C_7  and  N_8
REMARK    8  A    between atoms: C_11  and  C_30
REMARK    9  A    between atoms: N_17  and  S_20
REMARK   10  A    between atoms: S_20  and  C_23
REMARK   11  A    between atoms: C_30  and  C_31
REMARK                            x       y       z     vdW  Elec       q    Type
REMARK                         _______ _______ _______ _____ _____    ______ ____
ROOT
ATOM      1  N   UNL     1       0.799  -4.711  -1.986  0.00  0.00    -0.284 N 
ATOM      2  C   UNL     1       1.592  -5.619  -1.379  0.00  0.00    +0.234 C 
ATOM      3  O   UNL     1       2.542  -5.367  -0.669  0.00  0.00    -0.274 OA
ATOM      4  C   UNL     1       1.097  -7.004  -1.736  0.00  0.00    +0.147 C 
ATOM      5  N   UNL     1      -0.276  -6.793  -2.255  0.00  0.00    -0.285 NA
ATOM      6  C   UNL     1      -0.237  -5.404  -2.757  0.00  0.00    +0.091 C 
ATOM      7  C   UNL     1      -1.594  -4.737  -2.540  0.00  0.00    +0.059 C 
ATOM      8  C   UNL     1      -1.531  -3.287  -3.032  0.00  0.00    +0.113 C 
ATOM      9  N   UNL     1      -1.061  -3.281  -4.424  0.00  0.00    -0.176 NA
ATOM     10  C   UNL     1       0.200  -3.963  -4.748  0.00  0.00    +0.113 C 
ATOM     11  C   UNL     1       0.122  -5.407  -4.241  0.00  0.00    +0.059 C 
ATOM     12  H   UNL     1      -0.486  -7.442  -2.998  0.00  0.00    +0.125 HD
ENDROOT
BRANCH   9  13
ATOM     13  S   UNL     1      -1.935  -2.518  -5.606  0.00  0.00    +0.061 S 
ATOM     14  O   UNL     1      -1.574  -3.131  -6.837  0.00  0.00    -0.153 OA
ATOM     15  O   UNL     1      -3.279  -2.465  -5.147  0.00  0.00    -0.153 OA
BRANCH  13  16
ATOM     16  C   UNL     1      -1.363  -0.854  -5.685  0.00  0.00    +0.107 A 
ATOM     17  C   UNL     1      -1.954   0.118  -4.900  0.00  0.00    +0.028 A 
ATOM     18  C   UNL     1      -1.506   1.425  -4.961  0.00  0.00    +0.003 A 
ATOM     19  C   UNL     1      -0.467   1.760  -5.809  0.00  0.00    +0.020 A 
ATOM     20  C   UNL     1       0.125   0.788  -6.595  0.00  0.00    +0.043 A 
ATOM     21  C   UNL     1      -0.320  -0.521  -6.528  0.00  0.00    +0.048 A 
ATOM     22 CL   UNL     1       1.431   1.208  -7.659  0.00  0.00    -0.083 Cl
ENDBRANCH  13  16
ENDBRANCH   9  13
BRANCH   1  23
ATOM     23  C   UNL     1       0.946  -3.257  -1.883  0.00  0.00    +0.091 C 
BRANCH  23  24
ATOM     24  C   UNL     1       0.187  -2.753  -0.654  0.00  0.00    -0.060 C 
BRANCH  24  25
ATOM     25  N   UNL     1       0.445  -1.318  -0.475  0.00  0.00    +0.380 N 
ATOM     26  H   UNL     1       1.440  -1.156  -0.445  0.00  0.00    -0.082 HD
BRANCH  25  28
ATOM     27  C   UNL     1       0.234   0.907  -1.476  0.00  0.00    -0.017 C 
ATOM     28  C   UNL     1      -0.140  -0.572  -1.597  0.00  0.00    -0.082 C 
ENDBRANCH  25  28
BRANCH  25  29
ATOM     29  C   UNL     1      -0.163  -0.865   0.783  0.00  0.00    -0.082 C 
ATOM     30  C   UNL     1       0.550  -1.529   1.963  0.00  0.00    -0.017 C 
ENDBRANCH  25  29
ENDBRANCH  24  25
ENDBRANCH  23  24
ENDBRANCH   1  23
BRANCH   4  31
ATOM     31  C   UNL     1       1.986  -7.626  -2.814  0.00  0.00    +0.063 C 
BRANCH  31  32
ATOM     32  C   UNL     1       1.528  -9.035  -3.092  0.00  0.00    -0.045 A 
ATOM     33  C   UNL     1       2.055 -10.088  -2.368  0.00  0.00    +0.004 A 
ATOM     34  C   UNL     1       1.635 -11.380  -2.622  0.00  0.00    +0.000 A 
ATOM     35  C   UNL     1       0.688 -11.619  -3.600  0.00  0.00    +0.000 A 
ATOM     36  C   UNL     1       0.160 -10.566  -4.323  0.00  0.00    +0.000 A 
ATOM     37  C   UNL     1       0.577  -9.273  -4.066  0.00  0.00    +0.004 A 
ENDBRANCH  31  32
ENDBRANCH   4  31
TORSDOF 9
