REMARK  Name = ZINC36122605
REMARK  11 active torsions:
REMARK  status: ('A' for Active; 'I' for Inactive)
REMARK    1  A    between atoms: C_1  and  C_2
REMARK    2  A    between atoms: C_5  and  N_8
REMARK    3  A    between atoms: N_11  and  C_12
REMARK    4  A    between atoms: N_11  and  C_16
REMARK    5  A    between atoms: C_12  and  C_13
REMARK    6  A    between atoms: C_16  and  C_17
REMARK    7  A    between atoms: C_27  and  C_29
REMARK    8  A    between atoms: C_29  and  O_30
REMARK    9  A    between atoms: O_30  and  C_31
REMARK   10  A    between atoms: C_34  and  C_38
REMARK   11  A    between atoms: C_36  and  C_37
REMARK                            x       y       z     vdW  Elec       q    Type
REMARK                         _______ _______ _______ _____ _____    ______ ____
ROOT
ATOM      1  C   UNL     1      -0.950  -7.308   2.882  0.00  0.00    +0.234 C 
ATOM      2  O   UNL     1      -1.935  -6.993   2.249  0.00  0.00    -0.274 OA
ATOM      3  N   UNL     1      -1.080  -7.997   4.033  0.00  0.00    -0.289 N 
ATOM      4  C   UNL     1       0.107  -8.379   4.812  0.00  0.00    +0.114 C 
ATOM      5  C   UNL     1       0.206  -9.913   4.820  0.00  0.00    +0.061 C 
ATOM      6  C   UNL     1      -1.156 -10.480   5.052  0.00  0.00    -0.004 A 
ATOM      7  C   UNL     1      -2.356  -9.850   4.932  0.00  0.00    -0.014 A 
ATOM      8  C   UNL     1      -3.493 -10.611   5.199  0.00  0.00    +0.013 A 
ATOM      9  C   UNL     1      -3.368 -11.908   5.563  0.00  0.00    +0.046 A 
ATOM     10  S   UNL     1      -1.595 -12.126   5.545  0.00  0.00    -0.101 S 
ATOM     11  C   UNL     1      -2.411  -8.373   4.530  0.00  0.00    +0.144 C 
ENDROOT
BRANCH   1  12
ATOM     12  C   UNL     1       0.420  -6.929   2.382  0.00  0.00    +0.205 C 
BRANCH  12  16
ATOM     13  N   UNL     1       0.058  -4.170  -0.021  0.00  0.00    -0.269 N 
ATOM     14  C   UNL     1       0.174  -4.849   1.138  0.00  0.00    +0.307 C 
ATOM     15  O   UNL     1       0.172  -4.250   2.196  0.00  0.00    -0.252 OA
ATOM     16  N   UNL     1       0.294  -6.191   1.123  0.00  0.00    -0.276 N 
ATOM     17  H   UNL     1      -0.017  -4.651  -0.860  0.00  0.00    +0.156 HD
BRANCH  13  22
ATOM     18  C   UNL     1       0.010   1.503   0.007  0.00  0.00    +0.044 C 
ATOM     19  C   UNL     1       0.023  -0.004  -0.000  0.00  0.00    -0.050 A 
ATOM     20  C   UNL     1       0.778  -0.692   0.932  0.00  0.00    +0.005 A 
ATOM     21  C   UNL     1       0.792  -2.073   0.927  0.00  0.00    +0.023 A 
ATOM     22  C   UNL     1       0.046  -2.771  -0.014  0.00  0.00    +0.035 A 
ATOM     23  C   UNL     1      -0.711  -2.076  -0.948  0.00  0.00    +0.023 A 
ATOM     24  C   UNL     1      -0.725  -0.696  -0.935  0.00  0.00    +0.005 A 
ENDBRANCH  13  22
BRANCH  16  25
ATOM     25  C   UNL     1       0.297  -6.912  -0.152  0.00  0.00    +0.113 C 
BRANCH  25  26
ATOM     26  C   UNL     1       1.733  -7.035  -0.665  0.00  0.00    +0.006 C 
ATOM     27  C   UNL     1       2.075  -6.337  -1.983  0.00  0.00    +0.005 C 
ATOM     28  C   UNL     1       1.962  -7.862  -1.932  0.00  0.00    +0.005 C 
ENDBRANCH  25  26
ENDBRANCH  16  25
ENDBRANCH  12  16
ENDBRANCH   1  12
BRANCH  11  29
ATOM     29  C   UNL     1      -2.772  -7.514   5.744  0.00  0.00    +0.256 C 
BRANCH  29  30
ATOM     30  O   UNL     1      -1.875  -7.807   6.817  0.00  0.00    -0.490 OA
BRANCH  30  31
ATOM     31  C   UNL     1      -2.060  -7.125   7.978  0.00  0.00    +0.124 A 
ATOM     32  C   UNL     1      -3.086  -6.197   8.084  0.00  0.00    +0.046 A 
ATOM     33  C   UNL     1      -3.272  -5.506   9.265  0.00  0.00    +0.007 A 
ATOM     34  C   UNL     1      -2.436  -5.737  10.342  0.00  0.00    -0.050 A 
ATOM     35  C   UNL     1      -1.412  -6.661  10.239  0.00  0.00    +0.010 A 
ATOM     36  C   UNL     1      -1.226  -7.359   9.062  0.00  0.00    -0.009 A 
ATOM     37  C   UNL     1      -0.113  -8.370   8.952  0.00  0.00    +0.047 C 
ATOM     38  C   UNL     1      -2.640  -4.982  11.630  0.00  0.00    +0.044 C 
ENDBRANCH  30  31
ENDBRANCH  29  30
ENDBRANCH  11  29
TORSDOF 8
