REMARK  Name = ZINC63993855
REMARK  11 active torsions:
REMARK  status: ('A' for Active; 'I' for Inactive)
REMARK    1  A    between atoms: C_1  and  O_2
REMARK    2  A    between atoms: O_2  and  C_3
REMARK    3  A    between atoms: C_3  and  C_4
REMARK    4  A    between atoms: C_4  and  C_5
REMARK    5  A    between atoms: C_5  and  N_6
REMARK    6  A    between atoms: N_9  and  C_29
REMARK    7  A    between atoms: N_15  and  C_18
REMARK    8  A    between atoms: C_18  and  C_19
REMARK    9  A    between atoms: C_29  and  C_30
REMARK   10  A    between atoms: C_33  and  O_36
REMARK   11  A    between atoms: O_36  and  C_37
REMARK                            x       y       z     vdW  Elec       q    Type
REMARK                         _______ _______ _______ _____ _____    ______ ____
ROOT
ATOM      1  N   UNL     1       1.708  -4.379   2.337  0.00  0.00    -0.271 N 
ATOM      2  C   UNL     1       0.871  -5.321   2.813  0.00  0.00    +0.312 C 
ATOM      3  O   UNL     1      -0.130  -5.074   3.455  0.00  0.00    -0.252 OA
ATOM      4  N   UNL     1       1.267  -6.561   2.498  0.00  0.00    -0.220 N 
ATOM      5  C   UNL     1       2.410  -6.550   1.780  0.00  0.00    +0.247 C 
ATOM      6  O   UNL     1       3.015  -7.508   1.349  0.00  0.00    -0.273 OA
ATOM      7  C   UNL     1       2.773  -5.092   1.623  0.00  0.00    +0.112 C 
ATOM      8  C   UNL     1       2.787  -4.700   0.149  0.00  0.00    +0.017 C 
ATOM      9  C   UNL     1       3.206  -3.232   0.020  0.00  0.00    -0.076 C 
ATOM     10  N   UNL     1       4.538  -3.049   0.608  0.00  0.00    +0.381 N 
ATOM     11  C   UNL     1       4.494  -3.339   2.046  0.00  0.00    -0.076 C 
ATOM     12  C   UNL     1       4.129  -4.810   2.262  0.00  0.00    +0.017 C 
ATOM     13  H   UNL     1       5.191  -3.674   0.160  0.00  0.00    -0.082 HD
ENDROOT
BRANCH   1  14
ATOM     14  C   UNL     1       1.577  -2.928   2.496  0.00  0.00    +0.112 C 
BRANCH  14  15
ATOM     15  C   UNL     1       1.751  -2.559   3.970  0.00  0.00    +0.047 C 
BRANCH  15  16
ATOM     16  C   UNL     1       1.740  -1.036   4.119  0.00  0.00    +0.161 C 
BRANCH  16  18
ATOM     17  C   UNL     1       1.907   0.716   5.746  0.00  0.00    +0.193 C 
ATOM     18  O   UNL     1       1.903  -0.691   5.496  0.00  0.00    -0.383 OA
ENDBRANCH  16  18
ENDBRANCH  15  16
ENDBRANCH  14  15
ENDBRANCH   1  14
BRANCH  10  19
ATOM     19  C   UNL     1       4.975  -1.662   0.403  0.00  0.00    -0.050 C 
BRANCH  19  20
ATOM     20  C   UNL     1       5.179  -1.407  -1.092  0.00  0.00    +0.086 C 
ATOM     21  C   UNL     1       5.787  -0.039  -1.309  0.00  0.00    +0.005 C 
ATOM     22  C   UNL     1       6.974  -0.250  -1.923  0.00  0.00    -0.004 A 
ATOM     23  C   UNL     1       8.025   0.660  -2.395  0.00  0.00    +0.010 A 
ATOM     24  C   UNL     1       9.125   0.141  -2.985  0.00  0.00    +0.001 A 
ATOM     25  C   UNL     1       9.287  -1.240  -3.158  0.00  0.00    +0.002 A 
ATOM     26  C   UNL     1       8.366  -2.139  -2.751  0.00  0.00    +0.026 A 
ATOM     27  C   UNL     1       7.169  -1.704  -2.117  0.00  0.00    +0.043 A 
ATOM     28  N   UNL     1       6.141  -2.368  -1.642  0.00  0.00    -0.380 N 
ATOM     29  H   UNL     1       6.035  -3.333  -1.653  0.00  0.00    +0.160 HD
ENDBRANCH  19  20
ENDBRANCH  10  19
BRANCH   4  30
ATOM     30  C   UNL     1       0.549  -7.778   2.885  0.00  0.00    +0.153 C 
BRANCH  30  31
ATOM     31  C   UNL     1      -0.452  -8.132   1.816  0.00  0.00    -0.029 A 
ATOM     32  C   UNL     1      -1.736  -7.624   1.878  0.00  0.00    +0.009 A 
ATOM     33  C   UNL     1      -2.656  -7.948   0.899  0.00  0.00    +0.046 A 
ATOM     34  C   UNL     1      -2.290  -8.782  -0.147  0.00  0.00    +0.120 A 
ATOM     35  C   UNL     1      -1.000  -9.289  -0.208  0.00  0.00    +0.046 A 
ATOM     36  C   UNL     1      -0.083  -8.959   0.771  0.00  0.00    +0.009 A 
BRANCH  34  37
ATOM     37  O   UNL     1      -3.193  -9.102  -1.111  0.00  0.00    -0.495 OA
ATOM     38  C   UNL     1      -2.746  -9.966  -2.158  0.00  0.00    +0.277 C 
ENDBRANCH  34  37
ENDBRANCH  30  31
ENDBRANCH   4  30
TORSDOF 9
