REMARK  Name = ZINC38008998
REMARK  4 active torsions:
REMARK  status: ('A' for Active; 'I' for Inactive)
REMARK    1  A    between atoms: C_3  and  N_9
REMARK    2  A    between atoms: N_9  and  S_10
REMARK    3  A    between atoms: S_10  and  C_13
REMARK    4  A    between atoms: N_19  and  N_20
REMARK                            x       y       z     vdW  Elec       q    Type
REMARK                         _______ _______ _______ _____ _____    ______ ____
ROOT
ATOM      1  S   UNL     1       5.027   1.322   0.086  0.00  0.00    +0.092 S 
ATOM      2  O   UNL     1       5.017   0.635   1.330  0.00  0.00    -0.148 OA
ATOM      3  O   UNL     1       5.210   0.651  -1.153  0.00  0.00    -0.148 OA
ENDROOT
BRANCH   1   4
ATOM      4  C   UNL     1       6.296   2.539   0.192  0.00  0.00    +0.115 A 
ATOM      5  C   UNL     1       6.895   3.042  -0.956  0.00  0.00    +0.046 A 
ATOM      6  C   UNL     1       7.886   3.995  -0.838  0.00  0.00    +0.086 A 
ATOM      7  N   UNL     1       8.268   4.432   0.347  0.00  0.00    -0.349 N 
ATOM      8  C   UNL     1       7.721   3.978   1.464  0.00  0.00    +0.112 A 
ATOM      9  C   UNL     1       6.713   3.020   1.420  0.00  0.00    +0.071 A 
ATOM     10  N   UNL     1       8.154   4.466   2.691  0.00  0.00    -0.269 N 
ATOM     11  H   UNL     1       7.757   4.136   3.512  0.00  0.00    +0.167 HD
ATOM     12  H   UNL     1       8.967   5.103   0.401  0.00  0.00    +0.167 HD
BRANCH  10  13
ATOM     13  N   UNL     1       9.140   5.411   2.741  0.00  0.00    -0.255 NA
ATOM     14  H   UNL     1       8.892   6.222   2.195  0.00  0.00    +0.140 HD
ATOM     15  H   UNL     1       9.348   5.667   3.695  0.00  0.00    +0.140 HD
ENDBRANCH  10  13
ENDBRANCH   1   4
BRANCH   1  16
ATOM     16  N   UNL     1       3.583   2.127  -0.021  0.00  0.00    -0.097 NA
BRANCH  16  19
ATOM     17  C   UNL     1       1.212  -0.682  -0.089  0.00  0.00    +0.040 A 
ATOM     18  C   UNL     1       2.400   0.023  -0.082  0.00  0.00    +0.030 A 
ATOM     19  C   UNL     1       2.382   1.410  -0.029  0.00  0.00    +0.088 A 
ATOM     20  C   UNL     1       1.168   2.086   0.017  0.00  0.00    +0.045 A 
ATOM     21  C   UNL     1      -0.017   1.376   0.009  0.00  0.00    +0.055 A 
ATOM     22  C   UNL     1       0.004  -0.007  -0.044  0.00  0.00    +0.125 A 
ATOM     23  F   UNL     1      -1.156  -0.700  -0.051  0.00  0.00    -0.205 F 
ATOM     24 BR   UNL     1       1.140   3.976   0.090  0.00  0.00    -0.048 Br
ENDBRANCH  16  19
ENDBRANCH   1  16
TORSDOF 4
