REMARK  Name = ZINC39757321
REMARK  11 active torsions:
REMARK  status: ('A' for Active; 'I' for Inactive)
REMARK    1  A    between atoms: C_1  and  C_2
REMARK    2  A    between atoms: C_2  and  C_3
REMARK    3  A    between atoms: C_3  and  N_4
REMARK    4  A    between atoms: C_5  and  C_30
REMARK    5  A    between atoms: C_8  and  S_9
REMARK    6  A    between atoms: S_9  and  C_10
REMARK    7  A    between atoms: C_10  and  C_11
REMARK    8  A    between atoms: N_13  and  C_14
REMARK    9  A    between atoms: C_17  and  S_20
REMARK   10  A    between atoms: S_20  and  C_21
REMARK   11  A    between atoms: C_24  and  N_27
REMARK                            x       y       z     vdW  Elec       q    Type
REMARK                         _______ _______ _______ _____ _____    ______ ____
ROOT
ATOM      1  C   UNL     1      -3.979  -3.274  -3.664  0.00  0.00    +0.227 C 
ATOM      2  O   UNL     1      -4.210  -2.181  -4.138  0.00  0.00    -0.275 OA
ATOM      3  N   UNL     1      -4.939  -4.220  -3.654  0.00  0.00    -0.285 N 
ATOM      4  H   UNL     1      -4.799  -5.047  -3.166  0.00  0.00    +0.155 HD
ENDROOT
BRANCH   3   5
ATOM      5  C   UNL     1      -6.138  -4.010  -4.347  0.00  0.00    +0.033 A 
ATOM      6  C   UNL     1      -6.836  -5.090  -4.871  0.00  0.00    +0.024 A 
ATOM      7  C   UNL     1      -8.017  -4.883  -5.554  0.00  0.00    +0.017 A 
ATOM      8  C   UNL     1      -8.508  -3.593  -5.718  0.00  0.00    +0.013 A 
ATOM      9  C   UNL     1      -7.810  -2.513  -5.193  0.00  0.00    +0.017 A 
ATOM     10  C   UNL     1      -6.631  -2.721  -4.505  0.00  0.00    +0.024 A 
BRANCH   8  11
ATOM     11  S   UNL     1     -10.016  -3.328  -6.590  0.00  0.00    -0.089 S 
BRANCH  11  12
ATOM     12  C   UNL     1     -10.604  -4.954  -6.929  0.00  0.00    +0.013 A 
ATOM     13  C   UNL     1     -11.500  -5.566  -6.060  0.00  0.00    +0.017 A 
ATOM     14  C   UNL     1     -11.959  -6.840  -6.329  0.00  0.00    +0.034 A 
ATOM     15  C   UNL     1     -11.527  -7.508  -7.461  0.00  0.00    +0.126 A 
ATOM     16  C   UNL     1     -10.635  -6.903  -8.327  0.00  0.00    +0.034 A 
ATOM     17  C   UNL     1     -10.177  -5.626  -8.068  0.00  0.00    +0.017 A 
BRANCH  15  18
ATOM     18  N   UNL     1     -12.021  -8.874  -7.745  0.00  0.00    +0.056 N 
ATOM     19  O   UNL     1     -12.801  -9.405  -6.989  0.00  0.00    -0.126 OA
ATOM     20  O   UNL     1     -11.645  -9.459  -8.734  0.00  0.00    -0.126 OA
ENDBRANCH  15  18
ENDBRANCH  11  12
ENDBRANCH   8  11
ENDBRANCH   3   5
BRANCH   1  21
ATOM     21  C   UNL     1      -2.619  -3.574  -3.088  0.00  0.00    +0.173 C 
BRANCH  21  22
ATOM     22  S   UNL     1      -1.558  -2.111  -3.250  0.00  0.00    -0.077 S 
BRANCH  22  27
ATOM     23  N   UNL     1       1.103  -1.855  -2.426  0.00  0.00    -0.302 N 
ATOM     24  C   UNL     1       2.032  -2.661  -1.810  0.00  0.00    +0.165 A 
ATOM     25  N   UNL     1       1.454  -3.819  -1.593  0.00  0.00    -0.128 NA
ATOM     26  N   UNL     1       0.244  -3.794  -2.026  0.00  0.00    -0.122 NA
ATOM     27  C   UNL     1      -0.026  -2.615  -2.541  0.00  0.00    +0.192 A 
BRANCH  24  28
ATOM     28  C   UNL     1       3.419  -2.291  -1.458  0.00  0.00    +0.019 A 
ATOM     29  C   UNL     1       3.795  -0.948  -1.404  0.00  0.00    +0.011 A 
ATOM     30  C   UNL     1       5.092  -0.610  -1.075  0.00  0.00    +0.001 A 
ATOM     31  C   UNL     1       6.019  -1.599  -0.798  0.00  0.00    +0.000 A 
ATOM     32  C   UNL     1       5.653  -2.933  -0.849  0.00  0.00    +0.001 A 
ATOM     33  C   UNL     1       4.358  -3.284  -1.171  0.00  0.00    +0.011 A 
ENDBRANCH  24  28
BRANCH  23  34
ATOM     34  C   UNL     1       1.284  -0.468  -2.863  0.00  0.00    +0.125 C 
BRANCH  34  36
ATOM     35  C   UNL     1       1.011   1.928  -2.211  0.00  0.00    +0.005 C 
ATOM     36  C   UNL     1       0.822   0.480  -1.754  0.00  0.00    +0.018 C 
ENDBRANCH  34  36
ENDBRANCH  23  34
ENDBRANCH  22  27
ENDBRANCH  21  22
ENDBRANCH   1  21
TORSDOF 10
