REMARK  Name = ZINC06195026
REMARK  10 active torsions:
REMARK  status: ('A' for Active; 'I' for Inactive)
REMARK    1  A    between atoms: C_1  and  C_2
REMARK    2  A    between atoms: C_2  and  O_3
REMARK    3  A    between atoms: O_3  and  C_4
REMARK    4  A    between atoms: C_13  and  C_25
REMARK    5  A    between atoms: C_15  and  C_21
REMARK    6  A    between atoms: C_15  and  C_23
REMARK    7  A    between atoms: C_16  and  N_20
REMARK    8  A    between atoms: C_17  and  C_18
REMARK    9  A    between atoms: C_27  and  O_32
REMARK   10  A    between atoms: O_32  and  C_33
REMARK                            x       y       z     vdW  Elec       q    Type
REMARK                         _______ _______ _______ _____ _____    ______ ____
ROOT
ATOM      1  C   UNL     1      -3.129  -0.881  -1.245  0.00  0.00    +0.403 C 
ATOM      2  O   UNL     1      -3.783  -0.102  -0.579  0.00  0.00    -0.226 OA
ATOM      3  N   UNL     1      -1.876  -1.204  -0.867  0.00  0.00    -0.263 N 
ATOM      4  C   UNL     1      -1.055  -2.144  -1.651  0.00  0.00    +0.138 C 
ATOM      5  C   UNL     1       0.226  -1.431  -2.000  0.00  0.00    -0.003 C 
ATOM      6  C   UNL     1       0.700  -0.462  -1.241  0.00  0.00    -0.026 C 
ATOM      7  C   UNL     1       0.067  -0.002   0.038  0.00  0.00    +0.048 C 
ATOM      8  C   UNL     1      -1.272  -0.635   0.342  0.00  0.00    +0.120 C 
ATOM      9  C   UNL     1      -0.019   1.526   0.010  0.00  0.00    +0.071 C 
ATOM     10  C   UNL     1       1.398   2.100  -0.037  0.00  0.00    +0.188 C 
ATOM     11  C   UNL     1       2.214   1.468  -1.125  0.00  0.00    +0.054 C 
ATOM     12  C   UNL     1       1.913   0.272  -1.690  0.00  0.00    +0.074 C 
ENDROOT
BRANCH   9  13
ATOM     13  C   UNL     1      -0.720   2.014   1.252  0.00  0.00    -0.002 A 
ATOM     14  C   UNL     1      -0.290   1.597   2.497  0.00  0.00    +0.052 A 
ATOM     15  C   UNL     1      -0.935   2.047   3.639  0.00  0.00    +0.121 A 
ATOM     16  C   UNL     1      -2.012   2.915   3.530  0.00  0.00    +0.048 A 
ATOM     17  C   UNL     1      -2.440   3.330   2.284  0.00  0.00    +0.042 A 
ATOM     18  C   UNL     1      -1.791   2.884   1.144  0.00  0.00    +0.127 A 
ATOM     19  F   UNL     1      -2.207   3.296  -0.074  0.00  0.00    -0.205 F 
BRANCH  15  20
ATOM     20  O   UNL     1      -0.513   1.638   4.865  0.00  0.00    -0.495 OA
ATOM     21  C   UNL     1      -1.225   2.141   5.997  0.00  0.00    +0.277 C 
ENDBRANCH  15  20
ENDBRANCH   9  13
BRANCH  11  22
ATOM     22  N   UNL     1       3.321   2.133  -1.570  0.00  0.00    -0.358 N 
ATOM     23  H   UNL     1       3.941   1.697  -2.367  0.00  0.00    +0.142 HD
ATOM     24  H   UNL     1       3.592   3.105  -1.133  0.00  0.00    +0.142 HD
ENDBRANCH  11  22
BRANCH  12  25
ATOM     25  C   UNL     1       2.756  -0.278  -2.708  0.00  0.00    +0.101 C 
ATOM     26  N   UNL     1       3.425  -0.714  -3.516  0.00  0.00    -0.191 NA
ENDBRANCH  12  25
BRANCH  10  27
ATOM     27  C   UNL     1       1.320   3.550  -0.277  0.00  0.00    +0.091 C 
ATOM     28  N   UNL     1       1.260   4.670  -0.461  0.00  0.00    -0.194 NA
ENDBRANCH  10  27
BRANCH  10  29
ATOM     29  C   UNL     1       2.056   1.863   1.257  0.00  0.00    +0.091 C 
ATOM     30  N   UNL     1       2.565   1.680   2.257  0.00  0.00    -0.194 NA
ENDBRANCH  10  29
BRANCH   1  31
ATOM     31  O   UNL     1      -3.656  -1.420  -2.360  0.00  0.00    -0.451 OA
BRANCH  31  33
ATOM     32  C   UNL     1      -5.434  -1.736  -3.994  0.00  0.00    +0.048 C 
ATOM     33  C   UNL     1      -5.010  -1.027  -2.706  0.00  0.00    +0.230 C 
ENDBRANCH  31  33
ENDBRANCH   1  31
TORSDOF 8
