REMARK  Name = ZINC02433292
REMARK  8 active torsions:
REMARK  status: ('A' for Active; 'I' for Inactive)
REMARK    1  A    between atoms: C_1  and  C_2
REMARK    2  A    between atoms: C_3  and  O_25
REMARK    3  A    between atoms: C_4  and  C_9
REMARK    4  A    between atoms: C_12  and  O_16
REMARK    5  A    between atoms: C_14  and  O_15
REMARK    6  A    between atoms: O_16  and  C_17
REMARK    7  A    between atoms: C_17  and  C_18
REMARK    8  A    between atoms: O_25  and  C_26
REMARK                            x       y       z     vdW  Elec       q    Type
REMARK                         _______ _______ _______ _____ _____    ______ ____
ROOT
ATOM      1  C   UNL     1       2.734   2.245  -1.831  0.00  0.00    +0.070 C 
ATOM      2  C   UNL     1       1.900   1.433  -0.875  0.00  0.00    +0.086 A 
ATOM      3  C   UNL     1       1.864   0.049  -0.976  0.00  0.00    +0.175 A 
ATOM      4  C   UNL     1       1.073  -0.665  -0.064  0.00  0.00    +0.122 A 
ATOM      5  N   UNL     1       0.389   0.008   0.860  0.00  0.00    -0.211 NA
ATOM      6  C   UNL     1       0.453   1.329   0.918  0.00  0.00    +0.214 A 
ATOM      7  N   UNL     1       1.192   2.030   0.071  0.00  0.00    -0.216 NA
ATOM      8  N   UNL     1      -0.277   1.996   1.889  0.00  0.00    -0.327 N 
ATOM      9  H   UNL     1      -0.825   1.496   2.514  0.00  0.00    +0.145 HD
ATOM     10  H   UNL     1      -0.239   2.964   1.944  0.00  0.00    +0.145 HD
ENDROOT
BRANCH   4  11
ATOM     11  C   UNL     1       1.000  -2.142  -0.127  0.00  0.00    +0.046 A 
ATOM     12  C   UNL     1       2.169  -2.897  -0.227  0.00  0.00    +0.017 A 
ATOM     13  C   UNL     1       2.098  -4.272  -0.285  0.00  0.00    +0.046 A 
ATOM     14  C   UNL     1       0.864  -4.910  -0.244  0.00  0.00    +0.124 A 
ATOM     15  C   UNL     1      -0.303  -4.168  -0.145  0.00  0.00    +0.091 A 
ATOM     16  C   UNL     1      -0.242  -2.786  -0.080  0.00  0.00    +0.130 A 
BRANCH  16  17
ATOM     17  O   UNL     1      -1.383  -2.058   0.024  0.00  0.00    -0.506 OA
ATOM     18  H   UNL     1      -1.768  -1.807  -0.827  0.00  0.00    +0.292 HD
ENDBRANCH  16  17
BRANCH  14  19
ATOM     19  O   UNL     1       0.801  -6.266  -0.302  0.00  0.00    -0.487 OA
BRANCH  19  20
ATOM     20  C   UNL     1       2.041  -6.969  -0.405  0.00  0.00    +0.264 C 
BRANCH  20  21
ATOM     21  C   UNL     1       1.775  -8.451  -0.457  0.00  0.00    -0.010 A 
ATOM     22  C   UNL     1       1.726  -9.186   0.713  0.00  0.00    +0.008 A 
ATOM     23  C   UNL     1       1.477 -10.545   0.666  0.00  0.00    +0.020 A 
ATOM     24  C   UNL     1       1.287 -11.171  -0.552  0.00  0.00    +0.041 A 
ATOM     25  C   UNL     1       1.341 -10.436  -1.723  0.00  0.00    +0.020 A 
ATOM     26  C   UNL     1       1.585  -9.077  -1.675  0.00  0.00    +0.008 A 
ATOM     27 CL   UNL     1       0.980 -12.879  -0.613  0.00  0.00    -0.084 Cl
ENDBRANCH  20  21
ENDBRANCH  19  20
ENDBRANCH  14  19
ENDBRANCH   4  11
BRANCH   3  28
ATOM     28  O   UNL     1       2.579  -0.598  -1.934  0.00  0.00    -0.451 OA
BRANCH  28  29
ATOM     29  C   UNL     1       1.983  -0.819  -3.135  0.00  0.00    +0.143 A 
ATOM     30  C   UNL     1       0.680  -0.393  -3.353  0.00  0.00    +0.047 A 
ATOM     31  C   UNL     1       0.077  -0.614  -4.576  0.00  0.00    +0.004 A 
ATOM     32  C   UNL     1       0.767  -1.269  -5.580  0.00  0.00    +0.001 A 
ATOM     33  C   UNL     1       2.064  -1.699  -5.365  0.00  0.00    +0.019 A 
ATOM     34  C   UNL     1       2.673  -1.476  -4.144  0.00  0.00    +0.060 A 
ATOM     35 BR   UNL     1       4.446  -2.064  -3.850  0.00  0.00    -0.046 Br
ENDBRANCH  28  29
ENDBRANCH   3  28
TORSDOF 7
