REMARK  Name = ZINC01160077
REMARK  5 active torsions:
REMARK  status: ('A' for Active; 'I' for Inactive)
REMARK    1  A    between atoms: C_1  and  C_2
REMARK    2  A    between atoms: C_5  and  C_7
REMARK    3  A    between atoms: C_19  and  S_22
REMARK    4  A    between atoms: S_22  and  C_23
REMARK    5  A    between atoms: C_23  and  C_24
REMARK                            x       y       z     vdW  Elec       q    Type
REMARK                         _______ _______ _______ _____ _____    ______ ____
ROOT
ATOM      1  C   UNL     1       1.262  -3.479  -4.593  0.00  0.00    +0.329 C 
ATOM      2  N   UNL     1       1.177  -2.482  -5.656  0.00  0.00    -0.303 N 
ATOM      3  C   UNL     1       2.329  -1.770  -6.004  0.00  0.00    +0.040 A 
ATOM      4  C   UNL     1       2.952  -1.959  -7.223  0.00  0.00    +0.024 A 
ATOM      5  C   UNL     1       4.100  -1.249  -7.528  0.00  0.00    +0.002 A 
ATOM      6  C   UNL     1       4.629  -0.349  -6.619  0.00  0.00    +0.001 A 
ATOM      7  C   UNL     1       4.014  -0.145  -5.399  0.00  0.00    +0.012 A 
ATOM      8  C   UNL     1       2.857  -0.846  -5.082  0.00  0.00    +0.028 A 
ATOM      9  C   UNL     1       2.149  -0.634  -3.803  0.00  0.00    +0.156 A 
ATOM     10  C   UNL     1       1.737  -1.749  -3.040  0.00  0.00    +0.248 A 
ATOM     11  N   UNL     1       1.094  -1.539  -1.903  0.00  0.00    -0.184 NA
ATOM     12  C   UNL     1       0.859  -0.290  -1.510  0.00  0.00    +0.213 A 
ATOM     13  N   UNL     1       1.255   0.744  -2.242  0.00  0.00    -0.122 NA
ATOM     14  N   UNL     1       1.887   0.584  -3.354  0.00  0.00    -0.141 NA
ATOM     15  O   UNL     1       2.005  -3.002  -3.478  0.00  0.00    -0.445 OA
ATOM     16  H   UNL     1       0.338  -2.316  -6.112  0.00  0.00    +0.150 HD
ENDROOT
BRANCH   1  21
ATOM     17  C   UNL     1       4.283  -6.468  -7.310  0.00  0.00    +0.086 C 
ATOM     18  C   UNL     1       3.244  -6.016  -6.316  0.00  0.00    +0.102 A 
ATOM     19  C   UNL     1       2.522  -6.818  -5.513  0.00  0.00    +0.045 A 
ATOM     20  C   UNL     1       1.679  -5.980  -4.748  0.00  0.00    +0.050 A 
ATOM     21  C   UNL     1       1.930  -4.716  -5.136  0.00  0.00    +0.164 A 
ATOM     22  O   UNL     1       2.881  -4.744  -6.083  0.00  0.00    -0.459 OA
ENDBRANCH   1  21
BRANCH  12  23
ATOM     23  S   UNL     1       0.002  -0.004   0.002  0.00  0.00    -0.080 S 
BRANCH  23  24
ATOM     24  C   UNL     1      -0.022   1.806   0.012  0.00  0.00    +0.112 C 
BRANCH  24  25
ATOM     25  C   UNL     1      -0.728   2.292   1.252  0.00  0.00    -0.037 A 
ATOM     26  C   UNL     1      -2.093   2.509   1.230  0.00  0.00    +0.004 A 
ATOM     27  C   UNL     1      -2.741   2.950   2.369  0.00  0.00    +0.000 A 
ATOM     28  C   UNL     1      -2.022   3.184   3.526  0.00  0.00    +0.000 A 
ATOM     29  C   UNL     1      -0.656   2.972   3.546  0.00  0.00    +0.000 A 
ATOM     30  C   UNL     1      -0.009   2.526   2.409  0.00  0.00    +0.004 A 
ENDBRANCH  24  25
ENDBRANCH  23  24
ENDBRANCH  12  23
TORSDOF 4
