REMARK  Name = ZINC39446600
REMARK  13 active torsions:
REMARK  status: ('A' for Active; 'I' for Inactive)
REMARK    1  A    between atoms: C_1  and  C_2
REMARK    2  A    between atoms: C_2  and  C_3
REMARK    3  A    between atoms: C_3  and  C_5
REMARK    4  A    between atoms: C_3  and  N_33
REMARK    5  A    between atoms: C_9  and  S_18
REMARK    6  A    between atoms: N_10  and  C_11
REMARK    7  A    between atoms: C_11  and  C_12
REMARK    8  A    between atoms: S_18  and  C_19
REMARK    9  A    between atoms: C_19  and  C_20
REMARK   10  A    between atoms: C_20  and  C_21
REMARK   11  A    between atoms: C_21  and  N_22
REMARK   12  A    between atoms: N_33  and  C_34
REMARK   13  A    between atoms: N_33  and  C_35
REMARK                            x       y       z     vdW  Elec       q    Type
REMARK                         _______ _______ _______ _____ _____    ______ ____
ROOT
ATOM      1  C   UNL     1      -1.338  -1.072   0.815  0.00  0.00    +0.164 C 
ATOM      2  N   UNL     1      -2.732  -1.543   0.759  0.00  0.00    -0.248 N 
ATOM      3  N   UNL     1      -2.722  -2.702  -0.026  0.00  0.00    -0.163 NA
ATOM      4  C   UNL     1      -1.532  -2.982  -0.440  0.00  0.00    +0.175 C 
ATOM      5  N   UNL     1      -0.596  -2.058   0.011  0.00  0.00    -0.286 N 
ATOM      6  H   UNL     1      -3.503  -1.133   1.182  0.00  0.00    +0.170 HD
ENDROOT
BRANCH   1   7
ATOM      7  C   UNL     1      -1.218   0.323   0.198  0.00  0.00    -0.029 C 
BRANCH   7   8
ATOM      8  N   UNL     1      -1.902   0.345  -1.101  0.00  0.00    +0.380 N 
ATOM      9  C   UNL     1      -1.207  -0.550  -2.036  0.00  0.00    -0.096 C 
ATOM     10  C   UNL     1      -3.290  -0.106  -0.932  0.00  0.00    -0.096 C 
ATOM     11  H   UNL     1      -1.897   1.285  -1.469  0.00  0.00    -0.082 HD
ENDBRANCH   7   8
BRANCH   7  13
ATOM     12  C   UNL     1      -1.641   2.757   0.572  0.00  0.00    +0.002 C 
ATOM     13  C   UNL     1      -1.862   1.350   1.131  0.00  0.00    -0.015 C 
ENDBRANCH   7  13
ENDBRANCH   1   7
BRANCH   5  14
ATOM     14  C   UNL     1       0.844  -2.061  -0.261  0.00  0.00    +0.144 C 
BRANCH  14  15
ATOM     15  C   UNL     1       1.549  -2.893   0.779  0.00  0.00    -0.030 A 
ATOM     16  C   UNL     1       1.999  -2.304   1.946  0.00  0.00    +0.005 A 
ATOM     17  C   UNL     1       2.646  -3.067   2.900  0.00  0.00    +0.000 A 
ATOM     18  C   UNL     1       2.842  -4.419   2.688  0.00  0.00    +0.000 A 
ATOM     19  C   UNL     1       2.391  -5.008   1.522  0.00  0.00    +0.000 A 
ATOM     20  C   UNL     1       1.740  -4.246   0.569  0.00  0.00    +0.005 A 
ENDBRANCH  14  15
ENDBRANCH   5  14
BRANCH   4  21
ATOM     21  S   UNL     1      -1.139  -4.370  -1.452  0.00  0.00    -0.089 S 
BRANCH  21  22
ATOM     22  C   UNL     1      -2.736  -5.192  -1.707  0.00  0.00    +0.079 C 
BRANCH  22  23
ATOM     23  C   UNL     1      -2.537  -6.432  -2.582  0.00  0.00    +0.033 C 
BRANCH  23  24
ATOM     24  C   UNL     1      -3.884  -7.125  -2.797  0.00  0.00    +0.128 C 
BRANCH  24  25
ATOM     25  N   UNL     1      -3.693  -8.312  -3.635  0.00  0.00    -0.292 N 
ATOM     26  C   UNL     1      -3.756  -8.346  -5.026  0.00  0.00    +0.070 A 
ATOM     27  C   UNL     1      -3.993  -7.380  -5.992  0.00  0.00    +0.028 A 
ATOM     28  C   UNL     1      -3.991  -7.729  -7.328  0.00  0.00    +0.002 A 
ATOM     29  C   UNL     1      -3.754  -9.039  -7.707  0.00  0.00    +0.002 A 
ATOM     30  C   UNL     1      -3.518 -10.008  -6.752  0.00  0.00    +0.028 A 
ATOM     31  C   UNL     1      -3.517  -9.668  -5.408  0.00  0.00    +0.067 A 
ATOM     32  N   UNL     1      -3.316 -10.395  -4.238  0.00  0.00    -0.306 N 
ATOM     33  H   UNL     1      -3.127 -11.345  -4.185  0.00  0.00    +0.170 HD
ATOM     34  C   UNL     1      -3.422  -9.554  -3.192  0.00  0.00    +0.328 A 
ATOM     35  O   UNL     1      -3.296  -9.869  -2.023  0.00  0.00    -0.247 OA
ENDBRANCH  24  25
ENDBRANCH  23  24
ENDBRANCH  22  23
ENDBRANCH  21  22
ENDBRANCH   4  21
TORSDOF 10
