REMARK  Name = ZINC25783656
REMARK  2 active torsions:
REMARK  status: ('A' for Active; 'I' for Inactive)
REMARK    1  A    between atoms: C_5  and  C_7
REMARK    2  A    between atoms: C_18  and  C_20
REMARK                            x       y       z     vdW  Elec       q    Type
REMARK                         _______ _______ _______ _____ _____    ______ ____
ROOT
ATOM      1  C   UNL     1       1.861  -1.878   0.241  0.00  0.00    +0.162 C 
ATOM      2  C   UNL     1       1.621  -2.426  -1.148  0.00  0.00    +0.028 C 
ATOM      3  C   UNL     1       0.476  -3.103  -1.374  0.00  0.00    +0.083 C 
ATOM      4  C   UNL     1       0.258  -3.643  -2.739  0.00  0.00    +0.042 A 
ATOM      5  C   UNL     1      -0.996  -4.065  -3.160  0.00  0.00    +0.013 A 
ATOM      6  C   UNL     1      -1.155  -4.560  -4.441  0.00  0.00    +0.001 A 
ATOM      7  C   UNL     1      -0.071  -4.635  -5.298  0.00  0.00    +0.004 A 
ATOM      8  C   UNL     1       1.182  -4.218  -4.886  0.00  0.00    +0.046 A 
ATOM      9  C   UNL     1       1.356  -3.721  -3.606  0.00  0.00    +0.131 A 
ATOM     10  O   UNL     1       2.575  -3.311  -3.172  0.00  0.00    -0.479 OA
ATOM     11  C   UNL     1       2.617  -2.220  -2.251  0.00  0.00    +0.241 C 
ATOM     12  N   UNL     1      -0.444  -3.286  -0.395  0.00  0.00    -0.213 NA
ATOM     13  C   UNL     1      -0.315  -2.844   0.835  0.00  0.00    +0.237 C 
ATOM     14  N   UNL     1       0.801  -2.136   1.223  0.00  0.00    -0.208 N 
ATOM     15  N   UNL     1       0.622  -1.820   2.571  0.00  0.00    -0.251 N 
ATOM     16  C   UNL     1      -0.583  -2.341   2.933  0.00  0.00    +0.203 C 
ATOM     17  N   UNL     1      -1.120  -2.938   1.916  0.00  0.00    -0.205 NA
ATOM     18  H   UNL     1       1.235  -1.327   3.139  0.00  0.00    +0.171 HD
ENDROOT
BRANCH   1  23
ATOM     19  C   UNL     1       1.124   1.823   0.117  0.00  0.00    +0.001 A 
ATOM     20  C   UNL     1       2.388   2.352  -0.069  0.00  0.00    +0.003 A 
ATOM     21  C   UNL     1       3.483   1.513  -0.154  0.00  0.00    +0.039 A 
ATOM     22  C   UNL     1       3.313   0.142  -0.054  0.00  0.00    +0.129 A 
ATOM     23  C   UNL     1       2.047  -0.386   0.132  0.00  0.00    +0.014 A 
ATOM     24  C   UNL     1       0.954   0.455   0.217  0.00  0.00    +0.008 A 
ATOM     25  F   UNL     1       4.383  -0.679  -0.137  0.00  0.00    -0.205 F 
ENDBRANCH   1  23
BRANCH  11  26
ATOM     26  C   UNL     1       2.296  -0.940  -2.980  0.00  0.00    +0.034 A 
ATOM     27  C   UNL     1       2.957   0.243  -2.959  0.00  0.00    +0.015 A 
ATOM     28  C   UNL     1       2.475   1.294  -3.716  0.00  0.00    +0.008 A 
ATOM     29  C   UNL     1       1.356   1.110  -4.458  0.00  0.00    +0.045 A 
ATOM     30  S   UNL     1       0.951  -0.591  -4.100  0.00  0.00    -0.098 S 
ENDBRANCH  11  26
TORSDOF 2
