REMARK  Name = ZINC39601398
REMARK  9 active torsions:
REMARK  status: ('A' for Active; 'I' for Inactive)
REMARK    1  A    between atoms: C_1  and  C_2
REMARK    2  A    between atoms: C_2  and  C_3
REMARK    3  A    between atoms: C_2  and  C_4
REMARK    4  A    between atoms: C_4  and  C_5
REMARK    5  A    between atoms: C_5  and  N_6
REMARK    6  A    between atoms: C_7  and  C_9
REMARK    7  A    between atoms: C_20  and  C_22
REMARK    8  A    between atoms: C_25  and  O_29
REMARK    9  A    between atoms: O_29  and  C_30
REMARK                            x       y       z     vdW  Elec       q    Type
REMARK                         _______ _______ _______ _____ _____    ______ ____
ROOT
ATOM      1  C   UNL     1      -4.041  -4.470   0.360  0.00  0.00    +0.100 C 
ATOM      2  C   UNL     1      -4.975  -4.192   1.559  0.00  0.00    +0.121 C 
ATOM      3  N   UNL     1      -5.809  -5.412   1.675  0.00  0.00    -0.296 N 
ATOM      4  C   UNL     1      -4.872  -6.527   1.397  0.00  0.00    +0.115 C 
ATOM      5  C   UNL     1      -3.975  -6.003   0.258  0.00  0.00    -0.004 C 
ATOM      6  C   UNL     1      -2.541  -6.484   0.452  0.00  0.00    -0.010 C 
ATOM      7  C   UNL     1      -2.491  -8.006   0.288  0.00  0.00    -0.082 C 
ATOM      8  N   UNL     1      -2.974  -8.372  -1.049  0.00  0.00    +0.379 N 
ATOM      9  C   UNL     1      -4.383  -7.989  -1.194  0.00  0.00    -0.082 C 
ATOM     10  C   UNL     1      -4.513  -6.466  -1.093  0.00  0.00    -0.010 C 
ATOM     11  C   UNL     1      -7.122  -5.490   1.966  0.00  0.00    +0.247 C 
ATOM     12  O   UNL     1      -7.789  -4.477   2.043  0.00  0.00    -0.270 OA
ATOM     13  H   UNL     1      -2.423  -7.894  -1.747  0.00  0.00    -0.086 HD
ATOM     14  H   UNL     1      -2.883  -9.369  -1.177  0.00  0.00    -0.086 HD
ENDROOT
BRANCH  11  15
ATOM     15  C   UNL     1      -7.751  -6.806   2.192  0.00  0.00    +0.040 A 
ATOM     16  C   UNL     1      -6.965  -7.908   2.537  0.00  0.00    +0.036 A 
ATOM     17  C   UNL     1      -7.555  -9.136   2.748  0.00  0.00    +0.085 A 
ATOM     18  C   UNL     1      -8.932  -9.278   2.616  0.00  0.00    +0.157 A 
ATOM     19  C   UNL     1      -9.718  -8.184   2.272  0.00  0.00    +0.085 A 
ATOM     20  C   UNL     1      -9.135  -6.952   2.067  0.00  0.00    +0.036 A 
ATOM     21 CL   UNL     1     -11.437  -8.368   2.109  0.00  0.00    -0.080 Cl
ATOM     22 CL   UNL     1      -6.579 -10.506   3.176  0.00  0.00    -0.080 Cl
BRANCH  18  23
ATOM     23  O   UNL     1      -9.510 -10.489   2.823  0.00  0.00    -0.492 OA
ATOM     24  C   UNL     1      -9.933 -10.787   4.155  0.00  0.00    +0.277 C 
ENDBRANCH  18  23
ENDBRANCH  11  15
BRANCH   1  26
ATOM     25  N   UNL     1      -1.909  -3.479  -0.409  0.00  0.00    -0.315 N 
ATOM     26  C   UNL     1      -2.670  -3.902   0.621  0.00  0.00    +0.218 C 
ATOM     27  O   UNL     1      -2.251  -3.826   1.756  0.00  0.00    -0.275 OA
ATOM     28  H   UNL     1      -2.245  -3.540  -1.317  0.00  0.00    +0.149 HD
BRANCH  25  29
ATOM     29  C   UNL     1      -0.576  -2.927  -0.155  0.00  0.00    +0.104 C 
BRANCH  29  30
ATOM     30  C   UNL     1       0.070  -2.525  -1.483  0.00  0.00    +0.022 C 
BRANCH  30  32
ATOM     31  C   UNL     1       2.157  -1.663  -2.551  0.00  0.00    +0.007 C 
ATOM     32  C   UNL     1       1.462  -1.948  -1.219  0.00  0.00    -0.016 C 
ATOM     33  C   UNL     1       1.333  -0.649  -0.422  0.00  0.00    +0.007 C 
ENDBRANCH  30  32
ENDBRANCH  29  30
ENDBRANCH  25  29
ENDBRANCH   1  26
TORSDOF 6
