REMARK  Name = ZINC36366182
REMARK  4 active torsions:
REMARK  status: ('A' for Active; 'I' for Inactive)
REMARK    1  A    between atoms: C_1  and  O_2
REMARK    2  A    between atoms: O_2  and  C_3
REMARK    3  A    between atoms: C_6  and  N_9
REMARK    4  A    between atoms: C_18  and  C_20
REMARK                            x       y       z     vdW  Elec       q    Type
REMARK                         _______ _______ _______ _____ _____    ______ ____
ROOT
ATOM      1  N   UNL     1       2.459  -2.459  -4.304  0.00  0.00    -0.287 N 
ATOM      2  C   UNL     1       2.246  -2.188  -5.626  0.00  0.00    +0.205 A 
ATOM      3  N   UNL     1       3.008  -2.973  -6.344  0.00  0.00    -0.238 NA
ATOM      4  C   UNL     1       3.720  -3.756  -5.536  0.00  0.00    +0.089 A 
ATOM      5  C   UNL     1       3.395  -3.443  -4.250  0.00  0.00    +0.133 A 
ATOM      6  N   UNL     1       3.984  -4.086  -3.160  0.00  0.00    -0.270 N 
ATOM      7  C   UNL     1       4.685  -5.217  -3.395  0.00  0.00    +0.219 C 
ATOM      8  O   UNL     1       5.300  -5.727  -2.482  0.00  0.00    -0.275 OA
ATOM      9  C   UNL     1       4.725  -5.863  -4.750  0.00  0.00    +0.110 C 
ATOM     10  C   UNL     1       4.731  -4.823  -5.869  0.00  0.00    +0.080 C 
ATOM     11  H   UNL     1       3.893  -3.732  -2.261  0.00  0.00    +0.156 HD
ENDROOT
BRANCH  10  12
ATOM     12  C   UNL     1       6.103  -4.210  -5.967  0.00  0.00    -0.038 A 
ATOM     13  C   UNL     1       6.654  -3.569  -4.873  0.00  0.00    +0.006 A 
ATOM     14  C   UNL     1       7.913  -3.006  -4.963  0.00  0.00    +0.020 A 
ATOM     15  C   UNL     1       8.622  -3.083  -6.148  0.00  0.00    +0.041 A 
ATOM     16  C   UNL     1       8.071  -3.724  -7.243  0.00  0.00    +0.020 A 
ATOM     17  C   UNL     1       6.814  -4.292  -7.150  0.00  0.00    +0.006 A 
ATOM     18 CL   UNL     1      10.203  -2.375  -6.261  0.00  0.00    -0.084 Cl
ENDBRANCH  10  12
BRANCH   1  22
ATOM     19  C   UNL     1       0.606  -0.607  -1.056  0.00  0.00    +0.120 A 
ATOM     20  C   UNL     1       1.173   0.162  -2.062  0.00  0.00    +0.047 A 
ATOM     21  C   UNL     1       1.786  -0.451  -3.137  0.00  0.00    +0.030 A 
ATOM     22  C   UNL     1       1.836  -1.836  -3.211  0.00  0.00    +0.049 A 
ATOM     23  C   UNL     1       1.269  -2.605  -2.204  0.00  0.00    +0.030 A 
ATOM     24  C   UNL     1       0.660  -1.992  -1.127  0.00  0.00    +0.047 A 
BRANCH  19  26
ATOM     25  C   UNL     1      -0.017   1.425   0.010  0.00  0.00    +0.277 C 
ATOM     26  O   UNL     1       0.002  -0.004   0.002  0.00  0.00    -0.495 OA
ENDBRANCH  19  26
ENDBRANCH   1  22
TORSDOF 3
