REMARK  Name = ZINC05314090
REMARK  7 active torsions:
REMARK  status: ('A' for Active; 'I' for Inactive)
REMARK    1  A    between atoms: C_1  and  C_2
REMARK    2  A    between atoms: C_2  and  C_4
REMARK    3  A    between atoms: C_2  and  S_17
REMARK    4  A    between atoms: N_6  and  N_7
REMARK    5  A    between atoms: C_8  and  C_9
REMARK    6  A    between atoms: C_14  and  O_15
REMARK    7  A    between atoms: S_17  and  C_18
REMARK                            x       y       z     vdW  Elec       q    Type
REMARK                         _______ _______ _______ _____ _____    ______ ____
ROOT
ATOM      1  C   UNL     1       0.731  -0.503   1.223  0.00  0.00    +0.245 C 
ATOM      2  O   UNL     1       1.911  -0.775   1.156  0.00  0.00    -0.273 OA
ATOM      3  N   UNL     1       0.071  -0.647   2.389  0.00  0.00    -0.206 N 
ATOM      4  H   UNL     1      -0.872  -0.430   2.443  0.00  0.00    +0.177 HD
ENDROOT
BRANCH   1   6
ATOM      5  C   UNL     1      -0.019   1.526   0.010  0.00  0.00    +0.029 C 
ATOM      6  C   UNL     1       0.002  -0.004   0.002  0.00  0.00    +0.138 C 
BRANCH   6   7
ATOM      7  S   UNL     1       0.851  -0.589  -1.490  0.00  0.00    -0.075 S 
BRANCH   7   8
ATOM      8  C   UNL     1      -0.189  -0.057  -2.809  0.00  0.00    +0.168 A 
ATOM      9  N   UNL     1       0.048  -0.280  -4.136  0.00  0.00    -0.333 N 
ATOM     10  H   UNL     1       0.807  -0.752  -4.513  0.00  0.00    +0.168 HD
ATOM     11  C   UNL     1      -0.997   0.293  -4.842  0.00  0.00    +0.067 A 
ATOM     12  C   UNL     1      -1.306   0.392  -6.190  0.00  0.00    +0.028 A 
ATOM     13  C   UNL     1      -2.454   1.046  -6.586  0.00  0.00    +0.002 A 
ATOM     14  C   UNL     1      -3.303   1.607  -5.643  0.00  0.00    +0.002 A 
ATOM     15  C   UNL     1      -3.012   1.518  -4.300  0.00  0.00    +0.030 A 
ATOM     16  C   UNL     1      -1.853   0.859  -3.883  0.00  0.00    +0.090 A 
ATOM     17  N   UNL     1      -1.310   0.608  -2.663  0.00  0.00    -0.222 NA
ENDBRANCH   7   8
ENDBRANCH   6   7
ENDBRANCH   1   6
BRANCH   3  18
ATOM     18  N   UNL     1       0.749  -1.111   3.525  0.00  0.00    -0.188 NA
ATOM     19  C   UNL     1       0.114  -1.250   4.648  0.00  0.00    +0.142 C 
BRANCH  19  20
ATOM     20  C   UNL     1       0.827  -1.738   5.842  0.00  0.00    +0.037 A 
ATOM     21  C   UNL     1       0.146  -1.895   7.051  0.00  0.00    +0.028 A 
ATOM     22  C   UNL     1       0.819  -2.353   8.165  0.00  0.00    +0.019 A 
ATOM     23  C   UNL     1       2.168  -2.658   8.089  0.00  0.00    +0.019 A 
ATOM     24  C   UNL     1       2.853  -2.507   6.898  0.00  0.00    +0.047 A 
ATOM     25  C   UNL     1       2.190  -2.054   5.769  0.00  0.00    +0.126 A 
ATOM     26 BR   UNL     1      -0.103  -2.564   9.802  0.00  0.00    -0.050 Br
BRANCH  25  27
ATOM     27  O   UNL     1       2.861  -1.911   4.596  0.00  0.00    -0.506 OA
ATOM     28  H   UNL     1       3.260  -1.038   4.475  0.00  0.00    +0.292 HD
ENDBRANCH  25  27
ENDBRANCH  19  20
ENDBRANCH   3  18
TORSDOF 6
