REMARK  Name = ZINC04508653
REMARK  7 active torsions:
REMARK  status: ('A' for Active; 'I' for Inactive)
REMARK    1  A    between atoms: C_4  and  C_7
REMARK    2  A    between atoms: C_8  and  S_9
REMARK    3  A    between atoms: C_8  and  N_47
REMARK    4  A    between atoms: S_9  and  C_12
REMARK    5  A    between atoms: N_18  and  C_19
REMARK    6  A    between atoms: C_19  and  N_21
REMARK    7  A    between atoms: N_21  and  C_22
REMARK                            x       y       z     vdW  Elec       q    Type
REMARK                         _______ _______ _______ _____ _____    ______ ____
ROOT
ATOM      1  C   UNL     1       1.087   2.544   4.284  0.00  0.00    +0.106 C 
ATOM      2  N   UNL     1       2.200   1.840   4.705  0.00  0.00    -0.283 N 
ATOM      3  H   UNL     1       3.004   2.315   4.967  0.00  0.00    +0.155 HD
ATOM      4  N   UNL     1       0.006   1.837   3.942  0.00  0.00    -0.354 N 
ATOM      5  H   UNL     1      -0.010   0.821   4.089  0.00  0.00    +0.162 HD
ENDROOT
BRANCH   1   9
ATOM      6  C   UNL     1       1.190   6.790   4.138  0.00  0.00    +0.000 A 
ATOM      7  C   UNL     1       0.098   6.146   4.691  0.00  0.00    +0.001 A 
ATOM      8  C   UNL     1       0.058   4.768   4.741  0.00  0.00    +0.011 A 
ATOM      9  C   UNL     1       1.123   4.023   4.233  0.00  0.00    +0.013 A 
ATOM     10  C   UNL     1       2.224   4.679   3.681  0.00  0.00    +0.011 A 
ATOM     11  C   UNL     1       2.249   6.057   3.632  0.00  0.00    +0.001 A 
ENDBRANCH   1   9
BRANCH   2  12
ATOM     12  C   UNL     1       2.167   0.494   4.752  0.00  0.00    +0.140 C 
ATOM     13  S   UNL     1       0.748  -0.345   4.290  0.00  0.00    -0.018 S 
BRANCH  12  14
ATOM     14  N   UNL     1       3.252  -0.193   5.163  0.00  0.00    -0.297 N 
ATOM     15  H   UNL     1       4.082   0.275   5.345  0.00  0.00    +0.154 HD
BRANCH  14  16
ATOM     16  C   UNL     1       3.181  -1.581   5.327  0.00  0.00    +0.033 A 
ATOM     17  C   UNL     1       2.061  -2.155   5.913  0.00  0.00    +0.024 A 
ATOM     18  C   UNL     1       1.991  -3.526   6.068  0.00  0.00    +0.017 A 
ATOM     19  C   UNL     1       3.040  -4.325   5.651  0.00  0.00    +0.018 A 
ATOM     20  C   UNL     1       4.160  -3.755   5.071  0.00  0.00    +0.017 A 
ATOM     21  C   UNL     1       4.232  -2.385   4.908  0.00  0.00    +0.024 A 
ATOM     22 BR   UNL     1       2.944  -6.201   5.872  0.00  0.00    -0.050 Br
ENDBRANCH  14  16
ENDBRANCH  12  14
ENDBRANCH   2  12
BRANCH   4  23
ATOM     23  C   UNL     1      -1.187   2.528   3.342  0.00  0.00    +0.288 C 
BRANCH  23  24
ATOM     24  S   UNL     1      -1.483   1.829   1.695  0.00  0.00    +0.015 S 
ATOM     25  O   UNL     1      -0.274   1.807   0.948  0.00  0.00    -0.168 OA
ATOM     26  O   UNL     1      -2.670   2.377   1.137  0.00  0.00    -0.168 OA
BRANCH  24  27
ATOM     27  C   UNL     1      -1.863   0.133   1.985  0.00  0.00    +0.090 A 
ATOM     28  C   UNL     1      -0.852  -0.809   2.001  0.00  0.00    +0.027 A 
ATOM     29  C   UNL     1      -1.149  -2.139   2.234  0.00  0.00    +0.002 A 
ATOM     30  C   UNL     1      -2.460  -2.528   2.439  0.00  0.00    +0.000 A 
ATOM     31  C   UNL     1      -3.472  -1.587   2.417  0.00  0.00    +0.002 A 
ATOM     32  C   UNL     1      -3.174  -0.256   2.190  0.00  0.00    +0.027 A 
ENDBRANCH  24  27
ENDBRANCH  23  24
ENDBRANCH   4  23
TORSDOF 7
