REMARK  Name = ZINC44560126
REMARK  24 active torsions:
REMARK  status: ('A' for Active; 'I' for Inactive)
REMARK    1  A    between atoms: C_1  and  C_2
REMARK    2  A    between atoms: C_2  and  C_3
REMARK    3  A    between atoms: C_3  and  C_5
REMARK    4  A    between atoms: C_3  and  C_6
REMARK    5  A    between atoms: C_6  and  C_8
REMARK    6  A    between atoms: C_6  and  N_33
REMARK    7  A    between atoms: N_10  and  C_11
REMARK    8  A    between atoms: C_11  and  C_13
REMARK    9  A    between atoms: C_11  and  C_16
REMARK   10  A    between atoms: C_13  and  C_14
REMARK   11  A    between atoms: C_13  and  C_15
REMARK   12  A    between atoms: N_18  and  C_19
REMARK   13  A    between atoms: C_19  and  C_21
REMARK   14  A    between atoms: C_19  and  C_26
REMARK   15  A    between atoms: C_21  and  C_23
REMARK   16  A    between atoms: C_21  and  C_24
REMARK   17  A    between atoms: C_24  and  C_25
REMARK   18  A    between atoms: N_28  and  C_29
REMARK   19  A    between atoms: C_29  and  C_30
REMARK   20  A    between atoms: C_34  and  C_36
REMARK   21  A    between atoms: C_36  and  C_38
REMARK   22  A    between atoms: C_36  and  N_41
REMARK   23  A    between atoms: C_38  and  C_39
REMARK   24  A    between atoms: C_38  and  C_40
REMARK                            x       y       z     vdW  Elec       q    Type
REMARK                         _______ _______ _______ _____ _____    ______ ____
ROOT
ATOM      1  C   UNL     1       2.205   4.170   0.838  0.00  0.00    +0.161 C 
ENDROOT
BRANCH   1   4
ATOM      2  C   UNL     1       2.276   2.071   2.072  0.00  0.00    +0.234 C 
ATOM      3  O   UNL     1       3.099   2.565   2.812  0.00  0.00    -0.274 OA
ATOM      4  N   UNL     1       1.728   2.807   1.085  0.00  0.00    -0.302 N 
ATOM      5  H   UNL     1       1.019   2.435   0.537  0.00  0.00    +0.150 HD
BRANCH   2   6
ATOM      6  C   UNL     1       1.865   0.632   2.255  0.00  0.00    +0.162 C 
BRANCH   6   7
ATOM      7  N   UNL     1       2.828  -0.044   3.127  0.00  0.00    -0.305 N 
ATOM      8  C   UNL     1       2.988  -1.380   3.048  0.00  0.00    +0.199 C 
ATOM      9  O   UNL     1       2.333  -2.022   2.254  0.00  0.00    -0.278 OA
ATOM     10  H   UNL     1       3.352   0.470   3.762  0.00  0.00    +0.149 HD
BRANCH   8  11
ATOM     11  C   UNL     1       3.979  -2.075   3.945  0.00  0.00    +0.015 C 
BRANCH  11  12
ATOM     12  N   UNL     1       3.647  -3.503   4.027  0.00  0.00    +0.386 N 
ATOM     13  H   UNL     1       3.684  -3.911   3.105  0.00  0.00    -0.089 HD
ATOM     14  H   UNL     1       4.311  -3.969   4.628  0.00  0.00    -0.089 HD
ATOM     15  H   UNL     1       2.718  -3.611   4.406  0.00  0.00    -0.089 HD
ENDBRANCH  11  12
BRANCH  11  16
ATOM     16  C   UNL     1       5.388  -1.911   3.371  0.00  0.00    -0.023 C 
ATOM     17  C   UNL     1       5.734  -0.423   3.285  0.00  0.00    +0.006 C 
ATOM     18  C   UNL     1       6.394  -2.617   4.282  0.00  0.00    +0.006 C 
ENDBRANCH  11  16
ENDBRANCH   8  11
ENDBRANCH   6   7
BRANCH   6  19
ATOM     19  C   UNL     1       0.474   0.576   2.891  0.00  0.00    +0.015 C 
ATOM     20  C   UNL     1       0.533   1.172   4.299  0.00  0.00    +0.010 C 
BRANCH  19  22
ATOM     21  C   UNL     1      -0.209  -1.424   1.559  0.00  0.00    +0.004 C 
ATOM     22  C   UNL     1       0.009  -0.879   2.972  0.00  0.00    +0.002 C 
ENDBRANCH  19  22
ENDBRANCH   6  19
ENDBRANCH   2   6
ENDBRANCH   1   4
BRANCH   1  23
ATOM     23  C   UNL     1       1.040   5.048   0.458  0.00  0.00    +0.234 C 
ATOM     24  O   UNL     1       0.097   4.579  -0.142  0.00  0.00    -0.274 OA
ATOM     25  N   UNL     1       1.047   6.356   0.786  0.00  0.00    -0.302 N 
ATOM     26  H   UNL     1       1.833   6.749   1.196  0.00  0.00    +0.150 HD
BRANCH  25  27
ATOM     27  C   UNL     1      -0.133   7.183   0.522  0.00  0.00    +0.162 C 
BRANCH  27  28
ATOM     28  C   UNL     1       0.285   8.624   0.383  0.00  0.00    +0.234 C 
ATOM     29  O   UNL     1       1.386   8.975   0.753  0.00  0.00    -0.274 OA
ATOM     30  N   UNL     1      -0.564   9.524  -0.152  0.00  0.00    -0.305 N 
ATOM     31  H   UNL     1      -1.415   9.231  -0.514  0.00  0.00    +0.149 HD
BRANCH  30  32
ATOM     32  C   UNL     1      -0.201  10.943  -0.187  0.00  0.00    +0.199 C 
BRANCH  32  33
ATOM     33  C   UNL     1      -1.314  11.729  -0.832  0.00  0.00    +0.228 C 
ATOM     34  O   UNL     1      -2.311  11.161  -1.222  0.00  0.00    -0.274 OA
ATOM     35  N   UNL     1      -1.200  13.065  -0.973  0.00  0.00    -0.328 N 
ATOM     36  H   UNL     1      -0.403  13.520  -0.660  0.00  0.00    +0.145 HD
ATOM     37  H   UNL     1      -1.916  13.571  -1.388  0.00  0.00    +0.145 HD
ENDBRANCH  32  33
ENDBRANCH  30  32
ENDBRANCH  27  28
BRANCH  27  38
ATOM     38  C   UNL     1      -1.120   7.048   1.684  0.00  0.00    +0.015 C 
ATOM     39  C   UNL     1      -0.408   7.375   2.998  0.00  0.00    +0.010 C 
BRANCH  38  40
ATOM     40  C   UNL     1      -1.654   5.615   1.735  0.00  0.00    +0.002 C 
ATOM     41  C   UNL     1      -2.497   5.341   0.488  0.00  0.00    +0.004 C 
ENDBRANCH  38  40
ENDBRANCH  27  38
ENDBRANCH  25  27
ENDBRANCH   1  23
BRANCH   1  42
ATOM     42  C   UNL     1       3.225   4.156  -0.302  0.00  0.00    +0.012 C 
ATOM     43  C   UNL     1       3.795   5.562  -0.495  0.00  0.00    +0.009 C 
ATOM     44  C   UNL     1       4.359   3.188   0.041  0.00  0.00    +0.009 C 
ENDBRANCH   1  42
TORSDOF 16
