REMARK  Name = ZINC45851098
REMARK  5 active torsions:
REMARK  status: ('A' for Active; 'I' for Inactive)
REMARK    1  A    between atoms: C_2  and  C_3
REMARK    2  A    between atoms: C_3  and  N_4
REMARK    3  A    between atoms: N_7  and  C_8
REMARK    4  A    between atoms: C_11  and  N_14
REMARK    5  A    between atoms: C_15  and  C_17
REMARK                            x       y       z     vdW  Elec       q    Type
REMARK                         _______ _______ _______ _____ _____    ______ ____
ROOT
ATOM      1  C   UNL     1      -3.577  -4.099  -2.554  0.00  0.00    +0.035 A 
ATOM      2  C   UNL     1      -4.667  -3.938  -1.709  0.00  0.00    +0.025 A 
ATOM      3  C   UNL     1      -5.820  -4.667  -1.923  0.00  0.00    +0.025 A 
ATOM      4  C   UNL     1      -5.890  -5.561  -2.984  0.00  0.00    +0.034 A 
ATOM      5  C   UNL     1      -4.800  -5.721  -3.829  0.00  0.00    +0.025 A 
ATOM      6  C   UNL     1      -3.649  -4.989  -3.618  0.00  0.00    +0.025 A 
ENDROOT
BRANCH   1  10
ATOM      7  N   UNL     1      -0.604  -2.140  -3.180  0.00  0.00    -0.296 N 
ATOM      8  C   UNL     1      -1.677  -2.930  -3.385  0.00  0.00    +0.304 C 
ATOM      9  O   UNL     1      -1.986  -3.255  -4.515  0.00  0.00    -0.253 OA
ATOM     10  N   UNL     1      -2.407  -3.360  -2.337  0.00  0.00    -0.269 N 
ATOM     11  H   UNL     1      -0.357  -1.881  -2.279  0.00  0.00    +0.151 HD
ATOM     12  H   UNL     1      -2.123  -3.157  -1.432  0.00  0.00    +0.156 HD
BRANCH   7  13
ATOM     13  C   UNL     1       0.190  -1.673  -4.320  0.00  0.00    +0.132 C 
BRANCH  13  15
ATOM     14  C   UNL     1       2.558  -1.104  -4.152  0.00  0.00    +0.005 C 
ATOM     15  C   UNL     1       1.323  -0.814  -3.824  0.00  0.00    -0.016 C 
ENDBRANCH  13  15
ENDBRANCH   7  13
ENDBRANCH   1  10
BRANCH   4  16
ATOM     16  N   UNL     1      -7.059  -6.300  -3.201  0.00  0.00    -0.281 N 
ATOM     17  C   UNL     1      -8.262  -5.749  -2.945  0.00  0.00    +0.255 C 
ATOM     18  O   UNL     1      -8.330  -4.640  -2.446  0.00  0.00    -0.269 OA
ATOM     19  H   UNL     1      -7.003  -7.208  -3.536  0.00  0.00    +0.155 HD
BRANCH  17  20
ATOM     20  C   UNL     1      -9.488  -6.484  -3.267  0.00  0.00    +0.075 A 
ATOM     21  C   UNL     1     -10.806  -6.101  -3.092  0.00  0.00    +0.024 A 
ATOM     22  C   UNL     1     -11.778  -7.006  -3.491  0.00  0.00    -0.036 A 
ATOM     23  C   UNL     1     -11.339  -8.186  -4.016  0.00  0.00    -0.006 A 
ATOM     24  S   UNL     1      -9.671  -8.102  -3.994  0.00  0.00    -0.088 S 
ATOM     25  C   UNL     1     -12.188  -9.318  -4.514  0.00  0.00    +0.043 C 
ATOM     26  C   UNL     1     -13.620  -9.113  -4.002  0.00  0.00    +0.005 C 
ATOM     27  C   UNL     1     -14.040  -7.667  -4.278  0.00  0.00    +0.005 C 
ATOM     28  C   UNL     1     -13.271  -6.718  -3.358  0.00  0.00    +0.036 C 
ENDBRANCH  17  20
ENDBRANCH   4  16
TORSDOF 5
