REMARK  Name = ZINC13062604
REMARK  9 active torsions:
REMARK  status: ('A' for Active; 'I' for Inactive)
REMARK    1  A    between atoms: C_1  and  C_2
REMARK    2  A    between atoms: C_4  and  C_14
REMARK    3  A    between atoms: C_5  and  C_13
REMARK    4  A    between atoms: C_9  and  C_12
REMARK    5  A    between atoms: C_15  and  C_16
REMARK    6  A    between atoms: C_16  and  O_18
REMARK    7  A    between atoms: O_18  and  C_19
REMARK    8  A    between atoms: C_19  and  C_20
REMARK    9  A    between atoms: N_22  and  C_23
REMARK                            x       y       z     vdW  Elec       q    Type
REMARK                         _______ _______ _______ _____ _____    ______ ____
ROOT
ATOM      1  O   UNL     1       2.288  -8.796   0.050  0.00  0.00    -0.452 OA
ENDROOT
BRANCH   1   2
ATOM      2  C   UNL     1       1.417  -7.766   0.092  0.00  0.00    +0.332 C 
ATOM      3  O   UNL     1       0.222  -7.982   0.175  0.00  0.00    -0.246 OA
BRANCH   2   5
ATOM      4  C   UNL     1       1.020  -5.402   0.085  0.00  0.00    +0.016 C 
ATOM      5  C   UNL     1       1.893  -6.435   0.042  0.00  0.00    +0.092 C 
BRANCH   4   9
ATOM      6  C   UNL     1       4.111  -1.357  -0.192  0.00  0.00    +0.064 C 
ATOM      7  C   UNL     1       2.896  -2.244  -0.091  0.00  0.00    +0.023 A 
ATOM      8  C   UNL     1       2.913  -3.587  -0.067  0.00  0.00    +0.031 A 
ATOM      9  C   UNL     1       1.513  -4.022   0.032  0.00  0.00    -0.004 A 
ATOM     10  C   UNL     1       0.757  -2.867   0.066  0.00  0.00    +0.030 A 
ATOM     11  N   UNL     1       1.603  -1.809  -0.006  0.00  0.00    -0.299 N 
ATOM     12  C   UNL     1       1.208  -0.468   0.001  0.00  0.00    +0.181 A 
ATOM     13  C   UNL     1       0.205   0.130  -0.807  0.00  0.00    +0.094 A 
ATOM     14  C   UNL     1       0.207   1.427  -0.425  0.00  0.00    +0.136 A 
ATOM     15  O   UNL     1       1.145   1.544   0.526  0.00  0.00    -0.358 OA
ATOM     16  N   UNL     1       1.689   0.488   0.751  0.00  0.00    -0.060 NA
ATOM     17  C   UNL     1      -0.671   2.526  -0.964  0.00  0.00    +0.089 C 
ATOM     18  C   UNL     1      -0.745  -2.795   0.166  0.00  0.00    +0.064 C 
ENDBRANCH   4   9
ENDBRANCH   2   5
ENDBRANCH   1   2
BRANCH   1  19
ATOM     19  C   UNL     1       1.737 -10.114   0.105  0.00  0.00    +0.328 C 
BRANCH  19  20
ATOM     20  C   UNL     1       2.851 -11.127   0.046  0.00  0.00    +0.255 C 
ATOM     21  O   UNL     1       4.003 -10.757  -0.036  0.00  0.00    -0.272 OA
ATOM     22  N   UNL     1       2.567 -12.444   0.083  0.00  0.00    -0.282 N 
ATOM     23  H   UNL     1       1.644 -12.741   0.092  0.00  0.00    +0.155 HD
BRANCH  22  24
ATOM     24  C   UNL     1       3.606 -13.384   0.110  0.00  0.00    +0.050 A 
ATOM     25  C   UNL     1       4.846 -13.060  -0.421  0.00  0.00    +0.052 A 
ATOM     26  C   UNL     1       5.872 -13.992  -0.394  0.00  0.00    +0.069 A 
ATOM     27  C   UNL     1       5.654 -15.252   0.167  0.00  0.00    +0.068 A 
ATOM     28  C   UNL     1       4.412 -15.570   0.696  0.00  0.00    +0.045 A 
ATOM     29  C   UNL     1       3.393 -14.638   0.672  0.00  0.00    +0.041 A 
ATOM     30 BR   UNL     1       1.703 -15.069   1.401  0.00  0.00    -0.048 Br
ATOM     31  N   UNL     1       6.851 -15.957   0.050  0.00  0.00    -0.306 N 
ATOM     32  H   UNL     1       7.007 -16.866   0.352  0.00  0.00    +0.170 HD
ATOM     33  C   UNL     1       7.754 -15.162  -0.554  0.00  0.00    +0.325 A 
ATOM     34  O   UNL     1       8.903 -15.472  -0.807  0.00  0.00    -0.247 OA
ATOM     35  N   UNL     1       7.194 -13.970  -0.833  0.00  0.00    -0.306 N 
ATOM     36  H   UNL     1       7.635 -13.223  -1.268  0.00  0.00    +0.170 HD
ENDBRANCH  22  24
ENDBRANCH  19  20
ENDBRANCH   1  19
TORSDOF 6
