REMARK  Name = ZINC35365962
REMARK  13 active torsions:
REMARK  status: ('A' for Active; 'I' for Inactive)
REMARK    1  A    between atoms: C_1  and  C_2
REMARK    2  A    between atoms: C_3  and  C_36
REMARK    3  A    between atoms: C_9  and  C_35
REMARK    4  A    between atoms: C_10  and  C_17
REMARK    5  A    between atoms: C_15  and  C_16
REMARK    6  A    between atoms: C_17  and  C_18
REMARK    7  A    between atoms: N_23  and  C_26
REMARK    8  A    between atoms: C_26  and  C_27
REMARK    9  A    between atoms: N_29  and  C_30
REMARK   10  A    between atoms: C_30  and  C_31
REMARK   11  A    between atoms: C_31  and  N_32
REMARK   12  A    between atoms: N_32  and  C_33
REMARK   13  A    between atoms: N_32  and  C_34
REMARK                            x       y       z     vdW  Elec       q    Type
REMARK                         _______ _______ _______ _____ _____    ______ ____
ROOT
ATOM      1  C   UNL     1       0.102  -2.562   7.144  0.00  0.00    +0.138 C 
ENDROOT
BRANCH   1  11
ATOM      2  C   UNL     1      -0.018   1.503   0.010  0.00  0.00    +0.048 C 
ATOM      3  C   UNL     1       0.002  -0.004   0.002  0.00  0.00    -0.002 A 
ATOM      4  C   UNL     1       0.009  -0.802  -1.073  0.00  0.00    +0.106 A 
ATOM      5  O   UNL     1       0.028  -2.093  -0.695  0.00  0.00    -0.459 OA
ATOM      6  C   UNL     1       0.035  -2.202   0.649  0.00  0.00    +0.142 A 
ATOM      7  C   UNL     1       0.025  -0.893   1.172  0.00  0.00    +0.024 A 
ATOM      8  C   UNL     1       0.035  -0.683   2.544  0.00  0.00    +0.023 A 
ATOM      9  C   UNL     1       0.058  -1.782   3.403  0.00  0.00    +0.022 A 
ATOM     10  C   UNL     1       0.068  -1.597   4.857  0.00  0.00    -0.029 A 
ATOM     11  C   UNL     1       0.090  -2.703   5.644  0.00  0.00    +0.049 A 
ATOM     12  C   UNL     1       0.102  -3.985   5.054  0.00  0.00    +0.341 A 
ATOM     13  O   UNL     1       0.121  -4.968   5.772  0.00  0.00    -0.245 OA
ATOM     14  O   UNL     1       0.092  -4.149   3.722  0.00  0.00    -0.422 OA
ATOM     15  C   UNL     1       0.071  -3.092   2.879  0.00  0.00    +0.146 A 
ATOM     16  C   UNL     1       0.053  -3.290   1.510  0.00  0.00    +0.035 A 
ATOM     17  C   UNL     1       0.070  -4.690   0.952  0.00  0.00    +0.051 C 
ATOM     18  C   UNL     1       0.056  -0.217   5.462  0.00  0.00    +0.045 C 
ATOM     19  C   UNL     1      -0.004  -0.323  -2.502  0.00  0.00    +0.086 C 
ENDBRANCH   1  11
BRANCH   1  20
ATOM     20  C   UNL     1      -1.308  -2.658   7.669  0.00  0.00    +0.220 C 
ATOM     21  O   UNL     1      -2.231  -2.823   6.900  0.00  0.00    -0.275 OA
ATOM     22  N   UNL     1      -1.543  -2.558   8.992  0.00  0.00    -0.299 N 
ATOM     23  C   UNL     1      -0.438  -2.351   9.942  0.00  0.00    +0.123 C 
ATOM     24  C   UNL     1      -0.786  -1.161  10.841  0.00  0.00    +0.104 C 
ATOM     25  N   UNL     1      -2.101  -1.384  11.457  0.00  0.00    -0.291 NA
ATOM     26  C   UNL     1      -3.161  -1.452  10.442  0.00  0.00    +0.104 C 
ATOM     27  C   UNL     1      -2.910  -2.648   9.525  0.00  0.00    +0.123 C 
BRANCH  25  28
ATOM     28  C   UNL     1      -2.396  -0.350  12.458  0.00  0.00    +0.180 C 
BRANCH  28  29
ATOM     29  C   UNL     1      -3.625  -0.742  13.238  0.00  0.00    +0.227 C 
ATOM     30  O   UNL     1      -4.199  -1.780  12.984  0.00  0.00    -0.274 OA
ATOM     31  N   UNL     1      -4.087   0.062  14.216  0.00  0.00    -0.316 N 
ATOM     32  H   UNL     1      -3.628   0.892  14.419  0.00  0.00    +0.149 HD
BRANCH  31  33
ATOM     33  C   UNL     1      -5.281  -0.319  14.974  0.00  0.00    +0.085 C 
BRANCH  33  34
ATOM     34  C   UNL     1      -5.589   0.758  16.016  0.00  0.00    -0.061 C 
BRANCH  34  35
ATOM     35  N   UNL     1      -6.787   0.376  16.776  0.00  0.00    +0.377 N 
ATOM     36  C   UNL     1      -6.510  -0.843  17.547  0.00  0.00    -0.097 C 
ATOM     37  C   UNL     1      -7.152   1.464  17.694  0.00  0.00    -0.097 C 
ATOM     38  H   UNL     1      -7.549   0.205  16.138  0.00  0.00    -0.083 HD
ENDBRANCH  34  35
ENDBRANCH  33  34
ENDBRANCH  31  33
ENDBRANCH  28  29
ENDBRANCH  25  28
ENDBRANCH   1  20
TORSDOF 7
