REMARK  Name = ZINC22852228
REMARK  6 active torsions:
REMARK  status: ('A' for Active; 'I' for Inactive)
REMARK    1  A    between atoms: C_1  and  C_2
REMARK    2  A    between atoms: C_5  and  C_33
REMARK    3  A    between atoms: N_8  and  C_10
REMARK    4  A    between atoms: C_10  and  C_12
REMARK    5  A    between atoms: C_10  and  C_19
REMARK    6  A    between atoms: C_25  and  C_27
REMARK                            x       y       z     vdW  Elec       q    Type
REMARK                         _______ _______ _______ _____ _____    ______ ____
ROOT
ATOM      1  C   UNL     1      -2.513   0.978   0.020  0.00  0.00    +0.006 C 
ENDROOT
BRANCH   1   7
ATOM      2  C   UNL     1      -6.050   2.937  -1.152  0.00  0.00    +0.005 C 
ATOM      3  C   UNL     1      -5.838   1.512  -1.666  0.00  0.00    -0.031 C 
ATOM      4  C   UNL     1      -5.358   1.558  -3.119  0.00  0.00    +0.003 C 
ATOM      5  C   UNL     1      -4.010   2.281  -3.180  0.00  0.00    -0.031 C 
ATOM      6  C   UNL     1      -3.007   1.559  -2.278  0.00  0.00    -0.074 C 
ATOM      7  N   UNL     1      -3.512   1.542  -0.899  0.00  0.00    +0.388 N 
ATOM      8  C   UNL     1      -4.782   0.811  -0.807  0.00  0.00    -0.074 C 
ATOM      9  C   UNL     1      -3.494   2.280  -4.621  0.00  0.00    +0.005 C 
ATOM     10  H   UNL     1      -3.701   2.583  -0.598  0.00  0.00    -0.080 HD
ENDBRANCH   1   7
BRANCH   1  11
ATOM     11  C   UNL     1      -3.060   0.991   1.424  0.00  0.00    +0.050 A 
ATOM     12  C   UNL     1      -3.052   0.017   2.342  0.00  0.00    +0.282 A 
ATOM     13  N   UNL     1      -3.601   0.219   3.584  0.00  0.00    -0.169 N 
ATOM     14  C   UNL     1      -4.158   1.445   3.827  0.00  0.00    +0.200 A 
ATOM     15  S   UNL     1      -3.893   2.308   2.297  0.00  0.00    -0.050 S 
ATOM     16  N   UNL     1      -4.638   1.478   5.039  0.00  0.00    -0.197 NA
ATOM     17  C   UNL     1      -4.421   0.297   5.633  0.00  0.00    +0.218 A 
ATOM     18  N   UNL     1      -3.796  -0.499   4.792  0.00  0.00    -0.138 NA
ATOM     19  O   UNL     1      -2.490  -1.185   2.042  0.00  0.00    -0.265 OA
BRANCH  17  20
ATOM     20  C   UNL     1      -4.820  -0.055   7.012  0.00  0.00    +0.173 A 
ATOM     21  C   UNL     1      -5.465   0.759   7.889  0.00  0.00    +0.053 A 
ATOM     22  C   UNL     1      -5.644   0.019   9.075  0.00  0.00    +0.042 A 
ATOM     23  C   UNL     1      -5.104  -1.198   8.866  0.00  0.00    +0.196 A 
ATOM     24  O   UNL     1      -4.611  -1.241   7.617  0.00  0.00    -0.460 OA
ENDBRANCH  17  20
ENDBRANCH   1  11
BRANCH   1  25
ATOM     25  C   UNL     1      -1.255   1.806  -0.037  0.00  0.00    -0.056 A 
ATOM     26  C   UNL     1      -0.024   1.184  -0.133  0.00  0.00    +0.005 A 
ATOM     27  C   UNL     1       1.131   1.942  -0.190  0.00  0.00    +0.038 A 
ATOM     28  C   UNL     1       1.054   3.324  -0.148  0.00  0.00    +0.123 A 
ATOM     29  C   UNL     1      -0.180   3.945  -0.047  0.00  0.00    +0.038 A 
ATOM     30  C   UNL     1      -1.333   3.185   0.011  0.00  0.00    +0.005 A 
ATOM     31  F   UNL     1       2.182   4.066  -0.205  0.00  0.00    -0.205 F 
ENDBRANCH   1  25
TORSDOF 4
