REMARK  Name = ZINC09120833
REMARK  4 active torsions:
REMARK  status: ('A' for Active; 'I' for Inactive)
REMARK    1  A    between atoms: C_6  and  N_7
REMARK    2  A    between atoms: C_9  and  C_14
REMARK    3  A    between atoms: C_14  and  N_15
REMARK    4  A    between atoms: C_16  and  C_18
REMARK                            x       y       z     vdW  Elec       q    Type
REMARK                         _______ _______ _______ _____ _____    ______ ____
ROOT
ATOM      1  N   UNL     1       4.675   8.128   1.255  0.00  0.00    -0.234 N 
ATOM      2  C   UNL     1       3.977   7.787   0.006  0.00  0.00    +0.163 C 
ATOM      3  C   UNL     1       3.970   6.246  -0.002  0.00  0.00    +0.213 C 
ATOM      4  O   UNL     1       4.657   5.884   1.230  0.00  0.00    -0.444 OA
ATOM      5  C   UNL     1       5.022   6.994   1.881  0.00  0.00    +0.408 C 
ATOM      6  O   UNL     1       5.615   6.977   2.941  0.00  0.00    -0.226 OA
ENDROOT
BRANCH   1  12
ATOM      7  C   UNL     1       4.526  10.522   0.970  0.00  0.00    +0.027 A 
ATOM      8  C   UNL     1       4.777  11.802   1.425  0.00  0.00    +0.051 A 
ATOM      9  C   UNL     1       5.446  11.995   2.623  0.00  0.00    +0.166 A 
ATOM     10  C   UNL     1       5.862  10.897   3.372  0.00  0.00    +0.168 A 
ATOM     11  C   UNL     1       5.605   9.614   2.917  0.00  0.00    +0.073 A 
ATOM     12  C   UNL     1       4.934   9.425   1.716  0.00  0.00    +0.043 A 
ATOM     13  O   UNL     1       6.491  11.348   4.496  0.00  0.00    -0.453 OA
ATOM     14  C   UNL     1       6.097  12.726   4.630  0.00  0.00    +0.466 C 
ATOM     15  O   UNL     1       5.815  13.135   3.279  0.00  0.00    -0.453 OA
ENDBRANCH   1  12
BRANCH   3  16
ATOM     16  C   UNL     1       2.534   5.717   0.009  0.00  0.00    +0.150 C 
BRANCH  16  17
ATOM     17  N   UNL     1       2.554   4.252   0.001  0.00  0.00    -0.311 N 
ATOM     18  C   UNL     1       1.396   3.562   0.008  0.00  0.00    +0.219 C 
ATOM     19  O   UNL     1       0.338   4.154   0.021  0.00  0.00    -0.275 OA
ATOM     20  H   UNL     1       3.401   3.778  -0.010  0.00  0.00    +0.149 HD
BRANCH  18  21
ATOM     21  C   UNL     1       1.417   2.055  -0.000  0.00  0.00    +0.048 C 
ATOM     22  C   UNL     1      -0.019   1.526   0.010  0.00  0.00    +0.019 C 
ATOM     23  C   UNL     1       0.002  -0.004   0.002  0.00  0.00    -0.009 C 
ATOM     24  C   UNL     1       0.718  -0.497  -1.257  0.00  0.00    +0.007 C 
ATOM     25  C   UNL     1       2.154   0.032  -1.268  0.00  0.00    -0.009 C 
ATOM     26  C   UNL     1       2.133   1.562  -1.259  0.00  0.00    +0.019 C 
ATOM     27  C   UNL     1       2.894  -0.475  -0.028  0.00  0.00    +0.007 C 
ATOM     28  C   UNL     1       2.178   0.019   1.231  0.00  0.00    -0.009 C 
ATOM     29  C   UNL     1       0.742  -0.511   1.242  0.00  0.00    +0.007 C 
ATOM     30  C   UNL     1       2.157   1.548   1.239  0.00  0.00    +0.019 C 
ENDBRANCH  18  21
ENDBRANCH  16  17
ENDBRANCH   3  16
TORSDOF 4
