REMARK  Name = ZINC20914337
REMARK  11 active torsions:
REMARK  status: ('A' for Active; 'I' for Inactive)
REMARK    1  A    between atoms: C_1  and  O_2
REMARK    2  A    between atoms: O_2  and  C_3
REMARK    3  A    between atoms: C_3  and  C_5
REMARK    4  A    between atoms: C_8  and  C_11
REMARK    5  A    between atoms: N_12  and  N_13
REMARK    6  A    between atoms: C_17  and  S_20
REMARK    7  A    between atoms: N_18  and  N_19
REMARK    8  A    between atoms: S_20  and  C_21
REMARK    9  A    between atoms: C_21  and  C_22
REMARK   10  A    between atoms: N_24  and  C_25
REMARK   11  A    between atoms: N_24  and  C_31
REMARK                            x       y       z     vdW  Elec       q    Type
REMARK                         _______ _______ _______ _____ _____    ______ ____
ROOT
ATOM      1  N   UNL     1       1.113  -8.238   2.615  0.00  0.00    -0.204 N 
ATOM      2  C   UNL     1       1.860  -8.881   3.591  0.00  0.00    +0.254 A 
ATOM      3  N   UNL     1       2.745  -8.329   4.383  0.00  0.00    -0.109 NA
ATOM      4  N   UNL     1       3.248  -9.215   5.167  0.00  0.00    -0.119 NA
ATOM      5  C   UNL     1       2.715 -10.387   4.922  0.00  0.00    +0.210 A 
ATOM      6  N   UNL     1       1.806 -10.214   3.912  0.00  0.00    -0.211 N 
ATOM      7  H   UNL     1       0.477  -8.740   2.082  0.00  0.00    +0.177 HD
ENDROOT
BRANCH   6   8
ATOM      8  N   UNL     1       1.013 -11.169   3.342  0.00  0.00    -0.294 N 
ATOM      9  H   UNL     1       1.477 -11.602   2.557  0.00  0.00    +0.163 HD
ATOM     10  H   UNL     1       0.733 -11.860   4.022  0.00  0.00    +0.163 HD
ENDBRANCH   6   8
BRANCH   1  12
ATOM     11  C   UNL     1       0.577  -6.261   1.484  0.00  0.00    +0.138 C 
ATOM     12  N   UNL     1       1.277  -6.864   2.399  0.00  0.00    -0.188 NA
BRANCH  11  16
ATOM     13  C   UNL     1       1.073  -2.105   0.833  0.00  0.00    +0.059 A 
ATOM     14  C   UNL     1       0.156  -2.829   0.064  0.00  0.00    +0.015 A 
ATOM     15  C   UNL     1      -0.004  -4.168   0.273  0.00  0.00    +0.010 A 
ATOM     16  C   UNL     1       0.750  -4.817   1.258  0.00  0.00    -0.005 A 
ATOM     17  C   UNL     1       1.667  -4.093   2.028  0.00  0.00    +0.010 A 
ATOM     18  C   UNL     1       1.831  -2.754   1.814  0.00  0.00    +0.015 A 
BRANCH  13  19
ATOM     19  C   UNL     1       1.246  -0.658   0.606  0.00  0.00    +0.339 C 
ATOM     20  O   UNL     1       2.046  -0.030   1.271  0.00  0.00    -0.245 OA
BRANCH  19  22
ATOM     21  C   UNL     1       0.736   1.370  -0.504  0.00  0.00    +0.280 C 
ATOM     22  O   UNL     1       0.517  -0.033  -0.339  0.00  0.00    -0.464 OA
ENDBRANCH  19  22
ENDBRANCH  13  19
ENDBRANCH  11  16
ENDBRANCH   1  12
BRANCH   5  23
ATOM     23  S   UNL     1       3.091 -11.900   5.743  0.00  0.00    -0.075 S 
BRANCH  23  24
ATOM     24  C   UNL     1       4.352 -11.436   6.962  0.00  0.00    +0.173 C 
BRANCH  24  25
ATOM     25  C   UNL     1       4.768 -12.655   7.744  0.00  0.00    +0.226 C 
ATOM     26  O   UNL     1       4.430 -13.759   7.371  0.00  0.00    -0.275 OA
ATOM     27  N   UNL     1       5.515 -12.520   8.857  0.00  0.00    -0.295 N 
BRANCH  27  28
ATOM     28  C   UNL     1       6.047 -13.707   9.531  0.00  0.00    +0.076 C 
ATOM     29  C   UNL     1       6.954 -14.476   8.569  0.00  0.00    +0.022 C 
ATOM     30  C   UNL     1       7.509 -15.716   9.273  0.00  0.00    +0.002 C 
ATOM     31  C   UNL     1       6.352 -16.615   9.712  0.00  0.00    +0.000 C 
ATOM     32  C   UNL     1       5.445 -15.845  10.675  0.00  0.00    +0.002 C 
ATOM     33  C   UNL     1       4.890 -14.605   9.970  0.00  0.00    +0.022 C 
ENDBRANCH  27  28
BRANCH  27  34
ATOM     34  C   UNL     1       5.796 -11.185   9.392  0.00  0.00    +0.076 C 
ATOM     35  C   UNL     1       4.493 -10.544   9.873  0.00  0.00    +0.022 C 
ATOM     36  C   UNL     1       4.786  -9.151  10.432  0.00  0.00    +0.002 C 
ATOM     37  C   UNL     1       5.408  -8.282   9.337  0.00  0.00    +0.000 C 
ATOM     38  C   UNL     1       6.711  -8.923   8.857  0.00  0.00    +0.002 C 
ATOM     39  C   UNL     1       6.418 -10.317   8.297  0.00  0.00    +0.022 C 
ENDBRANCH  27  34
ENDBRANCH  24  25
ENDBRANCH  23  24
ENDBRANCH   5  23
TORSDOF 10
