REMARK  Name = ZINC04663114
REMARK  1 active torsions:
REMARK  status: ('A' for Active; 'I' for Inactive)
REMARK    1  A    between atoms: C_10  and  C_12
REMARK                            x       y       z     vdW  Elec       q    Type
REMARK                         _______ _______ _______ _____ _____    ______ ____
ROOT
ATOM      1  C   UNL     1      -0.070   6.312   0.029  0.00  0.00    +0.178 A 
ATOM      2  N   UNL     1       1.273   6.060   0.015  0.00  0.00    -0.304 N 
ATOM      3  H   UNL     1       1.905   6.835   0.012  0.00  0.00    +0.170 HD
ATOM      4  C   UNL     1       1.785   4.805   0.006  0.00  0.00    +0.260 A 
ATOM      5  O   UNL     1       2.984   4.589  -0.006  0.00  0.00    -0.267 OA
ATOM      6  C   UNL     1       0.782   3.713   0.012  0.00  0.00    +0.075 A 
ATOM      7  C   UNL     1       1.048   2.333   0.005  0.00  0.00    -0.023 A 
ATOM      8  C   UNL     1      -0.018   1.492   0.010  0.00  0.00    -0.004 A 
ATOM      9  S   UNL     1      -1.438   2.559   0.022  0.00  0.00    -0.073 S 
ATOM     10  C   UNL     1      -0.581   4.103   0.027  0.00  0.00    +0.116 A 
ATOM     11  N   UNL     1      -0.989   5.360   0.035  0.00  0.00    -0.219 NA
ATOM     12  C   UNL     1       0.002  -0.004   0.002  0.00  0.00    +0.043 C 
ATOM     13  C   UNL     1       1.413  -0.469  -0.385  0.00  0.00    +0.005 C 
ATOM     14  C   UNL     1       2.432   0.315   0.448  0.00  0.00    +0.005 C 
ATOM     15  C   UNL     1       2.469   1.772  -0.010  0.00  0.00    +0.037 C 
ENDROOT
BRANCH   1  25
ATOM     16  C   UNL     1      -0.626  12.686   0.055  0.00  0.00    +0.001 A 
ATOM     17  C   UNL     1       0.710  12.310   0.042  0.00  0.00    +0.004 A 
ATOM     18  C   UNL     1       1.065  10.978   0.034  0.00  0.00    +0.047 A 
ATOM     19  C   UNL     1       0.081   9.997   0.040  0.00  0.00    +0.139 A 
ATOM     20  C   UNL     1      -1.270  10.379   0.054  0.00  0.00    +0.064 A 
ATOM     21  C   UNL     1      -1.617  11.730   0.062  0.00  0.00    +0.015 A 
ATOM     22  C   UNL     1      -2.300   9.322   0.060  0.00  0.00    +0.193 A 
ATOM     23  O   UNL     1      -3.489   9.595   0.072  0.00  0.00    -0.287 OA
ATOM     24  C   UNL     1      -1.852   7.976   0.051  0.00  0.00    +0.101 A 
ATOM     25  C   UNL     1      -0.517   7.716   0.038  0.00  0.00    +0.174 A 
ATOM     26  O   UNL     1       0.408   8.688   0.037  0.00  0.00    -0.452 OA
ENDBRANCH   1  25
TORSDOF 1
