REMARK  Name = ZINC05427552
REMARK  8 active torsions:
REMARK  status: ('A' for Active; 'I' for Inactive)
REMARK    1  A    between atoms: C_1  and  C_2
REMARK    2  A    between atoms: C_10  and  C_12
REMARK    3  A    between atoms: C_12  and  O_13
REMARK    4  A    between atoms: O_13  and  C_14
REMARK    5  A    between atoms: C_14  and  C_16
REMARK    6  A    between atoms: C_19  and  N_24
REMARK    7  A    between atoms: C_21  and  O_22
REMARK    8  A    between atoms: O_22  and  C_23
REMARK                            x       y       z     vdW  Elec       q    Type
REMARK                         _______ _______ _______ _____ _____    ______ ____
ROOT
ATOM      1  O   UNL     1       0.091  -2.476   5.798  0.00  0.00    -0.455 OA
ENDROOT
BRANCH   1   2
ATOM      2  C   UNL     1       0.112  -3.148   6.967  0.00  0.00    +0.343 C 
ATOM      3  O   UNL     1       0.129  -4.363   6.969  0.00  0.00    -0.245 OA
BRANCH   2   4
ATOM      4  C   UNL     1       0.114  -2.410   8.239  0.00  0.00    +0.102 A 
ATOM      5  C   UNL     1       0.089  -1.010   8.239  0.00  0.00    +0.040 A 
ATOM      6  C   UNL     1       0.090  -0.326   9.420  0.00  0.00    +0.063 A 
ATOM      7  C   UNL     1       0.117  -1.014  10.633  0.00  0.00    +0.047 A 
ATOM      8  C   UNL     1       0.143  -2.403  10.649  0.00  0.00    +0.070 A 
ATOM      9  C   UNL     1       0.136  -3.107   9.457  0.00  0.00    +0.136 A 
ATOM     10 CL   UNL     1       0.058   1.410   9.413  0.00  0.00    -0.082 Cl
BRANCH   7  11
ATOM     11  N   UNL     1       0.119  -0.307  11.831  0.00  0.00    -0.357 N 
ATOM     12  H   UNL     1       0.102   0.662  11.822  0.00  0.00    +0.142 HD
ATOM     13  H   UNL     1       0.138  -0.784  12.675  0.00  0.00    +0.142 HD
ENDBRANCH   7  11
BRANCH   9  14
ATOM     14  O   UNL     1       0.155  -4.463   9.467  0.00  0.00    -0.494 OA
ATOM     15  C   UNL     1       0.176  -5.103  10.745  0.00  0.00    +0.277 C 
ENDBRANCH   9  14
ENDBRANCH   2   4
ENDBRANCH   1   2
BRANCH   1  16
ATOM     16  C   UNL     1       0.091  -3.257   4.601  0.00  0.00    +0.285 C 
BRANCH  16  26
ATOM     17  C   UNL     1      -0.018   1.503   0.010  0.00  0.00    +0.064 C 
ATOM     18  C   UNL     1       0.002  -0.004   0.002  0.00  0.00    +0.033 A 
ATOM     19  C   UNL     1       0.005  -0.653  -1.162  0.00  0.00    +0.070 A 
ATOM     20  S   UNL     1       0.032  -2.358  -0.630  0.00  0.00    -0.059 S 
ATOM     21  C   UNL     1       0.036  -2.054   1.123  0.00  0.00    +0.158 A 
ATOM     22  N   UNL     1       0.023  -0.686   1.195  0.00  0.00    -0.261 N 
ATOM     23  C   UNL     1       0.027  -0.142   2.448  0.00  0.00    +0.259 A 
ATOM     24  O   UNL     1       0.011   1.071   2.587  0.00  0.00    -0.267 OA
ATOM     25  C   UNL     1       0.049  -0.973   3.568  0.00  0.00    +0.095 A 
ATOM     26  C   UNL     1       0.066  -2.342   3.404  0.00  0.00    +0.061 A 
ATOM     27  N   UNL     1       0.052  -2.840   2.171  0.00  0.00    -0.336 N 
ATOM     28  H   UNL     1       0.065  -3.802   2.045  0.00  0.00    +0.168 HD
ENDBRANCH  16  26
ENDBRANCH   1  16
TORSDOF 6
