REMARK  Name = ZINC39354612
REMARK  8 active torsions:
REMARK  status: ('A' for Active; 'I' for Inactive)
REMARK    1  A    between atoms: C_1  and  C_2
REMARK    2  A    between atoms: C_5  and  C_8
REMARK    3  A    between atoms: C_8  and  N_9
REMARK    4  A    between atoms: N_16  and  C_17
REMARK    5  A    between atoms: C_17  and  C_18
REMARK    6  A    between atoms: C_18  and  C_19
REMARK    7  A    between atoms: N_28  and  C_35
REMARK    8  A    between atoms: N_31  and  C_34
REMARK                            x       y       z     vdW  Elec       q    Type
REMARK                         _______ _______ _______ _____ _____    ______ ____
ROOT
ATOM      1  N   UNL     1       1.443  -4.743   0.089  0.00  0.00    -0.286 N 
ATOM      2  C   UNL     1       2.409  -4.989  -0.980  0.00  0.00    +0.203 C 
ATOM      3  C   UNL     1       3.659  -4.388  -0.261  0.00  0.00    +0.203 C 
ATOM      4  N   UNL     1       3.466  -4.897   1.076  0.00  0.00    -0.341 N 
ATOM      5  C   UNL     1       2.167  -5.058   1.242  0.00  0.00    +0.159 C 
ATOM      6  N   UNL     1       1.593  -5.488   2.415  0.00  0.00    -0.318 N 
ATOM      7  N   UNL     1       4.801  -4.718  -1.070  0.00  0.00    -0.266 N 
ATOM      8  C   UNL     1       4.656  -4.498  -2.409  0.00  0.00    +0.312 C 
ATOM      9  O   UNL     1       5.601  -4.689  -3.148  0.00  0.00    -0.252 OA
ATOM     10  N   UNL     1       3.487  -4.074  -2.931  0.00  0.00    -0.227 N 
ATOM     11  C   UNL     1       2.288  -4.246  -2.268  0.00  0.00    +0.247 C 
ATOM     12  O   UNL     1       1.227  -3.839  -2.689  0.00  0.00    -0.273 OA
ATOM     13  C   UNL     1       3.485  -3.415  -4.239  0.00  0.00    +0.143 C 
ATOM     14  C   UNL     1       6.038  -5.253  -0.495  0.00  0.00    +0.136 C 
ATOM     15  H   UNL     1       0.630  -5.589   2.475  0.00  0.00    +0.149 HD
ATOM     16  H   UNL     1       4.160  -5.083   1.729  0.00  0.00    +0.164 HD
ENDROOT
BRANCH   1  17
ATOM     17  C   UNL     1       0.059  -4.275  -0.021  0.00  0.00    +0.143 C 
BRANCH  17  22
ATOM     18  C   UNL     1      -3.447  -8.797  -0.826  0.00  0.00    +0.044 C 
ATOM     19  C   UNL     1      -2.533  -7.618  -0.616  0.00  0.00    -0.050 A 
ATOM     20  C   UNL     1      -2.330  -7.118   0.656  0.00  0.00    +0.003 A 
ATOM     21  C   UNL     1      -1.491  -6.037   0.849  0.00  0.00    +0.005 A 
ATOM     22  C   UNL     1      -0.854  -5.455  -0.231  0.00  0.00    -0.030 A 
ATOM     23  C   UNL     1      -1.056  -5.956  -1.504  0.00  0.00    +0.005 A 
ATOM     24  C   UNL     1      -1.892  -7.040  -1.696  0.00  0.00    +0.003 A 
ENDBRANCH  17  22
ENDBRANCH   1  17
BRANCH   6  25
ATOM     25  C   UNL     1       2.436  -5.795   3.574  0.00  0.00    +0.109 C 
BRANCH  25  26
ATOM     26  C   UNL     1       1.554  -6.249   4.739  0.00  0.00    +0.056 C 
BRANCH  26  27
ATOM     27  C   UNL     1       2.421  -6.564   5.931  0.00  0.00    -0.021 A 
ATOM     28  C   UNL     1       2.913  -5.610   6.928  0.00  0.00    +0.003 A 
ATOM     29  C   UNL     1       2.769  -4.233   7.107  0.00  0.00    +0.010 A 
ATOM     30  C   UNL     1       3.370  -3.620   8.170  0.00  0.00    +0.001 A 
ATOM     31  C   UNL     1       4.123  -4.356   9.074  0.00  0.00    +0.002 A 
ATOM     32  C   UNL     1       4.278  -5.716   8.917  0.00  0.00    +0.026 A 
ATOM     33  C   UNL     1       3.675  -6.361   7.842  0.00  0.00    +0.047 A 
ATOM     34  N   UNL     1       3.641  -7.671   7.419  0.00  0.00    -0.360 N 
ATOM     35  C   UNL     1       2.885  -7.774   6.283  0.00  0.00    +0.087 A 
ATOM     36  H   UNL     1       4.083  -8.411   7.863  0.00  0.00    +0.165 HD
ENDBRANCH  26  27
ENDBRANCH  25  26
ENDBRANCH   6  25
TORSDOF 5
